MODEL 1
REMARK VINA RESULT:      -6.8      0.000      0.000
ROOT
ATOM      1  C1  NAG B   1      10.942   3.593  17.1110  0.00  0.00     0.000 C
ATOM      2  C2  NAG B   1       9.455   3.333  17.3370  0.00  0.00     0.000 C
ATOM      3  C3  NAG B   1       9.153   1.854  17.4560  0.00  0.00     0.000 C
ATOM      4  C4  NAG B   1       9.662   1.228  16.1610  0.00  0.00     0.000 C
ATOM      5  C5  NAG B   1      11.182   1.417  16.0750  0.00  0.00     0.000 C
ATOM      6  O5  NAG B   1      11.531   2.818  16.0550  0.00  0.00     0.000 O
ATOM      7   O  NAG B   1       7.740   1.598  17.6310  0.00  0.00     0.000 O
ATOM      9  HD  NAG B   1       7.850   2.341  18.0620  0.00  0.00     0.000 HD
ATOM      9   O  NAG B   1       9.348  -0.155  16.1310  0.00  0.00     0.000 O
ATOM     11  HD  NAG B   1       9.458   0.589  16.5620  0.00  0.00     0.000 HD
ATOM     11   C  NAG B   1      11.733   0.677  14.8500  0.00  0.00     0.000 C
ATOM     12   O  NAG B   1      12.911   1.308  14.3500  0.00  0.00     0.000 O
ATOM     14  HD  NAG B   1      13.021   2.052  14.7810  0.00  0.00     0.000 HD
ENDROOT
BRANCH 2 16
ATOM     14   N  NAG B   1       8.485   4.443  17.3230  0.00  0.00     0.000 N
ATOM     16  HD  NAG B   1       7.653   4.633  17.4700  0.00  0.00     0.000 HD
ATOM     16   C  NAG B   1       8.093   5.090  18.4330  0.00  0.00     0.000 C
ATOM     17   C  NAG B   1       8.630   4.672  19.7760  0.00  0.00     0.000 C
ATOM     18   O  NAG B   1       7.318   6.045  18.3760  0.00  0.00     0.000 OA
ENDBRANCH 2 16
BRANCH 1 19
ATOM     19  O4  BDP B   2      10.970   4.943  16.6680  0.00  0.00     0.000 O
BRANCH 19 23
ATOM     20  C1  BDP B   2      12.517   6.961  13.4310  0.00  0.00     0.000 C
ATOM     21  C2  BDP B   2      11.406   5.974  13.1400  0.00  0.00     0.000 C
ATOM     22  C3  BDP B   2      10.646   5.619  14.3980  0.00  0.00     0.000 C
ATOM     23  C4  BDP B   2      11.645   5.145  15.4490  0.00  0.00     0.000 C
ATOM     24  C5  BDP B   2      12.697   6.216  15.6630  0.00  0.00     0.000 C
ATOM     25  O5  BDP B   2      13.376   6.462  14.4460  0.00  0.00     0.000 O
ATOM     26   O  BDP B   2      10.518   6.505  12.1810  0.00  0.00     0.000 O
ATOM     28  HD  BDP B   2      11.169   7.073  12.1240  0.00  0.00     0.000 HD
ATOM     28   O  BDP B   2       9.667   4.613  14.0910  0.00  0.00     0.000 O
ATOM     30  HD  BDP B   2      10.319   5.181  14.0340  0.00  0.00     0.000 HD
BRANCH 24 30
ATOM     30   C  BDP B   2      13.713   5.812  16.6710  0.00  0.00     0.000 C
ATOM     31   O  BDP B   2      13.821   6.526  17.6950  0.00  0.00     0.000 OA
ATOM     32   O  BDP B   2      14.413   4.785  16.4410  0.00  0.00     0.000 OA
ENDBRANCH 24 30
BRANCH 20 33
ATOM     33  O3  NAG B   3      13.229   7.039  12.2200  0.00  0.00     0.000 O
BRANCH 33 36
ATOM     34  C1  NAG B   3      14.952  10.278  11.3910  0.00  0.00     0.000 C
ATOM     35  C2  NAG B   3      13.813   9.288  11.5400  0.00  0.00     0.000 C
ATOM     36  C3  NAG B   3      14.268   8.020  12.2780  0.00  0.00     0.000 C
ATOM     37  C4  NAG B   3      15.515   7.460  11.6000  0.00  0.00     0.000 C
ATOM     38  C5  NAG B   3      16.560   8.559  11.4230  0.00  0.00     0.000 C
ATOM     39  O5  NAG B   3      16.007   9.638  10.6880  0.00  0.00     0.000 O
ATOM     40   O  NAG B   3      16.069   6.397  12.3900  0.00  0.00     0.000 O
ATOM     42  HD  NAG B   3      16.780   6.886  12.3270  0.00  0.00     0.000 HD
ATOM     42   C  NAG B   3      17.791   8.119  10.6350  0.00  0.00     0.000 C
ATOM     43   O  NAG B   3      17.414   7.820   9.2850  0.00  0.00     0.000 O
ATOM     45  HD  NAG B   3      18.126   8.310   9.2220  0.00  0.00     0.000 HD
BRANCH 35 47
ATOM     45   N  NAG B   3      12.452   9.421  11.0350  0.00  0.00     0.000 N
ATOM     47  HD  NAG B   3      12.859   8.725  10.7190  0.00  0.00     0.000 HD
ATOM     47   C  NAG B   3      11.449   9.845  11.7780  0.00  0.00     0.000 C
ATOM     48   C  NAG B   3      10.109   9.904  11.1080  0.00  0.00     0.000 C
ATOM     49   O  NAG B   3      11.597  10.149  12.9600  0.00  0.00     0.000 OA
ENDBRANCH 35 47
BRANCH 34 50
ATOM     50  O4  BDP B   4      14.395  11.312  10.6060  0.00  0.00     0.000 O
BRANCH 50 54
ATOM     51  C1  BDP B   4      14.439  15.332   9.9840  0.00  0.00     0.000 C
ATOM     52  C2  BDP B   4      15.479  14.558   9.1820  0.00  0.00     0.000 C
ATOM     53  C3  BDP B   4      15.118  13.104   9.2080  0.00  0.00     0.000 C
ATOM     54  C4  BDP B   4      14.977  12.624  10.6810  0.00  0.00     0.000 C
ATOM     55  C5  BDP B   4      14.085  13.542  11.5070  0.00  0.00     0.000 C
ATOM     56  O5  BDP B   4      14.473  14.902  11.3330  0.00  0.00     0.000 O
ATOM     57   O  BDP B   4      15.502  15.010   7.8450  0.00  0.00     0.000 O
ATOM     59  HD  BDP B   4      16.209  15.508   7.7950  0.00  0.00     0.000 HD
ATOM     59   O  BDP B   4      16.219  12.388   8.6110  0.00  0.00     0.000 O
ATOM     61  HD  BDP B   4      16.926  12.886   8.5610  0.00  0.00     0.000 HD
BRANCH 55 61
ATOM     61   C  BDP B   4      14.207  13.172  12.9740  0.00  0.00     0.000 C
ATOM     62   O  BDP B   4      15.363  13.073  13.4640  0.00  0.00     0.000 OA
ATOM     63   O  BDP B   4      13.142  12.981  13.6360  0.00  0.00     0.000 OA
ENDBRANCH 55 61
BRANCH 51 64
ATOM     64  O3  NAG B   5      14.778  16.729   9.8850  0.00  0.00     0.000 O
BRANCH 64 67
ATOM     65  C1  NAG B   5      12.341  19.411   9.2030  0.00  0.00     0.000 C
ATOM     66  C2  NAG B   5      13.345  18.307   8.9180  0.00  0.00     0.000 C
ATOM     67  C3  NAG B   5      13.692  17.576  10.2090  0.00  0.00     0.000 C
ATOM     68  C4  NAG B   5      14.123  18.563  11.3020  0.00  0.00     0.000 C
ATOM     69  C5  NAG B   5      13.102  19.680  11.4510  0.00  0.00     0.000 C
ATOM     70  O5  NAG B   5      12.857  20.291  10.1750  0.00  0.00     0.000 O
ATOM     71   O  NAG B   5      14.284  17.855  12.5120  0.00  0.00     0.000 O
ATOM     73  HD  NAG B   5      14.986  18.359  12.5740  0.00  0.00     0.000 HD
ATOM     73   C  NAG B   5      13.511  20.785  12.4350  0.00  0.00     0.000 C
ATOM     74   O  NAG B   5      14.689  21.458  11.9430  0.00  0.00     0.000 O
ATOM     76  HD  NAG B   5      15.391  21.962  12.0050  0.00  0.00     0.000 HD
BRANCH 66 78
ATOM     76   N  NAG B   5      13.645  18.105   7.4880  0.00  0.00     0.000 N
ATOM     78  HD  NAG B   5      13.329  17.638   8.1450  0.00  0.00     0.000 HD
ATOM     78   C  NAG B   5      13.271  17.052   6.7440  0.00  0.00     0.000 C
ATOM     79   C  NAG B   5      13.713  17.144   5.3090  0.00  0.00     0.000 C
ATOM     80   O  NAG B   5      12.608  16.060   7.2130  0.00  0.00     0.000 OA
ENDBRANCH 66 78
BRANCH 65 81
ATOM     81  O4  BDP B   6      12.046  20.132   8.0000  0.00  0.00     0.000 O
BRANCH 81 85
ATOM     82  C1  BDP B   6       8.574  21.795   6.1180  0.00  0.00     0.000 C
ATOM     83  C2  BDP B   6       9.542  22.763   6.7930  0.00  0.00     0.000 C
ATOM     84  C3  BDP B   6      10.914  22.139   7.0640  0.00  0.00     0.000 C
ATOM     85  C4  BDP B   6      10.800  20.804   7.8020  0.00  0.00     0.000 C
ATOM     86  C5  BDP B   6       9.771  19.929   7.0480  0.00  0.00     0.000 C
ATOM     87  O5  BDP B   6       8.484  20.610   6.8950  0.00  0.00     0.000 O
ATOM     88   O  BDP B   6       9.684  23.852   5.8860  0.00  0.00     0.000 O
ATOM     90  HD  BDP B   6      10.294  24.375   5.5610  0.00  0.00     0.000 HD
ATOM     90   O  BDP B   6      11.724  23.062   7.7960  0.00  0.00     0.000 O
ATOM     92  HD  BDP B   6      12.333  23.585   7.4710  0.00  0.00     0.000 HD
BRANCH 86 92
ATOM     92   C  BDP B   6       9.433  18.697   7.8510  0.00  0.00     0.000 C
ATOM     93   O  BDP B   6       8.725  18.808   8.8970  0.00  0.00     0.000 OA
ATOM     94   O  BDP B   6       9.863  17.581   7.4210  0.00  0.00     0.000 OA
ENDBRANCH 86 92
BRANCH 82 95
ATOM     95  O3  NAG B   7       7.269  22.406   6.0890  0.00  0.00     0.000 O
BRANCH 95 98
ATOM     96  C1  NAG B   7       4.076  21.775   4.4320  0.00  0.00     0.000 C
ATOM     97  C2  NAG B   7       5.241  22.615   4.9370  0.00  0.00     0.000 C
ATOM     98  C3  NAG B   7       6.147  21.629   5.6710  0.00  0.00     0.000 C
ATOM     99  C4  NAG B   7       5.384  20.982   6.8240  0.00  0.00     0.000 C
ATOM    100  C5  NAG B   7       4.081  20.351   6.3300  0.00  0.00     0.000 C
ATOM    101  O5  NAG B   7       3.357  21.316   5.5830  0.00  0.00     0.000 O
BRANCH 97 104
ATOM    102   N  NAG B   7       6.043  23.240   3.8760  0.00  0.00     0.000 N
ATOM    104  HD  NAG B   7       6.690  23.427   3.3310  0.00  0.00     0.000 HD
ATOM    104   O  NAG B   7       7.179  24.896   2.8290  0.00  0.00     0.000 OA
ATOM    105   C  NAG B   7       6.444  24.520   3.7630  0.00  0.00     0.000 C
ATOM    106   C  NAG B   7       6.010  25.509   4.7910  0.00  0.00     0.000 C
ENDBRANCH 97 104
ATOM    107   O  NAG B   7       2.263  19.016   6.9750  0.00  0.00     0.000 O
ATOM    109  HD  NAG B   7       2.822  19.191   6.3370  0.00  0.00     0.000 HD
ATOM    109   O  NAG B   7       2.263  19.016   6.9750  0.00  0.00     0.000 O
ATOM    111  HD  NAG B   7       2.822  19.191   6.3370  0.00  0.00     0.000 HD
ENDBRANCH 95 98
ENDBRANCH 82 95
ENDBRANCH 81 85
ENDBRANCH 65 81
ENDBRANCH 64 67
ENDBRANCH 51 64
ENDBRANCH 50 54
ENDBRANCH 34 50
ENDBRANCH 33 36
ENDBRANCH 20 33
ENDBRANCH 19 23
ENDBRANCH 1 19
TORSDOF 19
ENDMDL
MODEL 2
REMARK VINA RESULT:      -6.7      7.665     17.036
ROOT
ATOM      1  C1  NAG B   1       7.488  21.248   5.9960  0.00  0.00     0.000 C
ATOM      2  C2  NAG B   1       5.990  21.329   5.7160  0.00  0.00     0.000 C
ATOM      3  C3  NAG B   1       5.702  21.517   4.2400  0.00  0.00     0.000 C
ATOM      4  C4  NAG B   1       6.438  22.791   3.8400  0.00  0.00     0.000 C
ATOM      5  C5  NAG B   1       7.946  22.581   4.0270  0.00  0.00     0.000 C
ATOM      6  O5  NAG B   1       8.265  22.302   5.4070  0.00  0.00     0.000 O
ATOM      7   O  NAG B   1       4.286  21.633   3.9720  0.00  0.00     0.000 O
ATOM      9  HD  NAG B   1       4.305  21.070   4.6300  0.00  0.00     0.000 HD
ATOM      9   O  NAG B   1       6.161  23.109   2.4860  0.00  0.00     0.000 O
ATOM     11  HD  NAG B   1       6.181  22.546   3.1440  0.00  0.00     0.000 HD
ATOM     11   C  NAG B   1       8.713  23.800   3.5010  0.00  0.00     0.000 C
ATOM     12   O  NAG B   1       9.946  23.975   4.1970  0.00  0.00     0.000 O
ATOM     14  HD  NAG B   1       9.966  23.412   4.8550  0.00  0.00     0.000 HD
ENDROOT
BRANCH 2 16
ATOM     14   N  NAG B   1       5.066  20.244   6.0920  0.00  0.00     0.000 N
ATOM     16  HD  NAG B   1       5.012  19.514   6.5550  0.00  0.00     0.000 HD
ATOM     16   C  NAG B   1       4.425  20.201   7.2730  0.00  0.00     0.000 C
ATOM     17   C  NAG B   1       4.660  21.282   8.2950  0.00  0.00     0.000 C
ATOM     18   O  NAG B   1       3.623  19.305   7.5320  0.00  0.00     0.000 OA
ENDBRANCH 2 16
BRANCH 1 19
ATOM     19  O4  BDP B   2       7.565  21.444   7.4020  0.00  0.00     0.000 O
BRANCH 19 23
ATOM     20  C1  BDP B   2      11.182  19.548   7.9250  0.00  0.00     0.000 C
ATOM     21  C2  BDP B   2       9.953  18.662   7.9080  0.00  0.00     0.000 C
ATOM     22  C3  BDP B   2       8.768  19.380   7.3030  0.00  0.00     0.000 C
ATOM     23  C4  BDP B   2       8.576  20.702   8.0410  0.00  0.00     0.000 C
ATOM     24  C5  BDP B   2       9.861  21.504   7.9810  0.00  0.00     0.000 C
ATOM     25  O5  BDP B   2      10.906  20.771   8.5930  0.00  0.00     0.000 O
ATOM     26   O  BDP B   2      10.213  17.479   7.1830  0.00  0.00     0.000 O
ATOM     28  HD  BDP B   2      11.015  17.797   7.2590  0.00  0.00     0.000 HD
ATOM     28   O  BDP B   2       7.608  18.538   7.3940  0.00  0.00     0.000 O
ATOM     30  HD  BDP B   2       8.410  18.855   7.4700  0.00  0.00     0.000 HD
BRANCH 24 30
ATOM     30   C  BDP B   2       9.746  22.804   8.6930  0.00  0.00     0.000 C
ATOM     31   O  BDP B   2       9.587  22.766   9.9350  0.00  0.00     0.000 OA
ATOM     32   O  BDP B   2       9.806  23.868   8.0150  0.00  0.00     0.000 OA
ENDBRANCH 24 30
BRANCH 20 33
ATOM     33  O3  NAG B   3      12.120  18.815   8.6720  0.00  0.00     0.000 O
BRANCH 33 36
ATOM     34  C1  NAG B   3      15.696  17.983   7.8520  0.00  0.00     0.000 C
ATOM     35  C2  NAG B   3      14.218  17.750   8.0970  0.00  0.00     0.000 C
ATOM     36  C3  NAG B   3      13.459  19.078   8.2450  0.00  0.00     0.000 C
ATOM     37  C4  NAG B   3      14.153  19.942   9.2950  0.00  0.00     0.000 C
ATOM     38  C5  NAG B   3      15.647  20.038   8.9990  0.00  0.00     0.000 C
ATOM     39  O5  NAG B   3      16.212  18.740   8.9370  0.00  0.00     0.000 O
ATOM     40   O  NAG B   3      13.581  21.259   9.3030  0.00  0.00     0.000 O
ATOM     42  HD  NAG B   3      14.410  21.485   9.1950  0.00  0.00     0.000 HD
ATOM     42   C  NAG B   3      16.442  20.777  10.0720  0.00  0.00     0.000 C
ATOM     43   O  NAG B   3      16.409  20.028  11.2930  0.00  0.00     0.000 O
ATOM     45  HD  NAG B   3      17.238  20.254  11.1850  0.00  0.00     0.000 HD
BRANCH 35 47
ATOM     45   N  NAG B   3      13.666  16.403   8.1820  0.00  0.00     0.000 N
ATOM     47  HD  NAG B   3      13.679  16.808   8.9480  0.00  0.00     0.000 HD
ATOM     47   C  NAG B   3      12.899  15.882   7.2460  0.00  0.00     0.000 C
ATOM     48   C  NAG B   3      12.399  14.491   7.5010  0.00  0.00     0.000 C
ATOM     49   O  NAG B   3      12.588  16.508   6.2350  0.00  0.00     0.000 OA
ENDBRANCH 35 47
BRANCH 34 50
ATOM     50  O4  BDP B   4      16.245  16.682   7.8550  0.00  0.00     0.000 O
BRANCH 50 54
ATOM     51  C1  BDP B   4      18.922  14.220   6.0310  0.00  0.00     0.000 C
ATOM     52  C2  BDP B   4      19.538  15.199   7.0250  0.00  0.00     0.000 C
ATOM     53  C3  BDP B   4      18.446  15.765   7.8800  0.00  0.00     0.000 C
ATOM     54  C4  BDP B   4      17.347  16.396   6.9770  0.00  0.00     0.000 C
ATOM     55  C5  BDP B   4      16.897  15.455   5.8680  0.00  0.00     0.000 C
ATOM     56  O5  BDP B   4      18.025  14.916   5.1840  0.00  0.00     0.000 O
ATOM     57   O  BDP B   4      20.479  14.538   7.8440  0.00  0.00     0.000 O
ATOM     59  HD  BDP B   4      21.249  14.773   7.5260  0.00  0.00     0.000 HD
ATOM     59   O  BDP B   4      19.035  16.820   8.6680  0.00  0.00     0.000 O
ATOM     61  HD  BDP B   4      19.805  17.056   8.3500  0.00  0.00     0.000 HD
BRANCH 55 61
ATOM     61   C  BDP B   4      16.035  16.221   4.8810  0.00  0.00     0.000 C
ATOM     62   O  BDP B   4      16.350  17.411   4.6200  0.00  0.00     0.000 OA
ATOM     63   O  BDP B   4      15.040  15.626   4.3650  0.00  0.00     0.000 OA
ENDBRANCH 55 61
BRANCH 51 64
ATOM     64  O3  NAG B   5      20.003  13.647   5.2700  0.00  0.00     0.000 O
BRANCH 64 67
ATOM     65  C1  NAG B   5      19.668  10.189   4.0370  0.00  0.00     0.000 C
ATOM     66  C2  NAG B   5      19.890  11.322   5.0230  0.00  0.00     0.000 C
ATOM     67  C3  NAG B   5      19.563  12.656   4.3630  0.00  0.00     0.000 C
ATOM     68  C4  NAG B   5      20.314  12.811   3.0330  0.00  0.00     0.000 C
ATOM     69  C5  NAG B   5      20.107  11.589   2.1530  0.00  0.00     0.000 C
ATOM     70  O5  NAG B   5      20.446  10.399   2.8800  0.00  0.00     0.000 O
ATOM     71   O  NAG B   5      19.862  13.985   2.3930  0.00  0.00     0.000 O
ATOM     73  HD  NAG B   5      20.708  14.077   2.2300  0.00  0.00     0.000 HD
ATOM     73   C  NAG B   5      20.924  11.599   0.8540  0.00  0.00     0.000 C
ATOM     74   O  NAG B   5      22.332  11.562   1.1680  0.00  0.00     0.000 O
ATOM     76  HD  NAG B   5      23.177  11.654   1.0040  0.00  0.00     0.000 HD
BRANCH 66 78
ATOM     76   N  NAG B   5      19.109  10.833   6.1760  0.00  0.00     0.000 N
ATOM     78  HD  NAG B   5      19.896  11.165   6.0340  0.00  0.00     0.000 HD
ATOM     78   C  NAG B   5      19.432  10.986   7.4700  0.00  0.00     0.000 C
ATOM     79   C  NAG B   5      18.422  10.392   8.4140  0.00  0.00     0.000 C
ATOM     80   O  NAG B   5      20.502  11.573   7.8630  0.00  0.00     0.000 OA
ENDBRANCH 66 78
BRANCH 65 81
ATOM     81  O4  BDP B   6      20.019   8.936   4.6390  0.00  0.00     0.000 O
BRANCH 81 85
ATOM     82  C1  BDP B   6      19.577   4.732   3.9360  0.00  0.00     0.000 C
ATOM     83  C2  BDP B   6      20.703   5.455   3.2030  0.00  0.00     0.000 C
ATOM     84  C3  BDP B   6      21.033   6.819   3.8160  0.00  0.00     0.000 C
ATOM     85  C4  BDP B   6      19.784   7.686   3.9860  0.00  0.00     0.000 C
ATOM     86  C5  BDP B   6      18.709   6.837   4.7050  0.00  0.00     0.000 C
ATOM     87  O5  BDP B   6      18.442   5.583   4.0000  0.00  0.00     0.000 O
ATOM     88   O  BDP B   6      21.837   4.598   3.3090  0.00  0.00     0.000 O
ATOM     90  HD  BDP B   6      22.690   4.635   3.4590  0.00  0.00     0.000 HD
ATOM     90   O  BDP B   6      22.012   7.482   3.0120  0.00  0.00     0.000 O
ATOM     92  HD  BDP B   6      22.864   7.518   3.1610  0.00  0.00     0.000 HD
BRANCH 86 92
ATOM     92   C  BDP B   6      17.377   7.547   4.6940  0.00  0.00     0.000 C
ATOM     93   O  BDP B   6      17.120   8.407   5.5890  0.00  0.00     0.000 OA
ATOM     94   O  BDP B   6      16.569   7.262   3.7560  0.00  0.00     0.000 OA
ENDBRANCH 86 92
BRANCH 82 95
ATOM     95  O3  NAG B   7      19.214   3.565   3.1720  0.00  0.00     0.000 O
BRANCH 95 98
ATOM     96  C1  NAG B   7      17.155   0.674   4.0330  0.00  0.00     0.000 C
ATOM     97  C2  NAG B   7      18.426   1.407   3.6230  0.00  0.00     0.000 C
ATOM     98  C3  NAG B   7      18.010   2.871   3.4940  0.00  0.00     0.000 C
ATOM     99  C4  NAG B   7      16.919   3.009   2.4350  0.00  0.00     0.000 C
ATOM    100  C5  NAG B   7      15.746   2.073   2.7330  0.00  0.00     0.000 C
ATOM    101  O5  NAG B   7      16.245   0.759   2.9300  0.00  0.00     0.000 O
BRANCH 97 104
ATOM    102   N  NAG B   7      19.503   1.313   4.6180  0.00  0.00     0.000 N
ATOM    104  HD  NAG B   7      20.060   1.505   5.2520  0.00  0.00     0.000 HD
ATOM    104   O  NAG B   7      21.627   1.076   5.3680  0.00  0.00     0.000 OA
ATOM    105   C  NAG B   7      20.813   1.067   4.4240  0.00  0.00     0.000 C
ATOM    106   C  NAG B   7      21.301   0.790   3.0430  0.00  0.00     0.000 C
ENDBRANCH 97 104
ATOM    107   O  NAG B   7      13.572   1.494   2.0700  0.00  0.00     0.000 O
ATOM    109  HD  NAG B   7      14.098   1.611   2.7480  0.00  0.00     0.000 HD
ATOM    109   O  NAG B   7      13.572   1.494   2.0700  0.00  0.00     0.000 O
ATOM    111  HD  NAG B   7      14.098   1.611   2.7480  0.00  0.00     0.000 HD
ENDBRANCH 95 98
ENDBRANCH 82 95
ENDBRANCH 81 85
ENDBRANCH 65 81
ENDBRANCH 64 67
ENDBRANCH 51 64
ENDBRANCH 50 54
ENDBRANCH 34 50
ENDBRANCH 33 36
ENDBRANCH 20 33
ENDBRANCH 19 23
ENDBRANCH 1 19
TORSDOF 19
ENDMDL
MODEL 3
REMARK VINA RESULT:      -6.7      7.427     17.112
ROOT
ATOM      1  C1  NAG B   1       7.741  21.298   5.9800  0.00  0.00     0.000 C
ATOM      2  C2  NAG B   1       6.240  21.491   5.7800  0.00  0.00     0.000 C
ATOM      3  C3  NAG B   1       5.879  21.633   4.3160  0.00  0.00     0.000 C
ATOM      4  C4  NAG B   1       6.691  22.821   3.8090  0.00  0.00     0.000 C
ATOM      5  C5  NAG B   1       8.186  22.494   3.9220  0.00  0.00     0.000 C
ATOM      6  O5  NAG B   1       8.564  22.254   5.2940  0.00  0.00     0.000 O
ATOM      7   O  NAG B   1       4.464  21.855   4.1210  0.00  0.00     0.000 O
ATOM      9  HD  NAG B   1       4.478  21.324   4.8050  0.00  0.00     0.000 HD
ATOM      9   O  NAG B   1       6.360  23.097   2.4580  0.00  0.00     0.000 O
ATOM     11  HD  NAG B   1       6.374  22.566   3.1420  0.00  0.00     0.000 HD
ATOM     11   C  NAG B   1       9.017  23.618   3.2920  0.00  0.00     0.000 C
ATOM     12   O  NAG B   1      10.299  23.722   3.9070  0.00  0.00     0.000 O
ATOM     14  HD  NAG B   1      10.313  23.190   4.5910  0.00  0.00     0.000 HD
ENDROOT
BRANCH 2 16
ATOM     14   N  NAG B   1       5.490  21.559   7.0470  0.00  0.00     0.000 N
ATOM     16  HD  NAG B   1       4.705  21.722   7.3750  0.00  0.00     0.000 HD
ATOM     16   C  NAG B   1       4.686  20.573   7.4790  0.00  0.00     0.000 C
ATOM     17   C  NAG B   1       4.498  19.335   6.6420  0.00  0.00     0.000 C
ATOM     18   O  NAG B   1       4.114  20.645   8.5670  0.00  0.00     0.000 OA
ENDBRANCH 2 16
BRANCH 1 19
ATOM     19  O4  BDP B   2       7.918  21.552   7.3670  0.00  0.00     0.000 O
BRANCH 19 23
ATOM     20  C1  BDP B   2      11.463  19.499   7.7640  0.00  0.00     0.000 C
ATOM     21  C2  BDP B   2      10.195  18.675   7.8490  0.00  0.00     0.000 C
ATOM     22  C3  BDP B   2       9.013  19.428   7.2830  0.00  0.00     0.000 C
ATOM     23  C4  BDP B   2       8.927  20.784   7.9790  0.00  0.00     0.000 C
ATOM     24  C5  BDP B   2      10.243  21.518   7.8170  0.00  0.00     0.000 C
ATOM     25  O5  BDP B   2      11.285  20.757   8.3980  0.00  0.00     0.000 O
ATOM     26   O  BDP B   2      10.357  17.455   7.1580  0.00  0.00     0.000 O
ATOM     28  HD  BDP B   2      11.176  17.735   7.1770  0.00  0.00     0.000 HD
ATOM     28   O  BDP B   2       7.821  18.649   7.4700  0.00  0.00     0.000 O
ATOM     30  HD  BDP B   2       8.640  18.929   7.4890  0.00  0.00     0.000 HD
BRANCH 24 30
ATOM     30   C  BDP B   2      10.231  22.847   8.4840  0.00  0.00     0.000 C
ATOM     31   O  BDP B   2       9.992  22.870   9.7130  0.00  0.00     0.000 OA
ATOM     32   O  BDP B   2      10.452  23.874   7.7810  0.00  0.00     0.000 OA
ENDBRANCH 24 30
BRANCH 20 33
ATOM     33  O3  NAG B   3      12.407  18.746   8.4870  0.00  0.00     0.000 O
BRANCH 33 36
ATOM     34  C1  NAG B   3      15.947  17.914   7.5270  0.00  0.00     0.000 C
ATOM     35  C2  NAG B   3      14.469  17.691   7.7830  0.00  0.00     0.000 C
ATOM     36  C3  NAG B   3      13.742  19.017   8.0550  0.00  0.00     0.000 C
ATOM     37  C4  NAG B   3      14.475  19.777   9.1580  0.00  0.00     0.000 C
ATOM     38  C5  NAG B   3      15.964  19.868   8.8390  0.00  0.00     0.000 C
ATOM     39  O5  NAG B   3      16.500  18.568   8.6600  0.00  0.00     0.000 O
ATOM     40   O  NAG B   3      13.932  21.101   9.2850  0.00  0.00     0.000 O
ATOM     42  HD  NAG B   3      14.763  21.318   9.1790  0.00  0.00     0.000 HD
ATOM     42   C  NAG B   3      16.796  20.500   9.9520  0.00  0.00     0.000 C
ATOM     43   O  NAG B   3      16.770  19.654  11.1090  0.00  0.00     0.000 O
ATOM     45  HD  NAG B   3      17.602  19.871  11.0020  0.00  0.00     0.000 HD
BRANCH 35 47
ATOM     45   N  NAG B   3      13.903  16.348   7.7610  0.00  0.00     0.000 N
ATOM     47  HD  NAG B   3      13.950  16.677   8.5610  0.00  0.00     0.000 HD
ATOM     47   C  NAG B   3      13.094  15.926   6.8100  0.00  0.00     0.000 C
ATOM     48   C  NAG B   3      12.585  14.522   6.9500  0.00  0.00     0.000 C
ATOM     49   O  NAG B   3      12.754  16.649   5.8760  0.00  0.00     0.000 OA
ENDBRANCH 35 47
BRANCH 34 50
ATOM     50  O4  BDP B   4      16.467  16.606   7.4120  0.00  0.00     0.000 O
BRANCH 50 54
ATOM     51  C1  BDP B   4      19.059  14.249   5.3430  0.00  0.00     0.000 C
ATOM     52  C2  BDP B   4      19.715  15.140   6.3910  0.00  0.00     0.000 C
ATOM     53  C3  BDP B   4      18.653  15.656   7.3130  0.00  0.00     0.000 C
ATOM     54  C4  BDP B   4      17.544  16.371   6.4890  0.00  0.00     0.000 C
ATOM     55  C5  BDP B   4      17.052  15.523   5.3230  0.00  0.00     0.000 C
ATOM     56  O5  BDP B   4      18.155  15.020   4.5730  0.00  0.00     0.000 O
ATOM     57   O  BDP B   4      20.663  14.404   7.1350  0.00  0.00     0.000 O
ATOM     59  HD  BDP B   4      21.429  14.651   6.8170  0.00  0.00     0.000 HD
ATOM     59   O  BDP B   4      19.278  16.640   8.1640  0.00  0.00     0.000 O
ATOM     61  HD  BDP B   4      20.044  16.887   7.8450  0.00  0.00     0.000 HD
BRANCH 55 61
ATOM     61   C  BDP B   4      16.180  16.374   4.4180  0.00  0.00     0.000 C
ATOM     62   O  BDP B   4      16.529  17.566   4.2110  0.00  0.00     0.000 OA
ATOM     63   O  BDP B   4      15.143  15.845   3.9120  0.00  0.00     0.000 OA
ENDBRANCH 55 61
BRANCH 51 64
ATOM     64  O3  NAG B   5      20.111  13.718   4.5140  0.00  0.00     0.000 O
BRANCH 64 67
ATOM     65  C1  NAG B   5      19.811  10.316   3.1250  0.00  0.00     0.000 C
ATOM     66  C2  NAG B   5      20.063  11.406   4.1520  0.00  0.00     0.000 C
ATOM     67  C3  NAG B   5      19.643  12.758   3.5880  0.00  0.00     0.000 C
ATOM     68  C4  NAG B   5      20.291  13.009   2.2200  0.00  0.00     0.000 C
ATOM     69  C5  NAG B   5      20.064  11.826   1.2920  0.00  0.00     0.000 C
ATOM     70  O5  NAG B   5      20.496  10.615   1.9300  0.00  0.00     0.000 O
ATOM     71   O  NAG B   5      19.753  14.195   1.6760  0.00  0.00     0.000 O
ATOM     73  HD  NAG B   5      20.581  14.328   1.4590  0.00  0.00     0.000 HD
ATOM     73   C  NAG B   5      20.785  11.934  -0.0590  0.00  0.00     0.000 C
ATOM     74   O  NAG B   5      22.212  11.936   0.1540  0.00  0.00     0.000 O
ATOM     76  HD  NAG B   5      23.040  12.068  -0.0630  0.00  0.00     0.000 HD
BRANCH 66 78
ATOM     76   N  NAG B   5      20.547  11.042   5.4980  0.00  0.00     0.000 N
ATOM     78  HD  NAG B   5      19.820  11.354   5.1450  0.00  0.00     0.000 HD
ATOM     78   C  NAG B   5      19.794  10.929   6.6030  0.00  0.00     0.000 C
ATOM     79   C  NAG B   5      20.576  10.522   7.8230  0.00  0.00     0.000 C
ATOM     80   O  NAG B   5      18.531  11.155   6.6200  0.00  0.00     0.000 OA
ENDBRANCH 66 78
BRANCH 65 81
ATOM     81  O4  BDP B   6      20.248   9.049   3.6330  0.00  0.00     0.000 O
BRANCH 81 85
ATOM     82  C1  BDP B   6      19.213   4.894   3.4730  0.00  0.00     0.000 C
ATOM     83  C2  BDP B   6      19.533   5.593   2.1540  0.00  0.00     0.000 C
ATOM     84  C3  BDP B   6      20.271   6.920   2.3480  0.00  0.00     0.000 C
ATOM     85  C4  BDP B   6      19.554   7.834   3.3440  0.00  0.00     0.000 C
ATOM     86  C5  BDP B   6      19.255   7.007   4.6170  0.00  0.00     0.000 C
ATOM     87  O5  BDP B   6      18.501   5.790   4.3140  0.00  0.00     0.000 O
ATOM     88   O  BDP B   6      20.363   4.686   1.4340  0.00  0.00     0.000 O
ATOM     90  HD  BDP B   6      21.073   4.681   0.9390  0.00  0.00     0.000 HD
ATOM     90   O  BDP B   6      20.433   7.568   1.0830  0.00  0.00     0.000 O
ATOM     92  HD  BDP B   6      21.143   7.563   0.5880  0.00  0.00     0.000 HD
BRANCH 86 92
ATOM     92   C  BDP B   6      18.343   7.774   5.5440  0.00  0.00     0.000 C
ATOM     93   O  BDP B   6      18.549   7.735   6.7950  0.00  0.00     0.000 OA
ATOM     94   O  BDP B   6      17.408   8.452   5.0170  0.00  0.00     0.000 OA
ENDBRANCH 86 92
BRANCH 82 95
ATOM     95  O3  NAG B   7      18.355   3.771   3.1950  0.00  0.00     0.000 O
BRANCH 95 98
ATOM     96  C1  NAG B   7      18.357   0.190   3.9140  0.00  0.00     0.000 C
ATOM     97  C2  NAG B   7      18.189   1.439   3.0590  0.00  0.00     0.000 C
ATOM     98  C3  NAG B   7      18.450   2.604   4.0110  0.00  0.00     0.000 C
ATOM     99  C4  NAG B   7      17.443   2.572   5.1580  0.00  0.00     0.000 C
ATOM    100  C5  NAG B   7      17.451   1.211   5.8540  0.00  0.00     0.000 C
ATOM    101  O5  NAG B   7      17.297   0.193   4.8770  0.00  0.00     0.000 O
BRANCH 97 104
ATOM    102   N  NAG B   7      19.156   1.619   1.9680  0.00  0.00     0.000 N
ATOM    104  HD  NAG B   7      19.783   1.942   1.4640  0.00  0.00     0.000 HD
ATOM    104   O  NAG B   7      19.853   1.947  -0.1630  0.00  0.00     0.000 OA
ATOM    105   C  NAG B   7      18.927   1.736   0.6460  0.00  0.00     0.000 C
ATOM    106   C  NAG B   7      17.529   1.626   0.1400  0.00  0.00     0.000 C
ENDBRANCH 97 104
ATOM    107   O  NAG B   7      16.606   0.021   7.6920  0.00  0.00     0.000 O
ATOM    109  HD  NAG B   7      17.303   0.156   7.1950  0.00  0.00     0.000 HD
ATOM    109   O  NAG B   7      16.606   0.021   7.6920  0.00  0.00     0.000 O
ATOM    111  HD  NAG B   7      17.303   0.156   7.1950  0.00  0.00     0.000 HD
ENDBRANCH 95 98
ENDBRANCH 82 95
ENDBRANCH 81 85
ENDBRANCH 65 81
ENDBRANCH 64 67
ENDBRANCH 51 64
ENDBRANCH 50 54
ENDBRANCH 34 50
ENDBRANCH 33 36
ENDBRANCH 20 33
ENDBRANCH 19 23
ENDBRANCH 1 19
TORSDOF 19
ENDMDL
MODEL 4
REMARK VINA RESULT:      -6.6      2.062      3.282
ROOT
ATOM      1  C1  NAG B   1       9.513   3.546  18.2380  0.00  0.00     0.000 C
ATOM      2  C2  NAG B   1       8.464   2.629  18.8620  0.00  0.00     0.000 C
ATOM      3  C3  NAG B   1       7.507   3.393  19.7550  0.00  0.00     0.000 C
ATOM      4  C4  NAG B   1       8.382   4.073  20.8030  0.00  0.00     0.000 C
ATOM      5  C5  NAG B   1       9.315   5.073  20.1080  0.00  0.00     0.000 C
ATOM      6  O5  NAG B   1      10.187   4.405  19.1700  0.00  0.00     0.000 O
ATOM      7   O  NAG B   1       6.535   2.524  20.3800  0.00  0.00     0.000 O
ATOM      9  HD  NAG B   1       6.646   2.153  19.6060  0.00  0.00     0.000 HD
ATOM      9   O  NAG B   1       7.572   4.750  21.7500  0.00  0.00     0.000 O
ATOM     11  HD  NAG B   1       7.684   4.378  20.9760  0.00  0.00     0.000 HD
ATOM     11   C  NAG B   1      10.106   5.866  21.1550  0.00  0.00     0.000 C
ATOM     12   O  NAG B   1      11.371   6.283  20.6410  0.00  0.00     0.000 O
ATOM     14  HD  NAG B   1      11.482   5.911  19.8670  0.00  0.00     0.000 HD
ENDROOT
BRANCH 2 16
ATOM     14   N  NAG B   1       7.624   1.848  17.9370  0.00  0.00     0.000 N
ATOM     16  HD  NAG B   1       7.593   1.538  17.1290  0.00  0.00     0.000 HD
ATOM     16   C  NAG B   1       7.840   0.548  17.6680  0.00  0.00     0.000 C
ATOM     17   C  NAG B   1       9.002  -0.167  18.3040  0.00  0.00     0.000 C
ATOM     18   O  NAG B   1       7.088  -0.084  16.9280  0.00  0.00     0.000 OA
ENDBRANCH 2 16
BRANCH 1 19
ATOM     19  O4  BDP B   2      10.496   2.636  17.7630  0.00  0.00     0.000 O
BRANCH 19 23
ATOM     20  C1  BDP B   2      11.818   5.128  14.7650  0.00  0.00     0.000 C
ATOM     21  C2  BDP B   2      10.779   4.097  14.3750  0.00  0.00     0.000 C
ATOM     22  C3  BDP B   2      10.074   3.542  15.5910  0.00  0.00     0.000 C
ATOM     23  C4  BDP B   2      11.128   3.029  16.5680  0.00  0.00     0.000 C
ATOM     24  C5  BDP B   2      12.100   4.146  16.8930  0.00  0.00     0.000 C
ATOM     25  O5  BDP B   2      12.733   4.584  15.7060  0.00  0.00     0.000 O
ATOM     26   O  BDP B   2       9.833   4.665  13.4940  0.00  0.00     0.000 O
ATOM     28  HD  BDP B   2      10.438   5.285  13.4960  0.00  0.00     0.000 HD
ATOM     28   O  BDP B   2       9.169   2.505  15.1810  0.00  0.00     0.000 O
ATOM     30  HD  BDP B   2       9.774   3.125  15.1830  0.00  0.00     0.000 HD
BRANCH 24 30
ATOM     30   C  BDP B   2      13.164   3.709  17.8350  0.00  0.00     0.000 C
ATOM     31   O  BDP B   2      13.334   4.397  18.8690  0.00  0.00     0.000 OA
ATOM     32   O  BDP B   2      13.841   2.682  17.5440  0.00  0.00     0.000 OA
ENDBRANCH 24 30
BRANCH 20 33
ATOM     33  O3  NAG B   3      12.497   5.400  13.5640  0.00  0.00     0.000 O
BRANCH 33 36
ATOM     34  C1  NAG B   3      14.130   8.748  13.0380  0.00  0.00     0.000 C
ATOM     35  C2  NAG B   3      13.023   7.711  13.0680  0.00  0.00     0.000 C
ATOM     36  C3  NAG B   3      13.494   6.410  13.7360  0.00  0.00     0.000 C
ATOM     37  C4  NAG B   3      14.789   5.943  13.0760  0.00  0.00     0.000 C
ATOM     38  C5  NAG B   3      15.798   7.087  13.0230  0.00  0.00     0.000 C
ATOM     39  O5  NAG B   3      15.237   8.195  12.3400  0.00  0.00     0.000 O
ATOM     40   O  NAG B   3      15.349   4.846  13.8150  0.00  0.00     0.000 O
ATOM     42  HD  NAG B   3      16.044   5.363  13.8170  0.00  0.00     0.000 HD
ATOM     42   C  NAG B   3      17.077   6.747  12.2620  0.00  0.00     0.000 C
ATOM     43   O  NAG B   3      16.769   6.531  10.8790  0.00  0.00     0.000 O
ATOM     45  HD  NAG B   3      17.463   7.049  10.8810  0.00  0.00     0.000 HD
BRANCH 35 47
ATOM     45   N  NAG B   3      11.688   7.871  12.5070  0.00  0.00     0.000 N
ATOM     47  HD  NAG B   3      12.135   7.232  12.1280  0.00  0.00     0.000 HD
ATOM     47   C  NAG B   3      10.633   8.167  13.2390  0.00  0.00     0.000 C
ATOM     48   C  NAG B   3       9.329   8.275  12.5050  0.00  0.00     0.000 C
ATOM     49   O  NAG B   3      10.707   8.320  14.4560  0.00  0.00     0.000 OA
ENDBRANCH 35 47
BRANCH 34 50
ATOM     50  O4  BDP B   4      13.568   9.814  12.3030  0.00  0.00     0.000 O
BRANCH 50 54
ATOM     51  C1  BDP B   4      13.606  13.847  11.7640  0.00  0.00     0.000 C
ATOM     52  C2  BDP B   4      14.800  13.118  11.1590  0.00  0.00     0.000 C
ATOM     53  C3  BDP B   4      14.485  11.655  11.0940  0.00  0.00     0.000 C
ATOM     54  C4  BDP B   4      14.086  11.140  12.5070  0.00  0.00     0.000 C
ATOM     55  C5  BDP B   4      13.027  12.015  13.1640  0.00  0.00     0.000 C
ATOM     56  O5  BDP B   4      13.399  13.389  13.0870  0.00  0.00     0.000 O
ATOM     57   O  BDP B   4      15.060  13.598   9.8570  0.00  0.00     0.000 O
ATOM     59  HD  BDP B   4      15.748  14.116   9.9490  0.00  0.00     0.000 HD
ATOM     59   O  BDP B   4      15.699  10.981  10.7020  0.00  0.00     0.000 O
ATOM     61  HD  BDP B   4      16.388  11.499  10.7940  0.00  0.00     0.000 HD
BRANCH 55 61
ATOM     61   C  BDP B   4      12.884  11.618  14.6220  0.00  0.00     0.000 C
ATOM     62   O  BDP B   4      11.734  11.327  15.0450  0.00  0.00     0.000 OA
ATOM     63   O  BDP B   4      13.927  11.595  15.3440  0.00  0.00     0.000 OA
ENDBRANCH 55 61
BRANCH 51 64
ATOM     64  O3  NAG B   5      13.914  15.254  11.7520  0.00  0.00     0.000 O
BRANCH 64 67
ATOM     65  C1  NAG B   5      11.955  18.078  10.4180  0.00  0.00     0.000 C
ATOM     66  C2  NAG B   5      13.035  17.012  10.4820  0.00  0.00     0.000 C
ATOM     67  C3  NAG B   5      12.760  16.063  11.6410  0.00  0.00     0.000 C
ATOM     68  C4  NAG B   5      12.550  16.838  12.9490  0.00  0.00     0.000 C
ATOM     69  C5  NAG B   5      11.521  17.941  12.7620  0.00  0.00     0.000 C
ATOM     70  O5  NAG B   5      11.886  18.766  11.6470  0.00  0.00     0.000 O
ATOM     71   O  NAG B   5      12.150  15.929  13.9530  0.00  0.00     0.000 O
ATOM     73  HD  NAG B   5      12.704  16.396  14.4270  0.00  0.00     0.000 HD
ATOM     73   C  NAG B   5      11.339  18.850  13.9860  0.00  0.00     0.000 C
ATOM     74   O  NAG B   5      12.566  19.565  14.2430  0.00  0.00     0.000 O
ATOM     76  HD  NAG B   5      13.120  20.032  14.7180  0.00  0.00     0.000 HD
BRANCH 66 78
ATOM     76   N  NAG B   5      13.016  16.439   9.1220  0.00  0.00     0.000 N
ATOM     78  HD  NAG B   5      13.597  16.800   9.6530  0.00  0.00     0.000 HD
ATOM     78   C  NAG B   5      14.092  16.148   8.3740  0.00  0.00     0.000 C
ATOM     79   C  NAG B   5      13.748  15.555   7.0340  0.00  0.00     0.000 C
ATOM     80   O  NAG B   5      15.296  16.363   8.7590  0.00  0.00     0.000 OA
ENDBRANCH 66 78
BRANCH 65 81
ATOM     81  O4  BDP B   6      12.234  19.001   9.3580  0.00  0.00     0.000 O
BRANCH 81 85
ATOM     82  C1  BDP B   6      10.216  21.943   6.9840  0.00  0.00     0.000 C
ATOM     83  C2  BDP B   6      10.772  22.387   8.3340  0.00  0.00     0.000 C
ATOM     84  C3  BDP B   6      11.803  21.409   8.9030  0.00  0.00     0.000 C
ATOM     85  C4  BDP B   6      11.279  19.971   8.9220  0.00  0.00     0.000 C
ATOM     86  C5  BDP B   6      10.714  19.653   7.5170  0.00  0.00     0.000 C
ATOM     87  O5  BDP B   6       9.701  20.625   7.1040  0.00  0.00     0.000 O
ATOM     88   O  BDP B   6      11.392  23.647   8.0950  0.00  0.00     0.000 O
ATOM     90  HD  BDP B   6      12.106  24.090   8.3040  0.00  0.00     0.000 HD
ATOM     90   O  BDP B   6      12.191  21.829  10.2140  0.00  0.00     0.000 O
ATOM     92  HD  BDP B   6      12.905  22.273  10.4240  0.00  0.00     0.000 HD
BRANCH 86 92
ATOM     92   C  BDP B   6       9.968  18.340   7.5310  0.00  0.00     0.000 C
ATOM     93   O  BDP B   6      10.587  17.268   7.2560  0.00  0.00     0.000 OA
ATOM     94   O  BDP B   6       8.738  18.368   7.8470  0.00  0.00     0.000 OA
ENDBRANCH 86 92
BRANCH 82 95
ATOM     95  O3  NAG B   7       9.123  22.815   6.6350  0.00  0.00     0.000 O
BRANCH 95 98
ATOM     96  C1  NAG B   7       7.841  23.477   3.2800  0.00  0.00     0.000 C
ATOM     97  C2  NAG B   7       8.583  23.785   4.5730  0.00  0.00     0.000 C
ATOM     98  C3  NAG B   7       8.375  22.552   5.4490  0.00  0.00     0.000 C
ATOM     99  C4  NAG B   7       6.884  22.338   5.6980  0.00  0.00     0.000 C
ATOM    100  C5  NAG B   7       6.113  22.277   4.3780  0.00  0.00     0.000 C
ATOM    101  O5  NAG B   7       6.446  23.416   3.5990  0.00  0.00     0.000 O
BRANCH 97 104
ATOM    102   N  NAG B   7      10.036  23.954   4.4320  0.00  0.00     0.000 N
ATOM    104  HD  NAG B   7      10.891  23.829   4.4870  0.00  0.00     0.000 HD
ATOM    104   O  NAG B   7      12.051  24.950   4.7080  0.00  0.00     0.000 OA
ATOM    105   C  NAG B   7      10.813  24.973   4.8470  0.00  0.00     0.000 C
ATOM    106   C  NAG B   7      10.174  26.150   5.5020  0.00  0.00     0.000 C
ENDBRANCH 97 104
ATOM    107   O  NAG B   7       4.009  21.848   3.4350  0.00  0.00     0.000 O
ATOM    109  HD  NAG B   7       4.863  21.743   3.3380  0.00  0.00     0.000 HD
ATOM    109   O  NAG B   7       4.009  21.848   3.4350  0.00  0.00     0.000 O
ATOM    111  HD  NAG B   7       4.863  21.743   3.3380  0.00  0.00     0.000 HD
ENDBRANCH 95 98
ENDBRANCH 82 95
ENDBRANCH 81 85
ENDBRANCH 65 81
ENDBRANCH 64 67
ENDBRANCH 51 64
ENDBRANCH 50 54
ENDBRANCH 34 50
ENDBRANCH 33 36
ENDBRANCH 20 33
ENDBRANCH 19 23
ENDBRANCH 1 19
TORSDOF 19
ENDMDL
MODEL 5
REMARK VINA RESULT:      -6.6      2.548     17.984
ROOT
ATOM      1  C1  NAG B   1       6.905  25.513   2.8260  0.00  0.00     0.000 C
ATOM      2  C2  NAG B   1       5.389  25.672   2.9190  0.00  0.00     0.000 C
ATOM      3  C3  NAG B   1       4.963  27.118   2.7770  0.00  0.00     0.000 C
ATOM      4  C4  NAG B   1       5.695  27.870   3.8840  0.00  0.00     0.000 C
ATOM      5  C5  NAG B   1       7.207  27.773   3.6430  0.00  0.00     0.000 C
ATOM      6  O5  NAG B   1       7.652  26.400   3.6730  0.00  0.00     0.000 O
ATOM      7   O  NAG B   1       3.532  27.281   2.9030  0.00  0.00     0.000 O
ATOM      9  HD  NAG B   1       3.599  26.514   2.5060  0.00  0.00     0.000 HD
ATOM      9   O  NAG B   1       5.298  29.231   3.8960  0.00  0.00     0.000 O
ATOM     11  HD  NAG B   1       5.364  28.464   3.4990  0.00  0.00     0.000 HD
ATOM     11   C  NAG B   1       7.957  28.635   4.6660  0.00  0.00     0.000 C
ATOM     12   O  NAG B   1       9.257  28.111   4.9310  0.00  0.00     0.000 O
ATOM     14  HD  NAG B   1       9.324  27.344   4.5350  0.00  0.00     0.000 HD
ENDROOT
BRANCH 2 16
ATOM     14   N  NAG B   1       4.736  24.800   1.9270  0.00  0.00     0.000 N
ATOM     16  HD  NAG B   1       4.803  24.031   1.5340  0.00  0.00     0.000 HD
ATOM     16   C  NAG B   1       3.951  23.762   2.2640  0.00  0.00     0.000 C
ATOM     17   C  NAG B   1       3.730  23.428   3.7160  0.00  0.00     0.000 C
ATOM     18   O  NAG B   1       3.382  23.086   1.4070  0.00  0.00     0.000 OA
ENDBRANCH 2 16
BRANCH 1 19
ATOM     19  O4  BDP B   2       7.125  24.205   3.3350  0.00  0.00     0.000 O
BRANCH 19 23
ATOM     20  C1  BDP B   2       9.395  22.552   6.3450  0.00  0.00     0.000 C
ATOM     21  C2  BDP B   2       8.202  23.379   6.7780  0.00  0.00     0.000 C
ATOM     22  C3  BDP B   2       7.228  23.574   5.6390  0.00  0.00     0.000 C
ATOM     23  C4  BDP B   2       7.988  24.148   4.4460  0.00  0.00     0.000 C
ATOM     24  C5  BDP B   2       9.146  23.233   4.0990  0.00  0.00     0.000 C
ATOM     25  O5  BDP B   2      10.019  23.132   5.2080  0.00  0.00     0.000 O
ATOM     26   O  BDP B   2       7.547  22.761   7.8650  0.00  0.00     0.000 O
ATOM     28  HD  BDP B   2       8.276  22.295   7.8350  0.00  0.00     0.000 HD
ATOM     28   O  BDP B   2       6.165  24.439   6.0680  0.00  0.00     0.000 O
ATOM     30  HD  BDP B   2       6.894  23.973   6.0390  0.00  0.00     0.000 HD
BRANCH 24 30
ATOM     30   C  BDP B   2       9.938  23.741   2.9480  0.00  0.00     0.000 C
ATOM     31   O  BDP B   2      10.575  24.807   3.1150  0.00  0.00     0.000 OA
ATOM     32   O  BDP B   2       9.921  23.083   1.8690  0.00  0.00     0.000 OA
ENDBRANCH 24 30
BRANCH 20 33
ATOM     33  O3  NAG B   3      10.274  22.623   7.4410  0.00  0.00     0.000 O
BRANCH 33 36
ATOM     34  C1  NAG B   3      12.612  19.795   8.2720  0.00  0.00     0.000 C
ATOM     35  C2  NAG B   3      11.332  20.609   8.2720  0.00  0.00     0.000 C
ATOM     36  C3  NAG B   3      11.407  21.769   7.2660  0.00  0.00     0.000 C
ATOM     37  C4  NAG B   3      12.679  22.575   7.5190  0.00  0.00     0.000 C
ATOM     38  C5  NAG B   3      13.890  21.648   7.5840  0.00  0.00     0.000 C
ATOM     39  O5  NAG B   3      13.691  20.663   8.5840  0.00  0.00     0.000 O
ATOM     40   O  NAG B   3      12.868  23.535   6.4680  0.00  0.00     0.000 O
ATOM     42  HD  NAG B   3      13.641  23.147   6.4210  0.00  0.00     0.000 HD
ATOM     42   C  NAG B   3      15.188  22.355   7.9640  0.00  0.00     0.000 C
ATOM     43   O  NAG B   3      15.092  22.847   9.3060  0.00  0.00     0.000 O
ATOM     45  HD  NAG B   3      15.864  22.458   9.2590  0.00  0.00     0.000 HD
BRANCH 35 47
ATOM     45   N  NAG B   3      10.149  20.443   9.1070  0.00  0.00     0.000 N
ATOM     47  HD  NAG B   3      10.500  21.232   9.1780  0.00  0.00     0.000 HD
ATOM     47   C  NAG B   3       9.090  19.760   8.7220  0.00  0.00     0.000 C
ATOM     48   C  NAG B   3       7.950  19.704   9.6950  0.00  0.00     0.000 C
ATOM     49   O  NAG B   3       9.027  19.223   7.6180  0.00  0.00     0.000 OA
ENDBRANCH 35 47
BRANCH 34 50
ATOM     50  O4  BDP B   4      12.413  18.862   9.3140  0.00  0.00     0.000 O
BRANCH 50 54
ATOM     51  C1  BDP B   4      13.187  15.038  10.4660  0.00  0.00     0.000 C
ATOM     52  C2  BDP B   4      14.254  16.048  10.8720  0.00  0.00     0.000 C
ATOM     53  C3  BDP B   4      13.687  17.427  10.7300  0.00  0.00     0.000 C
ATOM     54  C4  BDP B   4      13.151  17.629   9.2840  0.00  0.00     0.000 C
ATOM     55  C5  BDP B   4      12.242  16.491   8.8390  0.00  0.00     0.000 C
ATOM     56  O5  BDP B   4      12.854  15.232   9.1030  0.00  0.00     0.000 O
ATOM     57   O  BDP B   4      14.643  15.838  12.2130  0.00  0.00     0.000 O
ATOM     59  HD  BDP B   4      15.409  15.436  12.1570  0.00  0.00     0.000 HD
ATOM     59   O  BDP B   4      14.775  18.352  10.9340  0.00  0.00     0.000 O
ATOM     61  HD  BDP B   4      15.541  17.950  10.8790  0.00  0.00     0.000 HD
BRANCH 55 61
ATOM     61   C  BDP B   4      11.976  16.615   7.3500  0.00  0.00     0.000 C
ATOM     62   O  BDP B   4      12.966  16.617   6.5720  0.00  0.00     0.000 OA
ATOM     63   O  BDP B   4      10.772  16.707   6.9600  0.00  0.00     0.000 OA
ENDBRANCH 55 61
BRANCH 51 64
ATOM     64  O3  NAG B   5      13.741  13.724  10.6740  0.00  0.00     0.000 O
BRANCH 64 67
ATOM     65  C1  NAG B   5      12.093  10.778  12.1550  0.00  0.00     0.000 C
ATOM     66  C2  NAG B   5      12.959  12.023  12.0790  0.00  0.00     0.000 C
ATOM     67  C3  NAG B   5      12.749  12.719  10.7400  0.00  0.00     0.000 C
ATOM     68  C4  NAG B   5      12.936  11.739   9.5740  0.00  0.00     0.000 C
ATOM     69  C5  NAG B   5      12.101  10.486   9.7860  0.00  0.00     0.000 C
ATOM     70  O5  NAG B   5      12.384   9.922  11.0740  0.00  0.00     0.000 O
ATOM     71   O  NAG B   5      12.583  12.392   8.3740  0.00  0.00     0.000 O
ATOM     73  HD  NAG B   5      13.291  11.986   8.0860  0.00  0.00     0.000 HD
ATOM     73   C  NAG B   5      12.323   9.393   8.7310  0.00  0.00     0.000 C
ATOM     74   O  NAG B   5      13.683   8.917   8.8050  0.00  0.00     0.000 O
ATOM     76  HD  NAG B   5      14.392   8.511   8.5170  0.00  0.00     0.000 HD
BRANCH 66 78
ATOM     76   N  NAG B   5      12.582  12.730  13.3180  0.00  0.00     0.000 N
ATOM     78  HD  NAG B   5      13.312  12.472  12.9280  0.00  0.00     0.000 HD
ATOM     78   C  NAG B   5      13.420  13.379  14.1420  0.00  0.00     0.000 C
ATOM     79   C  NAG B   5      12.731  14.017  15.3170  0.00  0.00     0.000 C
ATOM     80   O  NAG B   5      14.687  13.442  13.9500  0.00  0.00     0.000 OA
ENDBRANCH 66 78
BRANCH 65 81
ATOM     81  O4  BDP B   6      12.322  10.094  13.3940  0.00  0.00     0.000 O
BRANCH 81 85
ATOM     82  C1  BDP B   6      10.545   7.060  15.8440  0.00  0.00     0.000 C
ATOM     83  C2  BDP B   6      11.340   6.605  14.6230  0.00  0.00     0.000 C
ATOM     84  C3  BDP B   6      12.254   7.700  14.0660  0.00  0.00     0.000 C
ATOM     85  C4  BDP B   6      11.498   9.009  13.8270  0.00  0.00     0.000 C
ATOM     86  C5  BDP B   6      10.708   9.344  15.1150  0.00  0.00     0.000 C
ATOM     87  O5  BDP B   6       9.832   8.244  15.5200  0.00  0.00     0.000 O
ATOM     88   O  BDP B   6      12.130   5.507  15.0720  0.00  0.00     0.000 O
ATOM     90  HD  BDP B   6      12.930   5.185  14.9940  0.00  0.00     0.000 HD
ATOM     90   O  BDP B   6      12.875   7.240  12.8640  0.00  0.00     0.000 O
ATOM     92  HD  BDP B   6      13.675   6.918  12.7860  0.00  0.00     0.000 HD
BRANCH 86 92
ATOM     92   C  BDP B   6       9.757  10.491  14.8700  0.00  0.00     0.000 C
ATOM     93   O  BDP B   6      10.099  11.667  15.1990  0.00  0.00     0.000 OA
ATOM     94   O  BDP B   6       8.647  10.222  14.3140  0.00  0.00     0.000 OA
ENDBRANCH 86 92
BRANCH 82 95
ATOM     95  O3  NAG B   7       9.582   6.037  16.1660  0.00  0.00     0.000 O
BRANCH 95 98
ATOM     96  C1  NAG B   7       8.714   3.786  18.9080  0.00  0.00     0.000 C
ATOM     97  C2  NAG B   7       8.831   4.234  17.4570  0.00  0.00     0.000 C
ATOM     98  C3  NAG B   7       9.413   5.644  17.5270  0.00  0.00     0.000 C
ATOM     99  C4  NAG B   7       8.477   6.553  18.3180  0.00  0.00     0.000 C
ATOM    100  C5  NAG B   7       8.171   5.958  19.6930  0.00  0.00     0.000 C
ATOM    101  O5  NAG B   7       7.728   4.620  19.5280  0.00  0.00     0.000 O
BRANCH 97 104
ATOM    102   N  NAG B   7       9.610   3.760  16.3040  0.00  0.00     0.000 N
ATOM    104  HD  NAG B   7       9.898   3.636  15.4970  0.00  0.00     0.000 HD
ATOM    104   O  NAG B   7      10.440   2.252  14.8320  0.00  0.00     0.000 OA
ATOM    105   C  NAG B   7       9.796   2.499  15.8710  0.00  0.00     0.000 C
ATOM    106   C  NAG B   7       9.203   1.372  16.6460  0.00  0.00     0.000 C
ENDBRANCH 97 104
ATOM    107   O  NAG B   7       7.129   6.388  21.7510  0.00  0.00     0.000 O
ATOM    109  HD  NAG B   7       7.816   6.028  21.3670  0.00  0.00     0.000 HD
ATOM    109   O  NAG B   7       7.129   6.388  21.7510  0.00  0.00     0.000 O
ATOM    111  HD  NAG B   7       7.816   6.028  21.3670  0.00  0.00     0.000 HD
ENDBRANCH 95 98
ENDBRANCH 82 95
ENDBRANCH 81 85
ENDBRANCH 65 81
ENDBRANCH 64 67
ENDBRANCH 51 64
ENDBRANCH 50 54
ENDBRANCH 34 50
ENDBRANCH 33 36
ENDBRANCH 20 33
ENDBRANCH 19 23
ENDBRANCH 1 19
TORSDOF 19
ENDMDL
MODEL 6
REMARK VINA RESULT:      -6.6      0.992      2.193
ROOT
ATOM      1  C1  NAG B   1       9.950   4.671  16.6800  0.00  0.00     0.000 C
ATOM      2  C2  NAG B   1       9.218   3.587  17.4670  0.00  0.00     0.000 C
ATOM      3  C3  NAG B   1       8.021   4.141  18.2110  0.00  0.00     0.000 C
ATOM      4  C4  NAG B   1       8.574   5.241  19.1130  0.00  0.00     0.000 C
ATOM      5  C5  NAG B   1       9.172   6.352  18.2410  0.00  0.00     0.000 C
ATOM      6  O5  NAG B   1      10.261   5.852  17.4360  0.00  0.00     0.000 O
ATOM      7   O  NAG B   1       7.346   3.127  18.9900  0.00  0.00     0.000 O
ATOM      9  HD  NAG B   1       7.613   2.683  18.2960  0.00  0.00     0.000 HD
ATOM      9   O  NAG B   1       7.540   5.771  19.9250  0.00  0.00     0.000 O
ATOM     11  HD  NAG B   1       7.807   5.327  19.2310  0.00  0.00     0.000 HD
ATOM     11   C  NAG B   1       9.610   7.529  19.1210  0.00  0.00     0.000 C
ATOM     12   O  NAG B   1      10.699   8.238  18.5330  0.00  0.00     0.000 O
ATOM     14  HD  NAG B   1      10.966   7.794  17.8390  0.00  0.00     0.000 HD
ENDROOT
BRANCH 2 16
ATOM     14   N  NAG B   1       8.835   2.476  16.5780  0.00  0.00     0.000 N
ATOM     16  HD  NAG B   1       9.091   2.033  15.8790  0.00  0.00     0.000 HD
ATOM     16   C  NAG B   1       9.360   1.242  16.6750  0.00  0.00     0.000 C
ATOM     17   C  NAG B   1      10.412   0.953  17.7140  0.00  0.00     0.000 C
ATOM     18   O  NAG B   1       8.979   0.327  15.9470  0.00  0.00     0.000 OA
ENDBRANCH 2 16
BRANCH 1 19
ATOM     19  O4  BDP B   2      11.197   4.063  16.3720  0.00  0.00     0.000 O
BRANCH 19 23
ATOM     20  C1  BDP B   2      12.325   6.512  13.2630  0.00  0.00     0.000 C
ATOM     21  C2  BDP B   2      11.238   5.501  12.9620  0.00  0.00     0.000 C
ATOM     22  C3  BDP B   2      10.621   4.966  14.2350  0.00  0.00     0.000 C
ATOM     23  C4  BDP B   2      11.739   4.437  15.1280  0.00  0.00     0.000 C
ATOM     24  C5  BDP B   2      12.756   5.536  15.3680  0.00  0.00     0.000 C
ATOM     25  O5  BDP B   2      13.301   5.954  14.1310  0.00  0.00     0.000 O
ATOM     26   O  BDP B   2      10.237   6.083  12.1560  0.00  0.00     0.000 O
ATOM     28  HD  BDP B   2      10.852   6.691  12.1060  0.00  0.00     0.000 HD
ATOM     28   O  BDP B   2       9.666   3.946  13.9050  0.00  0.00     0.000 O
ATOM     30  HD  BDP B   2      10.281   4.553  13.8540  0.00  0.00     0.000 HD
BRANCH 24 30
ATOM     30   C  BDP B   2      13.883   5.082  16.2250  0.00  0.00     0.000 C
ATOM     31   O  BDP B   2      14.653   4.216  15.7500  0.00  0.00     0.000 OA
ATOM     32   O  BDP B   2      13.998   5.582  17.3800  0.00  0.00     0.000 OA
ENDBRANCH 24 30
BRANCH 20 33
ATOM     33  O3  NAG B   3      12.911   6.764  12.0090  0.00  0.00     0.000 O
BRANCH 33 36
ATOM     34  C1  NAG B   3      14.449  10.124  11.3030  0.00  0.00     0.000 C
ATOM     35  C2  NAG B   3      13.363   9.073  11.4380  0.00  0.00     0.000 C
ATOM     36  C3  NAG B   3      13.905   7.790  12.0860  0.00  0.00     0.000 C
ATOM     37  C4  NAG B   3      15.150   7.329  11.3320  0.00  0.00     0.000 C
ATOM     38  C5  NAG B   3      16.135   8.486  11.1810  0.00  0.00     0.000 C
ATOM     39  O5  NAG B   3      15.505   9.575  10.5280  0.00  0.00     0.000 O
ATOM     40   O  NAG B   3      15.783   6.252  12.0400  0.00  0.00     0.000 O
ATOM     42  HD  NAG B   3      16.467   6.779  11.9790  0.00  0.00     0.000 HD
ATOM     42   C  NAG B   3      17.354   8.150  10.3250  0.00  0.00     0.000 C
ATOM     43   O  NAG B   3      16.939   7.908   8.9750  0.00  0.00     0.000 O
ATOM     45  HD  NAG B   3      17.624   8.435   8.9140  0.00  0.00     0.000 HD
BRANCH 35 47
ATOM     45   N  NAG B   3      12.244   9.678  12.1490  0.00  0.00     0.000 N
ATOM     47  HD  NAG B   3      12.930  10.204  12.0980  0.00  0.00     0.000 HD
ATOM     47   C  NAG B   3      10.987   9.501  11.7920  0.00  0.00     0.000 C
ATOM     48   C  NAG B   3       9.958  10.212  12.6200  0.00  0.00     0.000 C
ATOM     49   O  NAG B   3      10.677   8.815  10.8200  0.00  0.00     0.000 OA
ENDBRANCH 35 47
BRANCH 34 50
ATOM     50  O4  BDP B   4      13.814  11.171  10.5990  0.00  0.00     0.000 O
BRANCH 50 54
ATOM     51  C1  BDP B   4      13.751  15.204  10.0610  0.00  0.00     0.000 C
ATOM     52  C2  BDP B   4      14.782  14.469   9.2130  0.00  0.00     0.000 C
ATOM     53  C3  BDP B   4      14.455  13.008   9.2190  0.00  0.00     0.000 C
ATOM     54  C4  BDP B   4      14.370  12.495  10.6850  0.00  0.00     0.000 C
ATOM     55  C5  BDP B   4      13.483  13.374  11.5560  0.00  0.00     0.000 C
ATOM     56  O5  BDP B   4      13.835  14.746  11.3990  0.00  0.00     0.000 O
ATOM     57   O  BDP B   4      14.756  14.949   7.8850  0.00  0.00     0.000 O
ATOM     59  HD  BDP B   4      15.450  15.463   7.8250  0.00  0.00     0.000 HD
ATOM     59   O  BDP B   4      15.552  12.329   8.5730  0.00  0.00     0.000 O
ATOM     61  HD  BDP B   4      16.246  12.843   8.5130  0.00  0.00     0.000 HD
BRANCH 55 61
ATOM     61   C  BDP B   4      13.658  12.977  13.0100  0.00  0.00     0.000 C
ATOM     62   O  BDP B   4      12.766  12.263  13.5390  0.00  0.00     0.000 OA
ATOM     63   O  BDP B   4      14.693  13.381  13.6230  0.00  0.00     0.000 OA
ENDBRANCH 55 61
BRANCH 51 64
ATOM     64  O3  NAG B   5      14.055  16.609   9.9820  0.00  0.00     0.000 O
BRANCH 64 67
ATOM     65  C1  NAG B   5      11.691  19.324   9.1860  0.00  0.00     0.000 C
ATOM     66  C2  NAG B   5      12.739  18.249   8.9540  0.00  0.00     0.000 C
ATOM     67  C3  NAG B   5      12.925  17.425  10.2220  0.00  0.00     0.000 C
ATOM     68  C4  NAG B   5      13.196  18.330  11.4320  0.00  0.00     0.000 C
ATOM     69  C5  NAG B   5      12.149  19.428  11.5270  0.00  0.00     0.000 C
ATOM     70  O5  NAG B   5      12.064  20.131  10.2790  0.00  0.00     0.000 O
ATOM     71   O  NAG B   5      13.209  17.533  12.5970  0.00  0.00     0.000 O
ATOM     73  HD  NAG B   5      13.889  18.034  12.7870  0.00  0.00     0.000 HD
ATOM     73   C  NAG B   5      12.411  20.458  12.6350  0.00  0.00     0.000 C
ATOM     74   O  NAG B   5      13.633  21.171  12.3530  0.00  0.00     0.000 O
ATOM     76  HD  NAG B   5      14.314  21.672  12.5420  0.00  0.00     0.000 HD
BRANCH 66 78
ATOM     76   N  NAG B   5      13.280  18.119   7.5880  0.00  0.00     0.000 N
ATOM     78  HD  NAG B   5      12.812  17.639   8.1360  0.00  0.00     0.000 HD
ATOM     78   C  NAG B   5      12.966  17.160   6.7030  0.00  0.00     0.000 C
ATOM     79   C  NAG B   5      13.672  17.308   5.3820  0.00  0.00     0.000 C
ATOM     80   O  NAG B   5      12.149  16.205   6.9610  0.00  0.00     0.000 OA
ENDBRANCH 66 78
BRANCH 65 81
ATOM     81  O4  BDP B   6      11.545  20.132   8.0110  0.00  0.00     0.000 O
BRANCH 81 85
ATOM     82  C1  BDP B   6       8.237  21.840   5.8880  0.00  0.00     0.000 C
ATOM     83  C2  BDP B   6       9.214  22.800   6.5620  0.00  0.00     0.000 C
ATOM     84  C3  BDP B   6      10.544  22.135   6.9280  0.00  0.00     0.000 C
ATOM     85  C4  BDP B   6      10.339  20.844   7.7220  0.00  0.00     0.000 C
ATOM     86  C5  BDP B   6       9.309  19.975   6.9610  0.00  0.00     0.000 C
ATOM     87  O5  BDP B   6       8.061  20.699   6.7150  0.00  0.00     0.000 O
ATOM     88   O  BDP B   6       9.445  23.837   5.6130  0.00  0.00     0.000 O
ATOM     90  HD  BDP B   6      10.090  24.318   5.2930  0.00  0.00     0.000 HD
ATOM     90   O  BDP B   6      11.359  23.059   7.6540  0.00  0.00     0.000 O
ATOM     92  HD  BDP B   6      12.004  23.540   7.3340  0.00  0.00     0.000 HD
BRANCH 86 92
ATOM     92   C  BDP B   6       8.883  18.798   7.8040  0.00  0.00     0.000 C
ATOM     93   O  BDP B   6       9.283  17.634   7.5000  0.00  0.00     0.000 OA
ATOM     94   O  BDP B   6       8.146  19.035   8.8120  0.00  0.00     0.000 OA
ENDBRANCH 86 92
BRANCH 82 95
ATOM     95  O3  NAG B   7       6.963  22.501   5.7680  0.00  0.00     0.000 O
BRANCH 95 98
ATOM     96  C1  NAG B   7       3.613  21.922   4.4320  0.00  0.00     0.000 C
ATOM     97  C2  NAG B   7       4.817  22.749   4.8640  0.00  0.00     0.000 C
ATOM     98  C3  NAG B   7       5.811  21.733   5.4220  0.00  0.00     0.000 C
ATOM     99  C4  NAG B   7       5.189  20.993   6.6040  0.00  0.00     0.000 C
ATOM    100  C5  NAG B   7       3.847  20.371   6.2130  0.00  0.00     0.000 C
ATOM    101  O5  NAG B   7       3.033  21.371   5.6190  0.00  0.00     0.000 O
BRANCH 97 104
ATOM    102   N  NAG B   7       5.697  23.454   3.9230  0.00  0.00     0.000 N
ATOM    104  HD  NAG B   7       6.395  23.811   3.5530  0.00  0.00     0.000 HD
ATOM    104   O  NAG B   7       6.480  25.207   2.7210  0.00  0.00     0.000 OA
ATOM    105   C  NAG B   7       5.617  24.724   3.4800  0.00  0.00     0.000 C
ATOM    106   C  NAG B   7       4.476  25.574   3.9220  0.00  0.00     0.000 C
ENDBRANCH 97 104
ATOM    107   O  NAG B   7       2.129  18.958   6.9580  0.00  0.00     0.000 O
ATOM    109  HD  NAG B   7       2.611  19.188   6.2760  0.00  0.00     0.000 HD
ATOM    109   O  NAG B   7       2.129  18.958   6.9580  0.00  0.00     0.000 O
ATOM    111  HD  NAG B   7       2.611  19.188   6.2760  0.00  0.00     0.000 HD
ENDBRANCH 95 98
ENDBRANCH 82 95
ENDBRANCH 81 85
ENDBRANCH 65 81
ENDBRANCH 64 67
ENDBRANCH 51 64
ENDBRANCH 50 54
ENDBRANCH 34 50
ENDBRANCH 33 36
ENDBRANCH 20 33
ENDBRANCH 19 23
ENDBRANCH 1 19
TORSDOF 19
ENDMDL
MODEL 7
REMARK VINA RESULT:      -6.5      6.244     11.784
ROOT
ATOM      1  C1  NAG B   1       3.520   6.741  18.9170  0.00  0.00     0.000 C
ATOM      2  C2  NAG B   1       2.089   6.333  19.2570  0.00  0.00     0.000 C
ATOM      3  C3  NAG B   1       1.204   6.299  18.0280  0.00  0.00     0.000 C
ATOM      4  C4  NAG B   1       1.283   7.700  17.4290  0.00  0.00     0.000 C
ATOM      5  C5  NAG B   1       2.727   7.980  16.9930  0.00  0.00     0.000 C
ATOM      6  O5  NAG B   1       3.630   7.930  18.1190  0.00  0.00     0.000 O
ATOM      7   O  NAG B   1      -0.162   5.952  18.3480  0.00  0.00     0.000 O
ATOM      9  HD  NAG B   1       0.289   5.479  18.9170  0.00  0.00     0.000 HD
ATOM      9   O  NAG B   1       0.416   7.803  16.3120  0.00  0.00     0.000 O
ATOM     11  HD  NAG B   1       0.867   7.330  16.8810  0.00  0.00     0.000 HD
ATOM     11   C  NAG B   1       2.802   9.327  16.2650  0.00  0.00     0.000 C
ATOM     12   O  NAG B   1       4.085   9.931  16.4230  0.00  0.00     0.000 O
ATOM     14  HD  NAG B   1       4.536   9.458  16.9910  0.00  0.00     0.000 HD
ENDROOT
BRANCH 2 16
ATOM     14   N  NAG B   1       2.332   5.141  20.0890  0.00  0.00     0.000 N
ATOM     16  HD  NAG B   1       2.755   4.866  20.7920  0.00  0.00     0.000 HD
ATOM     16   C  NAG B   1       1.698   4.914  21.2520  0.00  0.00     0.000 C
ATOM     17   C  NAG B   1       0.704   5.918  21.7740  0.00  0.00     0.000 C
ATOM     18   O  NAG B   1       1.891   3.882  21.8940  0.00  0.00     0.000 OA
ENDBRANCH 2 16
BRANCH 1 19
ATOM     19  O4  BDP B   2       4.073   7.068  20.1850  0.00  0.00     0.000 O
BRANCH 19 23
ATOM     20  C1  BDP B   2       7.953   7.506  18.8840  0.00  0.00     0.000 C
ATOM     21  C2  BDP B   2       7.509   6.096  19.2130  0.00  0.00     0.000 C
ATOM     22  C3  BDP B   2       6.002   5.995  19.2660  0.00  0.00     0.000 C
ATOM     23  C4  BDP B   2       5.480   7.057  20.2300  0.00  0.00     0.000 C
ATOM     24  C5  BDP B   2       5.977   8.421  19.7940  0.00  0.00     0.000 C
ATOM     25  O5  BDP B   2       7.392   8.434  19.8020  0.00  0.00     0.000 O
ATOM     26   O  BDP B   2       8.014   5.188  18.2580  0.00  0.00     0.000 O
ATOM     28  HD  BDP B   2       8.469   5.897  18.0570  0.00  0.00     0.000 HD
ATOM     28   O  BDP B   2       5.630   4.668  19.6720  0.00  0.00     0.000 O
ATOM     30  HD  BDP B   2       6.085   5.377  19.4720  0.00  0.00     0.000 HD
BRANCH 24 30
ATOM     30   C  BDP B   2       5.513   9.504  20.7000  0.00  0.00     0.000 C
ATOM     31   O  BDP B   2       5.847   9.428  21.9050  0.00  0.00     0.000 OA
ATOM     32   O  BDP B   2       4.805  10.432  20.2140  0.00  0.00     0.000 OA
ENDBRANCH 24 30
BRANCH 20 33
ATOM     33  O3  NAG B   3       9.349   7.472  19.0560  0.00  0.00     0.000 O
BRANCH 33 36
ATOM     34  C1  NAG B   3      11.542  10.125  17.5370  0.00  0.00     0.000 C
ATOM     35  C2  NAG B   3      10.735   8.843  17.6200  0.00  0.00     0.000 C
ATOM     36  C3  NAG B   3       9.930   8.772  18.9270  0.00  0.00     0.000 C
ATOM     37  C4  NAG B   3      10.864   9.016  20.1090  0.00  0.00     0.000 C
ATOM     38  C5  NAG B   3      11.687  10.282  19.8820  0.00  0.00     0.000 C
ATOM     39  O5  NAG B   3      12.405  10.179  18.6640  0.00  0.00     0.000 O
ATOM     40   O  NAG B   3      10.101   9.153  21.3180  0.00  0.00     0.000 O
ATOM     42  HD  NAG B   3      10.546   9.894  21.3690  0.00  0.00     0.000 HD
ATOM     42   C  NAG B   3      12.742  10.533  20.9560  0.00  0.00     0.000 C
ATOM     43   O  NAG B   3      13.732   9.498  20.9060  0.00  0.00     0.000 O
ATOM     45  HD  NAG B   3      14.177  10.240  20.9560  0.00  0.00     0.000 HD
BRANCH 35 47
ATOM     45   N  NAG B   3      10.768   7.823  16.5800  0.00  0.00     0.000 N
ATOM     47  HD  NAG B   3      11.137   7.559  17.3180  0.00  0.00     0.000 HD
ATOM     47   C  NAG B   3       9.776   7.627  15.7350  0.00  0.00     0.000 C
ATOM     48   C  NAG B   3       9.964   6.521  14.7390  0.00  0.00     0.000 C
ATOM     49   O  NAG B   3       8.744   8.293  15.7770  0.00  0.00     0.000 OA
ENDBRANCH 35 47
BRANCH 34 50
ATOM     50  O4  BDP B   4      12.291   9.971  16.3500  0.00  0.00     0.000 O
BRANCH 50 54
ATOM     51  C1  BDP B   4      13.863  11.927  13.1470  0.00  0.00     0.000 C
ATOM     52  C2  BDP B   4      14.361  12.426  14.4990  0.00  0.00     0.000 C
ATOM     53  C3  BDP B   4      14.015  11.409  15.5430  0.00  0.00     0.000 C
ATOM     54  C4  BDP B   4      12.487  11.118  15.5060  0.00  0.00     0.000 C
ATOM     55  C5  BDP B   4      11.988  10.818  14.0990  0.00  0.00     0.000 C
ATOM     56  O5  BDP B   4      12.453  11.807  13.1840  0.00  0.00     0.000 O
ATOM     57   O  BDP B   4      15.761  12.607  14.4690  0.00  0.00     0.000 O
ATOM     59  HD  BDP B   4      15.869  13.463  14.4010  0.00  0.00     0.000 HD
ATOM     59   O  BDP B   4      14.324  11.999  16.8220  0.00  0.00     0.000 O
ATOM     61  HD  BDP B   4      14.432  12.855  16.7540  0.00  0.00     0.000 HD
BRANCH 55 61
ATOM     61   C  BDP B   4      10.470  10.810  14.0970  0.00  0.00     0.000 C
ATOM     62   O  BDP B   4       9.874  11.507  14.9590  0.00  0.00     0.000 OA
ATOM     63   O  BDP B   4       9.874  10.105  13.2260  0.00  0.00     0.000 OA
ENDBRANCH 55 61
BRANCH 51 64
ATOM     64  O3  NAG B   5      14.268  12.894  12.1590  0.00  0.00     0.000 O
BRANCH 64 67
ATOM     65  C1  NAG B   5      15.137  11.636   8.8040  0.00  0.00     0.000 C
ATOM     66  C2  NAG B   5      15.276  11.904  10.2930  0.00  0.00     0.000 C
ATOM     67  C3  NAG B   5      13.975  12.479  10.8400  0.00  0.00     0.000 C
ATOM     68  C4  NAG B   5      13.517  13.688  10.0140  0.00  0.00     0.000 C
ATOM     69  C5  NAG B   5      13.498  13.351   8.5310  0.00  0.00     0.000 C
ATOM     70  O5  NAG B   5      14.771  12.821   8.1340  0.00  0.00     0.000 O
ATOM     71   O  NAG B   5      12.239  14.085  10.4640  0.00  0.00     0.000 O
ATOM     73  HD  NAG B   5      12.586  14.874  10.3770  0.00  0.00     0.000 HD
ATOM     73   C  NAG B   5      13.173  14.540   7.6160  0.00  0.00     0.000 C
ATOM     74   O  NAG B   5      14.212  15.535   7.7290  0.00  0.00     0.000 O
ATOM     76  HD  NAG B   5      14.559  16.324   7.6430  0.00  0.00     0.000 HD
BRANCH 66 78
ATOM     76   N  NAG B   5      15.738  10.598  10.7990  0.00  0.00     0.000 N
ATOM     78  HD  NAG B   5      15.990  11.425  10.8470  0.00  0.00     0.000 HD
ATOM     78   C  NAG B   5      16.688  10.403  11.7280  0.00  0.00     0.000 C
ATOM     79   C  NAG B   5      16.924   8.952  12.0490  0.00  0.00     0.000 C
ATOM     80   O  NAG B   5      17.337  11.361  12.2820  0.00  0.00     0.000 OA
ENDBRANCH 66 78
BRANCH 65 81
ATOM     81  O4  BDP B   6      16.373  11.139   8.2750  0.00  0.00     0.000 O
BRANCH 81 85
ATOM     82  C1  BDP B   6      17.351   7.833   5.7300  0.00  0.00     0.000 C
ATOM     83  C2  BDP B   6      17.783   9.225   5.2760  0.00  0.00     0.000 C
ATOM     84  C3  BDP B   6      17.759  10.254   6.4090  0.00  0.00     0.000 C
ATOM     85  C4  BDP B   6      16.419  10.261   7.1480  0.00  0.00     0.000 C
ATOM     86  C5  BDP B   6      16.075   8.800   7.5230  0.00  0.00     0.000 C
ATOM     87  O5  BDP B   6      16.077   7.921   6.3520  0.00  0.00     0.000 O
ATOM     88   O  BDP B   6      19.117   9.072   4.7990  0.00  0.00     0.000 O
ATOM     90  HD  BDP B   6      19.884   9.472   4.8240  0.00  0.00     0.000 HD
ATOM     90   O  BDP B   6      18.063  11.550   5.8870  0.00  0.00     0.000 O
ATOM     92  HD  BDP B   6      18.831  11.950   5.9120  0.00  0.00     0.000 HD
BRANCH 86 92
ATOM     92   C  BDP B   6      14.660   8.705   8.0410  0.00  0.00     0.000 C
ATOM     93   O  BDP B   6      14.442   8.158   9.1640  0.00  0.00     0.000 OA
ATOM     94   O  BDP B   6      13.739   9.207   7.3250  0.00  0.00     0.000 OA
ENDBRANCH 86 92
BRANCH 82 95
ATOM     95  O3  NAG B   7      17.217   6.997   4.5640  0.00  0.00     0.000 O
BRANCH 95 98
ATOM     96  C1  NAG B   7      18.633   3.944   3.1440  0.00  0.00     0.000 C
ATOM     97  C2  NAG B   7      17.987   5.323   3.1190  0.00  0.00     0.000 C
ATOM     98  C3  NAG B   7      17.764   5.679   4.5870  0.00  0.00     0.000 C
ATOM     99  C4  NAG B   7      16.848   4.645   5.2380  0.00  0.00     0.000 C
ATOM    100  C5  NAG B   7      17.393   3.230   5.0370  0.00  0.00     0.000 C
ATOM    101  O5  NAG B   7      17.656   3.031   3.6560  0.00  0.00     0.000 O
BRANCH 97 104
ATOM    102   N  NAG B   7      18.173   6.550   2.3310  0.00  0.00     0.000 N
ATOM    104  HD  NAG B   7      18.152   7.130   1.6890  0.00  0.00     0.000 HD
ATOM    104   O  NAG B   7      19.323   8.169   1.2420  0.00  0.00     0.000 OA
ATOM    105   C  NAG B   7      19.320   7.156   1.9690  0.00  0.00     0.000 C
ATOM    106   C  NAG B   7      20.617   6.591   2.4370  0.00  0.00     0.000 C
ENDBRANCH 97 104
ATOM    107   O  NAG B   7      17.083   0.982   5.6310  0.00  0.00     0.000 O
ATOM    109  HD  NAG B   7      17.670   1.600   5.4800  0.00  0.00     0.000 HD
ATOM    109   O  NAG B   7      17.083   0.982   5.6310  0.00  0.00     0.000 O
ATOM    111  HD  NAG B   7      17.670   1.600   5.4800  0.00  0.00     0.000 HD
ENDBRANCH 95 98
ENDBRANCH 82 95
ENDBRANCH 81 85
ENDBRANCH 65 81
ENDBRANCH 64 67
ENDBRANCH 51 64
ENDBRANCH 50 54
ENDBRANCH 34 50
ENDBRANCH 33 36
ENDBRANCH 20 33
ENDBRANCH 19 23
ENDBRANCH 1 19
TORSDOF 19
ENDMDL
MODEL 8
REMARK VINA RESULT:      -6.5      7.151     17.131
ROOT
ATOM      1  C1  NAG B   1       8.453  21.852   5.6080  0.00  0.00     0.000 C
ATOM      2  C2  NAG B   1       7.134  22.303   4.9870  0.00  0.00     0.000 C
ATOM      3  C3  NAG B   1       7.279  22.600   3.5090  0.00  0.00     0.000 C
ATOM      4  C4  NAG B   1       8.363  23.670   3.4120  0.00  0.00     0.000 C
ATOM      5  C5  NAG B   1       9.686  23.093   3.9340  0.00  0.00     0.000 C
ATOM      6  O5  NAG B   1       9.573  22.703   5.3200  0.00  0.00     0.000 O
ATOM      7   O  NAG B   1       6.043  23.066   2.9210  0.00  0.00     0.000 O
ATOM      9  HD  NAG B   1       5.766  22.495   3.5110  0.00  0.00     0.000 HD
ATOM      9   O  NAG B   1       8.519  24.087   2.0660  0.00  0.00     0.000 O
ATOM     11  HD  NAG B   1       8.243  23.516   2.6560  0.00  0.00     0.000 HD
ATOM     11   C  NAG B   1      10.818  24.105   3.7200  0.00  0.00     0.000 C
ATOM     12   O  NAG B   1      11.841  23.954   4.7030  0.00  0.00     0.000 O
ATOM     14  HD  NAG B   1      11.564  23.383   5.2930  0.00  0.00     0.000 HD
ENDROOT
BRANCH 2 16
ATOM     14   N  NAG B   1       6.030  22.416   5.9570  0.00  0.00     0.000 N
ATOM     16  HD  NAG B   1       5.209  22.678   6.0400  0.00  0.00     0.000 HD
ATOM     16   C  NAG B   1       5.011  21.542   6.0170  0.00  0.00     0.000 C
ATOM     17   C  NAG B   1       4.948  20.394   5.0440  0.00  0.00     0.000 C
ATOM     18   O  NAG B   1       4.134  21.641   6.8740  0.00  0.00     0.000 OA
ENDBRANCH 2 16
BRANCH 1 19
ATOM     19  O4  BDP B   2       8.214  21.979   7.0040  0.00  0.00     0.000 O
BRANCH 19 23
ATOM     20  C1  BDP B   2      11.188  19.381   8.1620  0.00  0.00     0.000 C
ATOM     21  C2  BDP B   2       9.834  18.767   7.8710  0.00  0.00     0.000 C
ATOM     22  C3  BDP B   2       8.966  19.711   7.0710  0.00  0.00     0.000 C
ATOM     23  C4  BDP B   2       8.903  21.048   7.8030  0.00  0.00     0.000 C
ATOM     24  C5  BDP B   2      10.310  21.567   8.0270  0.00  0.00     0.000 C
ATOM     25  O5  BDP B   2      11.039  20.638   8.8060  0.00  0.00     0.000 O
ATOM     26   O  BDP B   2       9.988  17.552   7.1700  0.00  0.00     0.000 O
ATOM     28  HD  BDP B   2      10.806  17.698   7.4140  0.00  0.00     0.000 HD
ATOM     28   O  BDP B   2       7.664  19.127   6.9000  0.00  0.00     0.000 O
ATOM     30  HD  BDP B   2       8.483  19.273   7.1440  0.00  0.00     0.000 HD
BRANCH 24 30
ATOM     30   C  BDP B   2      10.321  22.867   8.7490  0.00  0.00     0.000 C
ATOM     31   O  BDP B   2      10.849  23.842   8.1670  0.00  0.00     0.000 OA
ATOM     32   O  BDP B   2       9.809  22.917   9.9040  0.00  0.00     0.000 OA
ENDBRANCH 24 30
BRANCH 20 33
ATOM     33  O3  NAG B   3      11.788  18.473   9.0540  0.00  0.00     0.000 O
BRANCH 33 36
ATOM     34  C1  NAG B   3      15.388  17.382   9.1030  0.00  0.00     0.000 C
ATOM     35  C2  NAG B   3      13.896  17.299   8.8460  0.00  0.00     0.000 C
ATOM     36  C3  NAG B   3      13.206  18.646   9.1100  0.00  0.00     0.000 C
ATOM     37  C4  NAG B   3      13.589  19.145  10.5010  0.00  0.00     0.000 C
ATOM     38  C5  NAG B   3      15.104  19.107  10.6800  0.00  0.00     0.000 C
ATOM     39  O5  NAG B   3      15.585  17.794  10.4480  0.00  0.00     0.000 O
ATOM     40   O  NAG B   3      13.120  20.490  10.6870  0.00  0.00     0.000 O
ATOM     42  HD  NAG B   3      13.953  20.622  10.8820  0.00  0.00     0.000 HD
ATOM     42   C  NAG B   3      15.569  19.467  12.0880  0.00  0.00     0.000 C
ATOM     43   O  NAG B   3      15.116  18.469  13.0120  0.00  0.00     0.000 O
ATOM     45  HD  NAG B   3      15.949  18.601  13.2070  0.00  0.00     0.000 HD
BRANCH 35 47
ATOM     45   N  NAG B   3      13.356  16.026   8.3850  0.00  0.00     0.000 N
ATOM     47  HD  NAG B   3      13.209  16.165   9.2270  0.00  0.00     0.000 HD
ATOM     47   C  NAG B   3      12.800  15.869   7.2000  0.00  0.00     0.000 C
ATOM     48   C  NAG B   3      12.277  14.498   6.8910  0.00  0.00     0.000 C
ATOM     49   O  NAG B   3      12.691  16.799   6.4040  0.00  0.00     0.000 OA
ENDBRANCH 35 47
BRANCH 34 50
ATOM     50  O4  BDP B   4      15.833  16.054   8.9250  0.00  0.00     0.000 O
BRANCH 50 54
ATOM     51  C1  BDP B   4      18.707  13.718   7.2410  0.00  0.00     0.000 C
ATOM     52  C2  BDP B   4      19.158  14.478   8.4830  0.00  0.00     0.000 C
ATOM     53  C3  BDP B   4      17.945  14.982   9.2030  0.00  0.00     0.000 C
ATOM     54  C4  BDP B   4      17.072  15.829   8.2330  0.00  0.00     0.000 C
ATOM     55  C5  BDP B   4      16.809  15.112   6.9150  0.00  0.00     0.000 C
ATOM     56  O5  BDP B   4      18.025  14.605   6.3730  0.00  0.00     0.000 O
ATOM     57   O  BDP B   4      19.890  13.627   9.3400  0.00  0.00     0.000 O
ATOM     59  HD  BDP B   4      20.717  13.851   9.2150  0.00  0.00     0.000 HD
ATOM     59   O  BDP B   4      18.412  15.852  10.2550  0.00  0.00     0.000 O
ATOM     61  HD  BDP B   4      19.240  16.076  10.1300  0.00  0.00     0.000 HD
BRANCH 55 61
ATOM     61   C  BDP B   4      16.191  16.086   5.9290  0.00  0.00     0.000 C
ATOM     62   O  BDP B   4      16.492  17.304   6.0340  0.00  0.00     0.000 OA
ATOM     63   O  BDP B   4      15.402  15.629   5.0470  0.00  0.00     0.000 OA
ENDBRANCH 55 61
BRANCH 51 64
ATOM     64  O3  NAG B   5      19.890  13.193   6.6090  0.00  0.00     0.000 O
BRANCH 64 67
ATOM     65  C1  NAG B   5      19.812   9.903   4.9470  0.00  0.00     0.000 C
ATOM     66  C2  NAG B   5      19.880  10.913   6.0790  0.00  0.00     0.000 C
ATOM     67  C3  NAG B   5      19.592  12.310   5.5450  0.00  0.00     0.000 C
ATOM     68  C4  NAG B   5      20.491  12.637   4.3440  0.00  0.00     0.000 C
ATOM     69  C5  NAG B   5      20.427  11.526   3.3070  0.00  0.00     0.000 C
ATOM     70  O5  NAG B   5      20.714  10.263   3.9260  0.00  0.00     0.000 O
ATOM     71   O  NAG B   5      20.081  13.871   3.7960  0.00  0.00     0.000 O
ATOM     73  HD  NAG B   5      20.937  13.996   3.7480  0.00  0.00     0.000 HD
ATOM     73   C  NAG B   5      21.392  11.706   2.1270  0.00  0.00     0.000 C
ATOM     74   O  NAG B   5      22.753  11.655   2.6040  0.00  0.00     0.000 O
ATOM     76  HD  NAG B   5      23.609  11.779   2.5560  0.00  0.00     0.000 HD
BRANCH 66 78
ATOM     76   N  NAG B   5      18.958  10.318   7.0660  0.00  0.00     0.000 N
ATOM     78  HD  NAG B   5      19.770  10.621   7.0540  0.00  0.00     0.000 HD
ATOM     78   C  NAG B   5      19.145  10.277   8.3950  0.00  0.00     0.000 C
ATOM     79   C  NAG B   5      18.015   9.619   9.1390  0.00  0.00     0.000 C
ATOM     80   O  NAG B   5      20.190  10.746   8.9730  0.00  0.00     0.000 OA
ENDBRANCH 66 78
BRANCH 65 81
ATOM     81  O4  BDP B   6      20.127   8.592   5.4360  0.00  0.00     0.000 O
BRANCH 81 85
ATOM     82  C1  BDP B   6      19.487   4.491   4.3710  0.00  0.00     0.000 C
ATOM     83  C2  BDP B   6      20.715   5.187   3.7910  0.00  0.00     0.000 C
ATOM     84  C3  BDP B   6      21.075   6.477   4.5340  0.00  0.00     0.000 C
ATOM     85  C4  BDP B   6      19.872   7.413   4.6690  0.00  0.00     0.000 C
ATOM     86  C5  BDP B   6      18.688   6.589   5.2310  0.00  0.00     0.000 C
ATOM     87  O5  BDP B   6      18.406   5.411   4.4090  0.00  0.00     0.000 O
ATOM     88   O  BDP B   6      21.780   4.250   3.9210  0.00  0.00     0.000 O
ATOM     90  HD  BDP B   6      22.617   4.217   4.1410  0.00  0.00     0.000 HD
ATOM     90   O  BDP B   6      22.158   7.129   3.8670  0.00  0.00     0.000 O
ATOM     92  HD  BDP B   6      22.995   7.096   4.0870  0.00  0.00     0.000 HD
BRANCH 86 92
ATOM     92   C  BDP B   6      17.409   7.388   5.1660  0.00  0.00     0.000 C
ATOM     93   O  BDP B   6      16.996   7.988   6.2040  0.00  0.00     0.000 OA
ATOM     94   O  BDP B   6      16.807   7.441   4.0490  0.00  0.00     0.000 OA
ENDBRANCH 86 92
BRANCH 82 95
ATOM     95  O3  NAG B   7      19.119   3.411   3.4900  0.00  0.00     0.000 O
BRANCH 95 98
ATOM     96  C1  NAG B   7      16.973   0.519   4.0960  0.00  0.00     0.000 C
ATOM     97  C2  NAG B   7      18.276   1.248   3.7940  0.00  0.00     0.000 C
ATOM     98  C3  NAG B   7      17.889   2.723   3.7100  0.00  0.00     0.000 C
ATOM     99  C4  NAG B   7      16.862   2.929   2.5990  0.00  0.00     0.000 C
ATOM    100  C5  NAG B   7      15.662   2.000   2.7870  0.00  0.00     0.000 C
ATOM    101  O5  NAG B   7      16.130   0.670   2.9490  0.00  0.00     0.000 O
BRANCH 97 104
ATOM    102   N  NAG B   7      19.301   1.134   4.8400  0.00  0.00     0.000 N
ATOM    104  HD  NAG B   7      19.845   1.322   5.4870  0.00  0.00     0.000 HD
ATOM    104   O  NAG B   7      21.367   0.783   5.6990  0.00  0.00     0.000 OA
ATOM    105   C  NAG B   7      20.593   0.777   4.7210  0.00  0.00     0.000 C
ATOM    106   C  NAG B   7      21.115   0.378   3.3830  0.00  0.00     0.000 C
ENDBRANCH 97 104
ATOM    107   O  NAG B   7      13.521   1.490   1.9740  0.00  0.00     0.000 O
ATOM    109  HD  NAG B   7      14.009   1.567   2.6860  0.00  0.00     0.000 HD
ATOM    109   O  NAG B   7      13.521   1.490   1.9740  0.00  0.00     0.000 O
ATOM    111  HD  NAG B   7      14.009   1.567   2.6860  0.00  0.00     0.000 HD
ENDBRANCH 95 98
ENDBRANCH 82 95
ENDBRANCH 81 85
ENDBRANCH 65 81
ENDBRANCH 64 67
ENDBRANCH 51 64
ENDBRANCH 50 54
ENDBRANCH 34 50
ENDBRANCH 33 36
ENDBRANCH 20 33
ENDBRANCH 19 23
ENDBRANCH 1 19
TORSDOF 19
ENDMDL
MODEL 9
REMARK VINA RESULT:      -6.5      7.868     11.165
ROOT
ATOM      1  C1  NAG B   1       4.352   8.729  20.1920  0.00  0.00     0.000 C
ATOM      2  C2  NAG B   1       3.795  10.149  20.1500  0.00  0.00     0.000 C
ATOM      3  C3  NAG B   1       2.288  10.160  19.9930  0.00  0.00     0.000 C
ATOM      4  C4  NAG B   1       2.006   9.386  18.7090  0.00  0.00     0.000 C
ATOM      5  C5  NAG B   1       2.476   7.936  18.8820  0.00  0.00     0.000 C
ATOM      6  O5  NAG B   1       3.897   7.876  19.1300  0.00  0.00     0.000 O
ATOM      7   O  NAG B   1       1.756  11.502  19.9130  0.00  0.00     0.000 O
ATOM      9  HD  NAG B   1       2.418  11.595  20.4640  0.00  0.00     0.000 HD
ATOM      9   O  NAG B   1       0.618   9.409  18.4200  0.00  0.00     0.000 O
ATOM     11  HD  NAG B   1       1.279   9.502  18.9710  0.00  0.00     0.000 HD
ATOM     11   C  NAG B   1       2.078   7.106  17.6550  0.00  0.00     0.000 C
ATOM     12   O  NAG B   1       2.989   6.029  17.4410  0.00  0.00     0.000 O
ATOM     14  HD  NAG B   1       3.650   6.123  17.9920  0.00  0.00     0.000 HD
ENDROOT
BRANCH 2 16
ATOM     14   N  NAG B   1       4.371  10.800  21.3390  0.00  0.00     0.000 N
ATOM     16  HD  NAG B   1       5.113  10.912  21.7730  0.00  0.00     0.000 HD
ATOM     16   C  NAG B   1       5.054  11.957  21.2860  0.00  0.00     0.000 C
ATOM     17   C  NAG B   1       5.283  12.634  19.9610  0.00  0.00     0.000 C
ATOM     18   O  NAG B   1       5.478  12.496  22.3080  0.00  0.00     0.000 OA
ENDBRANCH 2 16
BRANCH 1 19
ATOM     19  O4  BDP B   2       5.743   8.921  19.9710  0.00  0.00     0.000 O
BRANCH 19 23
ATOM     20  C1  BDP B   2       8.451   7.845  17.0640  0.00  0.00     0.000 C
ATOM     21  C2  BDP B   2       7.357   8.804  16.6430  0.00  0.00     0.000 C
ATOM     22  C3  BDP B   2       6.698   9.445  17.8430  0.00  0.00     0.000 C
ATOM     23  C4  BDP B   2       6.233   8.340  18.7870  0.00  0.00     0.000 C
ATOM     24  C5  BDP B   2       7.410   7.455  19.1460  0.00  0.00     0.000 C
ATOM     25  O5  BDP B   2       7.944   6.876  17.9710  0.00  0.00     0.000 O
ATOM     26   O  BDP B   2       7.882   9.805  15.7970  0.00  0.00     0.000 O
ATOM     28  HD  BDP B   2       8.548   9.252  15.8180  0.00  0.00     0.000 HD
ATOM     28   O  BDP B   2       5.609  10.271  17.4010  0.00  0.00     0.000 O
ATOM     30  HD  BDP B   2       6.275   9.717  17.4220  0.00  0.00     0.000 HD
BRANCH 24 30
ATOM     30   C  BDP B   2       7.023   6.346  20.0570  0.00  0.00     0.000 C
ATOM     31   O  BDP B   2       7.523   6.345  21.2060  0.00  0.00     0.000 OA
ATOM     32   O  BDP B   2       6.223   5.466  19.6280  0.00  0.00     0.000 OA
ENDBRANCH 24 30
BRANCH 20 33
ATOM     33  O3  NAG B   3       8.825   7.208  15.8670  0.00  0.00     0.000 O
BRANCH 33 36
ATOM     34  C1  NAG B   3      12.345   6.393  14.8210  0.00  0.00     0.000 C
ATOM     35  C2  NAG B   3      11.038   7.160  14.8880  0.00  0.00     0.000 C
ATOM     36  C3  NAG B   3      10.111   6.594  15.9740  0.00  0.00     0.000 C
ATOM     37  C4  NAG B   3       9.958   5.088  15.7720  0.00  0.00     0.000 C
ATOM     38  C5  NAG B   3      11.329   4.431  15.6340  0.00  0.00     0.000 C
ATOM     39  O5  NAG B   3      12.046   5.028  14.5670  0.00  0.00     0.000 O
ATOM     40   O  NAG B   3       9.262   4.512  16.8880  0.00  0.00     0.000 O
ATOM     42  HD  NAG B   3       9.963   4.002  16.9030  0.00  0.00     0.000 HD
ATOM     42   C  NAG B   3      11.268   2.942  15.2990  0.00  0.00     0.000 C
ATOM     43   O  NAG B   3      10.699   2.767  13.9960  0.00  0.00     0.000 O
ATOM     45  HD  NAG B   3      11.400   2.258  14.0110  0.00  0.00     0.000 HD
BRANCH 35 47
ATOM     45   N  NAG B   3      10.747   8.273  13.9930  0.00  0.00     0.000 N
ATOM     47  HD  NAG B   3      10.260   7.576  13.8280  0.00  0.00     0.000 HD
ATOM     47   C  NAG B   3      10.739   9.530  14.3900  0.00  0.00     0.000 C
ATOM     48   C  NAG B   3      10.400  10.551  13.3450  0.00  0.00     0.000 C
ATOM     49   O  NAG B   3      10.970   9.846  15.5550  0.00  0.00     0.000 OA
ENDBRANCH 35 47
BRANCH 34 50
ATOM     50  O4  BDP B   4      13.013   6.965  13.7160  0.00  0.00     0.000 O
BRANCH 50 54
ATOM     51  C1  BDP B   4      16.682   7.808  12.1740  0.00  0.00     0.000 C
ATOM     52  C2  BDP B   4      16.526   6.382  12.6900  0.00  0.00     0.000 C
ATOM     53  C3  BDP B   4      15.067   6.095  12.8730  0.00  0.00     0.000 C
ATOM     54  C4  BDP B   4      14.433   7.171  13.8010  0.00  0.00     0.000 C
ATOM     55  C5  BDP B   4      14.779   8.588  13.3650  0.00  0.00     0.000 C
ATOM     56  O5  BDP B   4      16.180   8.712  13.1410  0.00  0.00     0.000 O
ATOM     57   O  BDP B   4      17.071   5.464  11.7660  0.00  0.00     0.000 O
ATOM     59  HD  BDP B   4      17.831   5.233  12.1100  0.00  0.00     0.000 HD
ATOM     59   O  BDP B   4      14.971   4.820  13.5400  0.00  0.00     0.000 O
ATOM     61  HD  BDP B   4      15.731   4.588  13.8840  0.00  0.00     0.000 HD
BRANCH 55 61
ATOM     61   C  BDP B   4      14.359   9.562  14.4510  0.00  0.00     0.000 C
ATOM     62   O  BDP B   4      14.001  10.718  14.1020  0.00  0.00     0.000 OA
ATOM     63   O  BDP B   4      14.386   9.167  15.6560  0.00  0.00     0.000 OA
ENDBRANCH 55 61
BRANCH 51 64
ATOM     64  O3  NAG B   5      18.087   8.029  11.9480  0.00  0.00     0.000 O
BRANCH 64 67
ATOM     65  C1  NAG B   5      19.236  10.128   9.1430  0.00  0.00     0.000 C
ATOM     66  C2  NAG B   5      18.715   8.899   9.8680  0.00  0.00     0.000 C
ATOM     67  C3  NAG B   5      18.348   9.259  11.3010  0.00  0.00     0.000 C
ATOM     68  C4  NAG B   5      19.510   9.971  12.0060  0.00  0.00     0.000 C
ATOM     69  C5  NAG B   5      20.023  11.128  11.1630  0.00  0.00     0.000 C
ATOM     70  O5  NAG B   5      20.335  10.668   9.8400  0.00  0.00     0.000 O
ATOM     71   O  NAG B   5      19.068  10.416  13.2700  0.00  0.00     0.000 O
ATOM     73  HD  NAG B   5      19.846  10.123  13.5120  0.00  0.00     0.000 HD
ATOM     73   C  NAG B   5      21.270  11.821  11.7310  0.00  0.00     0.000 C
ATOM     74   O  NAG B   5      22.373  10.891  11.7470  0.00  0.00     0.000 O
ATOM     76  HD  NAG B   5      23.152  10.598  11.9890  0.00  0.00     0.000 HD
BRANCH 66 78
ATOM     76   N  NAG B   5      17.692   8.437   8.9100  0.00  0.00     0.000 N
ATOM     78  HD  NAG B   5      18.344   8.090   9.3630  0.00  0.00     0.000 HD
ATOM     78   C  NAG B   5      17.392   7.159   8.6300  0.00  0.00     0.000 C
ATOM     79   C  NAG B   5      16.286   7.009   7.6210  0.00  0.00     0.000 C
ATOM     80   O  NAG B   5      17.997   6.162   9.1640  0.00  0.00     0.000 OA
ENDBRANCH 66 78
BRANCH 65 81
ATOM     81  O4  BDP B   6      19.627   9.785   7.8070  0.00  0.00     0.000 O
BRANCH 81 85
ATOM     82  C1  BDP B   6      20.055  11.703   4.0000  0.00  0.00     0.000 C
ATOM     83  C2  BDP B   6      21.300  11.584   4.8740  0.00  0.00     0.000 C
ATOM     84  C3  BDP B   6      21.146  10.551   5.9930  0.00  0.00     0.000 C
ATOM     85  C4  BDP B   6      19.870  10.776   6.8070  0.00  0.00     0.000 C
ATOM     86  C5  BDP B   6      18.691  10.915   5.8150  0.00  0.00     0.000 C
ATOM     87  O5  BDP B   6      18.930  11.967   4.8260  0.00  0.00     0.000 O
ATOM     88   O  BDP B   6      22.346  11.181   3.9930  0.00  0.00     0.000 O
ATOM     90  HD  BDP B   6      23.020  10.638   3.9620  0.00  0.00     0.000 HD
ATOM     90   O  BDP B   6      22.302  10.578   6.8340  0.00  0.00     0.000 O
ATOM     92  HD  BDP B   6      22.976  10.035   6.8030  0.00  0.00     0.000 HD
BRANCH 86 92
ATOM     92   C  BDP B   6      17.445  11.374   6.5330  0.00  0.00     0.000 C
ATOM     93   O  BDP B   6      17.286  12.607   6.7820  0.00  0.00     0.000 OA
ATOM     94   O  BDP B   6      16.587  10.490   6.8420  0.00  0.00     0.000 OA
ENDBRANCH 86 92
BRANCH 82 95
ATOM     95  O3  NAG B   7      20.228  12.827   3.1140  0.00  0.00     0.000 O
BRANCH 95 98
ATOM     96  C1  NAG B   7      18.719  13.414  -0.1600  0.00  0.00     0.000 C
ATOM     97  C2  NAG B   7      19.846  13.127   0.8240  0.00  0.00     0.000 C
ATOM     98  C3  NAG B   7      19.184  13.158   2.1990  0.00  0.00     0.000 C
ATOM     99  C4  NAG B   7      18.563  14.531   2.4460  0.00  0.00     0.000 C
ATOM    100  C5  NAG B   7      17.612  14.912   1.3100  0.00  0.00     0.000 C
ATOM    101  O5  NAG B   7      18.290  14.760   0.0720  0.00  0.00     0.000 O
BRANCH 97 104
ATOM    102   N  NAG B   7      20.467  11.801   0.7000  0.00  0.00     0.000 N
ATOM    104  HD  NAG B   7      20.721  10.990   0.8640  0.00  0.00     0.000 HD
ATOM    104   O  NAG B   7      22.156  10.304   0.5160  0.00  0.00     0.000 OA
ATOM    105   C  NAG B   7      21.768  11.488   0.5470  0.00  0.00     0.000 C
ATOM    106   C  NAG B   7      22.768  12.586   0.4270  0.00  0.00     0.000 C
ENDBRANCH 97 104
ATOM    107   O  NAG B   7      16.034  16.504   0.6180  0.00  0.00     0.000 O
ATOM    109  HD  NAG B   7      16.229  15.661   0.6330  0.00  0.00     0.000 HD
ATOM    109   O  NAG B   7      16.034  16.504   0.6180  0.00  0.00     0.000 O
ATOM    111  HD  NAG B   7      16.229  15.661   0.6330  0.00  0.00     0.000 HD
ENDBRANCH 95 98
ENDBRANCH 82 95
ENDBRANCH 81 85
ENDBRANCH 65 81
ENDBRANCH 64 67
ENDBRANCH 51 64
ENDBRANCH 50 54
ENDBRANCH 34 50
ENDBRANCH 33 36
ENDBRANCH 20 33
ENDBRANCH 19 23
ENDBRANCH 1 19
TORSDOF 19
ENDMDL
MODEL 10
REMARK VINA RESULT:      -6.5      7.419     17.156
ROOT
ATOM      1  C1  NAG B   1       6.695  21.951   6.6440  0.00  0.00     0.000 C
ATOM      2  C2  NAG B   1       6.293  22.959   5.5700  0.00  0.00     0.000 C
ATOM      3  C3  NAG B   1       4.862  23.425   5.7420  0.00  0.00     0.000 C
ATOM      4  C4  NAG B   1       4.013  22.158   5.6970  0.00  0.00     0.000 C
ATOM      5  C5  NAG B   1       4.387  21.260   6.8830  0.00  0.00     0.000 C
ATOM      6  O5  NAG B   1       5.773  20.864   6.8190  0.00  0.00     0.000 O
ATOM      7   O  NAG B   1       4.462  24.350   4.7060  0.00  0.00     0.000 O
ATOM      9  HD  NAG B   1       5.296  24.550   4.8220  0.00  0.00     0.000 HD
ATOM      9   O  NAG B   1       2.636  22.492   5.7630  0.00  0.00     0.000 O
ATOM     11  HD  NAG B   1       3.471  22.691   5.8790  0.00  0.00     0.000 HD
ATOM     11   C  NAG B   1       3.451  20.046   6.9360  0.00  0.00     0.000 C
ATOM     12   O  NAG B   1       4.097  18.919   7.5260  0.00  0.00     0.000 O
ATOM     14  HD  NAG B   1       4.932  19.119   7.6420  0.00  0.00     0.000 HD
ENDROOT
BRANCH 2 16
ATOM     14   N  NAG B   1       7.292  24.042   5.5840  0.00  0.00     0.000 N
ATOM     16  HD  NAG B   1       8.141  24.197   5.6640  0.00  0.00     0.000 HD
ATOM     16   C  NAG B   1       8.058  24.349   4.5230  0.00  0.00     0.000 C
ATOM     17   C  NAG B   1       7.935  23.552   3.2520  0.00  0.00     0.000 C
ATOM     18   O  NAG B   1       8.847  25.293   4.5560  0.00  0.00     0.000 OA
ENDBRANCH 2 16
BRANCH 1 19
ATOM     19  O4  BDP B   2       7.884  21.375   6.1180  0.00  0.00     0.000 O
BRANCH 19 23
ATOM     20  C1  BDP B   2      11.152  19.410   7.6660  0.00  0.00     0.000 C
ATOM     21  C2  BDP B   2       9.825  18.687   7.7610  0.00  0.00     0.000 C
ATOM     22  C3  BDP B   2       8.807  19.283   6.8160  0.00  0.00     0.000 C
ATOM     23  C4  BDP B   2       8.723  20.784   7.0810  0.00  0.00     0.000 C
ATOM     24  C5  BDP B   2      10.103  21.398   6.9460  0.00  0.00     0.000 C
ATOM     25  O5  BDP B   2      10.979  20.803   7.8840  0.00  0.00     0.000 O
ATOM     26   O  BDP B   2       9.994  17.315   7.4750  0.00  0.00     0.000 O
ATOM     28  HD  BDP B   2      10.820  17.562   7.5530  0.00  0.00     0.000 HD
ATOM     28   O  BDP B   2       7.543  18.630   7.0080  0.00  0.00     0.000 O
ATOM     30  HD  BDP B   2       8.369  18.877   7.0870  0.00  0.00     0.000 HD
BRANCH 24 30
ATOM     30   C  BDP B   2      10.094  22.862   7.2040  0.00  0.00     0.000 C
ATOM     31   O  BDP B   2      10.867  23.570   6.5190  0.00  0.00     0.000 OA
ATOM     32   O  BDP B   2       9.320  23.310   8.0980  0.00  0.00     0.000 OA
ENDBRANCH 24 30
BRANCH 20 33
ATOM     33  O3  NAG B   3      11.912  18.868   8.7190  0.00  0.00     0.000 O
BRANCH 33 36
ATOM     34  C1  NAG B   3      15.534  17.907   8.3900  0.00  0.00     0.000 C
ATOM     35  C2  NAG B   3      14.027  17.738   8.3800  0.00  0.00     0.000 C
ATOM     36  C3  NAG B   3      13.312  19.090   8.5300  0.00  0.00     0.000 C
ATOM     37  C4  NAG B   3      13.865  19.821   9.7510  0.00  0.00     0.000 C
ATOM     38  C5  NAG B   3      15.390  19.858   9.7000  0.00  0.00     0.000 C
ATOM     39  O5  NAG B   3      15.902  18.540   9.6080  0.00  0.00     0.000 O
ATOM     40   O  NAG B   3      13.356  21.164   9.7920  0.00  0.00     0.000 O
ATOM     42  HD  NAG B   3      14.200  21.351   9.8350  0.00  0.00     0.000 HD
ATOM     42   C  NAG B   3      16.035  20.457  10.9470  0.00  0.00     0.000 C
ATOM     43   O  NAG B   3      15.775  19.611  12.0740  0.00  0.00     0.000 O
ATOM     45  HD  NAG B   3      16.619  19.798  12.1180  0.00  0.00     0.000 HD
BRANCH 35 47
ATOM     45   N  NAG B   3      13.450  16.408   8.2370  0.00  0.00     0.000 N
ATOM     47  HD  NAG B   3      13.385  16.714   9.0440  0.00  0.00     0.000 HD
ATOM     47   C  NAG B   3      12.782  16.027   7.1660  0.00  0.00     0.000 C
ATOM     48   C  NAG B   3      12.237  14.630   7.1900  0.00  0.00     0.000 C
ATOM     49   O  NAG B   3      12.593  16.781   6.2140  0.00  0.00     0.000 OA
ENDBRANCH 35 47
BRANCH 34 50
ATOM     50  O4  BDP B   4      16.019  16.581   8.3580  0.00  0.00     0.000 O
BRANCH 50 54
ATOM     51  C1  BDP B   4      18.743  14.104   6.6280  0.00  0.00     0.000 C
ATOM     52  C2  BDP B   4      19.300  14.966   7.7570  0.00  0.00     0.000 C
ATOM     53  C3  BDP B   4      18.153  15.532   8.5370  0.00  0.00     0.000 C
ATOM     54  C4  BDP B   4      17.193  16.295   7.5800  0.00  0.00     0.000 C
ATOM     55  C5  BDP B   4      16.817  15.469   6.3570  0.00  0.00     0.000 C
ATOM     56  O5  BDP B   4      17.982  14.915   5.7530  0.00  0.00     0.000 O
ATOM     57   O  BDP B   4      20.109  14.188   8.6130  0.00  0.00     0.000 O
ATOM     59  HD  BDP B   4      20.921  14.399   8.3970  0.00  0.00     0.000 HD
ATOM     59   O  BDP B   4      18.708  16.487   9.4640  0.00  0.00     0.000 O
ATOM     61  HD  BDP B   4      19.520  16.698   9.2480  0.00  0.00     0.000 HD
BRANCH 55 61
ATOM     61   C  BDP B   4      16.108  16.358   5.3510  0.00  0.00     0.000 C
ATOM     62   O  BDP B   4      15.150  15.866   4.6990  0.00  0.00     0.000 OA
ATOM     63   O  BDP B   4      16.510  17.554   5.2170  0.00  0.00     0.000 OA
ENDBRANCH 55 61
BRANCH 51 64
ATOM     64  O3  NAG B   5      19.868  13.524   5.9400  0.00  0.00     0.000 O
BRANCH 64 67
ATOM     65  C1  NAG B   5      19.689  10.141   4.4850  0.00  0.00     0.000 C
ATOM     66  C2  NAG B   5      19.853  11.217   5.5440  0.00  0.00     0.000 C
ATOM     67  C3  NAG B   5      19.480  12.576   4.9650  0.00  0.00     0.000 C
ATOM     68  C4  NAG B   5      20.239  12.846   3.6590  0.00  0.00     0.000 C
ATOM     69  C5  NAG B   5      20.091  11.675   2.7000  0.00  0.00     0.000 C
ATOM     70  O5  NAG B   5      20.470  10.456   3.3550  0.00  0.00     0.000 O
ATOM     71   O  NAG B   5      19.746  14.040   3.0890  0.00  0.00     0.000 O
ATOM     73  HD  NAG B   5      20.589  14.175   2.9430  0.00  0.00     0.000 HD
ATOM     73   C  NAG B   5      20.922  11.801   1.4150  0.00  0.00     0.000 C
ATOM     74   O  NAG B   5      22.326  11.801   1.7460  0.00  0.00     0.000 O
ATOM     76  HD  NAG B   5      23.169  11.936   1.6000  0.00  0.00     0.000 HD
BRANCH 66 78
ATOM     76   N  NAG B   5      19.065  10.648   6.6540  0.00  0.00     0.000 N
ATOM     78  HD  NAG B   5      19.854  10.988   6.5410  0.00  0.00     0.000 HD
ATOM     78   C  NAG B   5      19.382  10.707   7.9580  0.00  0.00     0.000 C
ATOM     79   C  NAG B   5      18.366  10.048   8.8520  0.00  0.00     0.000 C
ATOM     80   O  NAG B   5      20.450  11.263   8.3980  0.00  0.00     0.000 OA
ENDBRANCH 66 78
BRANCH 65 81
ATOM     81  O4  BDP B   6      20.083   8.867   5.0110  0.00  0.00     0.000 O
BRANCH 81 85
ATOM     82  C1  BDP B   6      19.554   4.699   4.1710  0.00  0.00     0.000 C
ATOM     83  C2  BDP B   6      20.699   5.420   3.4660  0.00  0.00     0.000 C
ATOM     84  C3  BDP B   6      21.055   6.756   4.1240  0.00  0.00     0.000 C
ATOM     85  C4  BDP B   6      19.824   7.645   4.3170  0.00  0.00     0.000 C
ATOM     86  C5  BDP B   6      18.728   6.797   5.0050  0.00  0.00     0.000 C
ATOM     87  O5  BDP B   6      18.437   5.572   4.2580  0.00  0.00     0.000 O
ATOM     88   O  BDP B   6      21.813   4.536   3.5480  0.00  0.00     0.000 O
ATOM     90  HD  BDP B   6      22.666   4.550   3.7020  0.00  0.00     0.000 HD
ATOM     90   O  BDP B   6      22.051   7.424   3.3450  0.00  0.00     0.000 O
ATOM     92  HD  BDP B   6      22.903   7.437   3.4990  0.00  0.00     0.000 HD
BRANCH 86 92
ATOM     92   C  BDP B   6      17.412   7.536   5.0110  0.00  0.00     0.000 C
ATOM     93   O  BDP B   6      16.644   7.451   4.0060  0.00  0.00     0.000 OA
ATOM     94   O  BDP B   6      17.119   8.203   6.0510  0.00  0.00     0.000 OA
ENDBRANCH 86 92
BRANCH 82 95
ATOM     95  O3  NAG B   7      19.169   3.566   3.3680  0.00  0.00     0.000 O
BRANCH 95 98
ATOM     96  C1  NAG B   7      17.082   0.723   4.3200  0.00  0.00     0.000 C
ATOM     97  C2  NAG B   7      18.370   1.438   3.9340  0.00  0.00     0.000 C
ATOM     98  C3  NAG B   7      17.952   2.883   3.6680  0.00  0.00     0.000 C
ATOM     99  C4  NAG B   7      16.928   2.927   2.5360  0.00  0.00     0.000 C
ATOM    100  C5  NAG B   7      15.746   2.002   2.8330  0.00  0.00     0.000 C
ATOM    101  O5  NAG B   7      16.242   0.713   3.1600  0.00  0.00     0.000 O
BRANCH 97 104
ATOM    102   N  NAG B   7      19.387   1.458   4.9940  0.00  0.00     0.000 N
ATOM    104  HD  NAG B   7      19.914   1.723   5.6280  0.00  0.00     0.000 HD
ATOM    104   O  NAG B   7      21.458   1.280   5.8940  0.00  0.00     0.000 OA
ATOM    105   C  NAG B   7      20.698   1.160   4.9130  0.00  0.00     0.000 C
ATOM    106   C  NAG B   7      21.254   0.687   3.6130  0.00  0.00     0.000 C
ENDBRANCH 97 104
ATOM    107   O  NAG B   7      13.622   1.348   2.0820  0.00  0.00     0.000 O
ATOM    109  HD  NAG B   7      14.104   1.523   2.7800  0.00  0.00     0.000 HD
ATOM    109   O  NAG B   7      13.622   1.348   2.0820  0.00  0.00     0.000 O
ATOM    111  HD  NAG B   7      14.104   1.523   2.7800  0.00  0.00     0.000 HD
ENDBRANCH 95 98
ENDBRANCH 82 95
ENDBRANCH 81 85
ENDBRANCH 65 81
ENDBRANCH 64 67
ENDBRANCH 51 64
ENDBRANCH 50 54
ENDBRANCH 34 50
ENDBRANCH 33 36
ENDBRANCH 20 33
ENDBRANCH 19 23
ENDBRANCH 1 19
TORSDOF 19
ENDMDL
MODEL 11
REMARK VINA RESULT:      -6.4      8.212     13.925
ROOT
ATOM      1  C1  NAG B   1      17.781   6.077   4.7150  0.00  0.00     0.000 C
ATOM      2  C2  NAG B   1      18.389   6.322   3.3370  0.00  0.00     0.000 C
ATOM      3  C3  NAG B   1      17.690   5.518   2.2600  0.00  0.00     0.000 C
ATOM      4  C4  NAG B   1      17.807   4.061   2.6970  0.00  0.00     0.000 C
ATOM      5  C5  NAG B   1      17.058   3.871   4.0220  0.00  0.00     0.000 C
ATOM      6  O5  NAG B   1      17.629   4.692   5.0650  0.00  0.00     0.000 O
ATOM      7   O  NAG B   1      18.286   5.715   0.9580  0.00  0.00     0.000 O
ATOM      9  HD  NAG B   1      18.373   6.496   1.3240  0.00  0.00     0.000 HD
ATOM      9   O  NAG B   1      17.255   3.209   1.7070  0.00  0.00     0.000 O
ATOM     11  HD  NAG B   1      17.343   3.989   2.0730  0.00  0.00     0.000 HD
ATOM     11   C  NAG B   1      17.047   2.387   4.4100  0.00  0.00     0.000 C
ATOM     12   O  NAG B   1      16.987   2.222   5.8250  0.00  0.00     0.000 O
ATOM     14  HD  NAG B   1      17.075   3.002   6.1910  0.00  0.00     0.000 HD
ENDROOT
BRANCH 2 16
ATOM     14   N  NAG B   1      18.423   7.706   2.8320  0.00  0.00     0.000 N
ATOM     16  HD  NAG B   1      18.376   8.533   3.0840  0.00  0.00     0.000 HD
ATOM     16   C  NAG B   1      19.514   8.487   2.9010  0.00  0.00     0.000 C
ATOM     17   C  NAG B   1      20.773   7.965   3.5420  0.00  0.00     0.000 C
ATOM     18   O  NAG B   1      19.519   9.621   2.4240  0.00  0.00     0.000 OA
ENDBRANCH 2 16
BRANCH 1 19
ATOM     19  O4  BDP B   2      18.764   6.597   5.6000  0.00  0.00     0.000 O
BRANCH 19 23
ATOM     20  C1  BDP B   2      16.172   7.448   8.6830  0.00  0.00     0.000 C
ATOM     21  C2  BDP B   2      16.313   8.508   7.6100  0.00  0.00     0.000 C
ATOM     22  C3  BDP B   2      16.934   7.939   6.3550  0.00  0.00     0.000 C
ATOM     23  C4  BDP B   2      18.243   7.251   6.7330  0.00  0.00     0.000 C
ATOM     24  C5  BDP B   2      17.976   6.208   7.8000  0.00  0.00     0.000 C
ATOM     25  O5  BDP B   2      17.425   6.832   8.9440  0.00  0.00     0.000 O
ATOM     26   O  BDP B   2      15.054   9.068   7.3060  0.00  0.00     0.000 O
ATOM     28  HD  BDP B   2      14.859   8.624   8.0240  0.00  0.00     0.000 HD
ATOM     28   O  BDP B   2      17.134   8.996   5.4040  0.00  0.00     0.000 O
ATOM     30  HD  BDP B   2      16.940   8.552   6.1220  0.00  0.00     0.000 HD
BRANCH 24 30
ATOM     30   C  BDP B   2      19.216   5.506   8.2230  0.00  0.00     0.000 C
ATOM     31   O  BDP B   2      19.235   4.259   8.1150  0.00  0.00     0.000 OA
ATOM     32   O  BDP B   2      20.174   6.197   8.6730  0.00  0.00     0.000 OA
ENDBRANCH 24 30
BRANCH 20 33
ATOM     33  O3  NAG B   3      15.764   8.167   9.8210  0.00  0.00     0.000 O
BRANCH 33 36
ATOM     34  C1  NAG B   3      13.110   7.386  12.3700  0.00  0.00     0.000 C
ATOM     35  C2  NAG B   3      13.808   8.131  11.2480  0.00  0.00     0.000 C
ATOM     36  C3  NAG B   3      15.023   7.347  10.7280  0.00  0.00     0.000 C
ATOM     37  C4  NAG B   3      15.923   6.971  11.9020  0.00  0.00     0.000 C
ATOM     38  C5  NAG B   3      15.103   6.307  13.0050  0.00  0.00     0.000 C
ATOM     39  O5  NAG B   3      14.051   7.166  13.4100  0.00  0.00     0.000 O
ATOM     40   O  NAG B   3      16.952   6.071  11.4640  0.00  0.00     0.000 O
ATOM     42  HD  NAG B   3      16.636   5.590  12.1110  0.00  0.00     0.000 HD
ATOM     42   C  NAG B   3      15.899   6.014  14.2750  0.00  0.00     0.000 C
ATOM     43   O  NAG B   3      16.306   7.248  14.8800  0.00  0.00     0.000 O
ATOM     45  HD  NAG B   3      15.989   6.767  15.5280  0.00  0.00     0.000 HD
BRANCH 35 47
ATOM     45   N  NAG B   3      13.399   9.440  10.7540  0.00  0.00     0.000 N
ATOM     47  HD  NAG B   3      14.177   9.455  11.1340  0.00  0.00     0.000 HD
ATOM     47   C  NAG B   3      12.743   9.607   9.6230  0.00  0.00     0.000 C
ATOM     48   C  NAG B   3      12.416  11.023   9.2520  0.00  0.00     0.000 C
ATOM     49   O  NAG B   3      12.440   8.660   8.9010  0.00  0.00     0.000 OA
ENDBRANCH 35 47
BRANCH 34 50
ATOM     50  O4  BDP B   4      12.108   8.286  12.7950  0.00  0.00     0.000 O
BRANCH 50 54
ATOM     51  C1  BDP B   4       9.081   8.323  15.5130  0.00  0.00     0.000 C
ATOM     52  C2  BDP B   4      10.087   7.194  15.7030  0.00  0.00     0.000 C
ATOM     53  C3  BDP B   4      11.315   7.506  14.9050  0.00  0.00     0.000 C
ATOM     54  C4  BDP B   4      10.926   7.757  13.4190  0.00  0.00     0.000 C
ATOM     55  C5  BDP B   4       9.777   8.746  13.2800  0.00  0.00     0.000 C
ATOM     56  O5  BDP B   4       8.706   8.391  14.1490  0.00  0.00     0.000 O
ATOM     57   O  BDP B   4      10.433   7.071  17.0660  0.00  0.00     0.000 O
ATOM     59  HD  BDP B   4       9.991   6.379  17.3420  0.00  0.00     0.000 HD
ATOM     59   O  BDP B   4      12.156   6.335  14.9530  0.00  0.00     0.000 O
ATOM     61  HD  BDP B   4      11.714   5.644  15.2290  0.00  0.00     0.000 HD
BRANCH 55 61
ATOM     61   C  BDP B   4       9.280   8.738  11.8450  0.00  0.00     0.000 C
ATOM     62   O  BDP B   4       9.662   9.664  11.0820  0.00  0.00     0.000 OA
ATOM     63   O  BDP B   4       8.507   7.799  11.4830  0.00  0.00     0.000 OA
ENDBRANCH 55 61
BRANCH 51 64
ATOM     64  O3  NAG B   5       7.941   8.025  16.3420  0.00  0.00     0.000 O
BRANCH 64 67
ATOM     65  C1  NAG B   5       6.338  10.631  18.3990  0.00  0.00     0.000 C
ATOM     66  C2  NAG B   5       7.349   9.570  17.9970  0.00  0.00     0.000 C
ATOM     67  C3  NAG B   5       7.111   9.150  16.5520  0.00  0.00     0.000 C
ATOM     68  C4  NAG B   5       5.646   8.753  16.3270  0.00  0.00     0.000 C
ATOM     69  C5  NAG B   5       4.710   9.834  16.8450  0.00  0.00     0.000 C
ATOM     70  O5  NAG B   5       5.029  10.144  18.2090  0.00  0.00     0.000 O
ATOM     71   O  NAG B   5       5.446   8.521  14.9490  0.00  0.00     0.000 O
ATOM     73  HD  NAG B   5       4.991   7.849  15.2510  0.00  0.00     0.000 HD
ATOM     73   C  NAG B   5       3.221   9.467  16.7780  0.00  0.00     0.000 C
ATOM     74   O  NAG B   5       2.961   8.343  17.6440  0.00  0.00     0.000 O
ATOM     76  HD  NAG B   5       2.505   7.671  17.9460  0.00  0.00     0.000 HD
BRANCH 66 78
ATOM     76   N  NAG B   5       8.672  10.178  18.2370  0.00  0.00     0.000 N
ATOM     78  HD  NAG B   5       8.222   9.497  18.5250  0.00  0.00     0.000 HD
ATOM     78   C  NAG B   5       9.683   9.622  18.9230  0.00  0.00     0.000 C
ATOM     79   C  NAG B   5      10.915  10.483  18.9780  0.00  0.00     0.000 C
ATOM     80   O  NAG B   5       9.602   8.472  19.4850  0.00  0.00     0.000 OA
ENDBRANCH 66 78
BRANCH 65 81
ATOM     81  O4  BDP B   6       6.528  10.996  19.7730  0.00  0.00     0.000 O
BRANCH 81 85
ATOM     82  C1  BDP B   6       5.910  14.385  22.3210  0.00  0.00     0.000 C
ATOM     83  C2  BDP B   6       4.785  13.357  22.2300  0.00  0.00     0.000 C
ATOM     84  C3  BDP B   6       5.248  12.020  21.6430  0.00  0.00     0.000 C
ATOM     85  C4  BDP B   6       5.992  12.203  20.3190  0.00  0.00     0.000 C
ATOM     86  C5  BDP B   6       7.076  13.288  20.5290  0.00  0.00     0.000 C
ATOM     87  O5  BDP B   6       6.508  14.535  21.0420  0.00  0.00     0.000 O
ATOM     88   O  BDP B   6       4.339  13.161  23.5690  0.00  0.00     0.000 O
ATOM     90  HD  BDP B   6       4.096  12.526  24.1050  0.00  0.00     0.000 HD
ATOM     90   O  BDP B   6       4.123  11.152  21.4830  0.00  0.00     0.000 O
ATOM     92  HD  BDP B   6       3.880  10.517  22.0190  0.00  0.00     0.000 HD
BRANCH 86 92
ATOM     92   C  BDP B   6       7.688  13.688  19.2080  0.00  0.00     0.000 C
ATOM     93   O  BDP B   6       7.061  14.482  18.4450  0.00  0.00     0.000 OA
ATOM     94   O  BDP B   6       8.835  13.219  18.9280  0.00  0.00     0.000 OA
ENDBRANCH 86 92
BRANCH 82 95
ATOM     95  O3  NAG B   7       5.335  15.653  22.6930  0.00  0.00     0.000 O
BRANCH 95 98
ATOM     96  C1  NAG B   7       5.918  18.172  25.2720  0.00  0.00     0.000 C
ATOM     97  C2  NAG B   7       5.090  17.252  24.3870  0.00  0.00     0.000 C
ATOM     98  C3  NAG B   7       6.105  16.562  23.4790  0.00  0.00     0.000 C
ATOM     99  C4  NAG B   7       6.856  17.604  22.6540  0.00  0.00     0.000 C
ATOM    100  C5  NAG B   7       7.480  18.669  23.5560  0.00  0.00     0.000 C
ATOM    101  O5  NAG B   7       6.480  19.180  24.4240  0.00  0.00     0.000 O
BRANCH 97 104
ATOM    102   N  NAG B   7       4.389  16.118  25.0050  0.00  0.00     0.000 N
ATOM    104  HD  NAG B   7       4.100  15.319  25.1770  0.00  0.00     0.000 HD
ATOM    104   O  NAG B   7       2.610  14.880  25.6620  0.00  0.00     0.000 OA
ATOM    105   C  NAG B   7       3.066  15.930  25.1680  0.00  0.00     0.000 C
ATOM    106   C  NAG B   7       2.123  16.999  24.7330  0.00  0.00     0.000 C
ENDBRANCH 97 104
ATOM    107   O  NAG B   7       8.905  20.533  23.5770  0.00  0.00     0.000 O
ATOM    109  HD  NAG B   7       8.668  19.818  24.0040  0.00  0.00     0.000 HD
ATOM    109   O  NAG B   7       8.905  20.533  23.5770  0.00  0.00     0.000 O
ATOM    111  HD  NAG B   7       8.668  19.818  24.0040  0.00  0.00     0.000 HD
ENDBRANCH 95 98
ENDBRANCH 82 95
ENDBRANCH 81 85
ENDBRANCH 65 81
ENDBRANCH 64 67
ENDBRANCH 51 64
ENDBRANCH 50 54
ENDBRANCH 34 50
ENDBRANCH 33 36
ENDBRANCH 20 33
ENDBRANCH 19 23
ENDBRANCH 1 19
TORSDOF 19
ENDMDL
MODEL 12
REMARK VINA RESULT:      -6.4      2.037      3.153
ROOT
ATOM      1  C1  NAG B   1       9.397   4.128  17.1540  0.00  0.00     0.000 C
ATOM      2  C2  NAG B   1       8.531   3.183  17.9820  0.00  0.00     0.000 C
ATOM      3  C3  NAG B   1       7.332   3.892  18.5780  0.00  0.00     0.000 C
ATOM      4  C4  NAG B   1       7.906   5.034  19.4110  0.00  0.00     0.000 C
ATOM      5  C5  NAG B   1       8.648   6.007  18.4860  0.00  0.00     0.000 C
ATOM      6  O5  NAG B   1       9.748   5.353  17.8160  0.00  0.00     0.000 O
ATOM      7   O  NAG B   1       6.528   3.011  19.3960  0.00  0.00     0.000 O
ATOM      9  HD  NAG B   1       6.806   2.482  18.7690  0.00  0.00     0.000 HD
ATOM      9   O  NAG B   1       6.864   5.715  20.0890  0.00  0.00     0.000 O
ATOM     11  HD  NAG B   1       7.142   5.186  19.4620  0.00  0.00     0.000 HD
ATOM     11   C  NAG B   1       9.115   7.232  19.2820  0.00  0.00     0.000 C
ATOM     12   O  NAG B   1      10.294   7.800  18.7130  0.00  0.00     0.000 O
ATOM     14  HD  NAG B   1      10.572   7.271  18.0870  0.00  0.00     0.000 HD
ENDROOT
BRANCH 2 16
ATOM     14   N  NAG B   1       8.310   2.042  17.0750  0.00  0.00     0.000 N
ATOM     16  HD  NAG B   1       8.721   1.491  16.5480  0.00  0.00     0.000 HD
ATOM     16   C  NAG B   1       8.543   0.766  17.4280  0.00  0.00     0.000 C
ATOM     17   C  NAG B   1       9.080   0.453  18.8000  0.00  0.00     0.000 C
ATOM     18   O  NAG B   1       8.299  -0.164  16.6600  0.00  0.00     0.000 OA
ENDBRANCH 2 16
BRANCH 1 19
ATOM     19  O4  BDP B   2      10.610   3.405  17.0000  0.00  0.00     0.000 O
BRANCH 19 23
ATOM     20  C1  BDP B   2      12.153   5.749  13.9890  0.00  0.00     0.000 C
ATOM     21  C2  BDP B   2      11.207   4.644  13.5650  0.00  0.00     0.000 C
ATOM     22  C3  BDP B   2      10.395   4.139  14.7350  0.00  0.00     0.000 C
ATOM     23  C4  BDP B   2      11.354   3.746  15.8550  0.00  0.00     0.000 C
ATOM     24  C5  BDP B   2      12.238   4.929  16.2010  0.00  0.00     0.000 C
ATOM     25  O5  BDP B   2      12.980   5.315  15.0600  0.00  0.00     0.000 O
ATOM     26   O  BDP B   2      10.342   5.104  12.5490  0.00  0.00     0.000 O
ATOM     28  HD  BDP B   2      10.917   5.751  12.5710  0.00  0.00     0.000 HD
ATOM     28   O  BDP B   2       9.585   3.033  14.3070  0.00  0.00     0.000 O
ATOM     30  HD  BDP B   2      10.159   3.680  14.3290  0.00  0.00     0.000 HD
BRANCH 24 30
ATOM     30   C  BDP B   2      13.207   4.610  17.2810  0.00  0.00     0.000 C
ATOM     31   O  BDP B   2      14.033   3.695  17.0600  0.00  0.00     0.000 OA
ATOM     32   O  BDP B   2      13.143   5.266  18.3600  0.00  0.00     0.000 OA
ENDBRANCH 24 30
BRANCH 20 33
ATOM     33  O3  NAG B   3      12.949   5.971  12.8510  0.00  0.00     0.000 O
BRANCH 33 36
ATOM     34  C1  NAG B   3      14.505   9.354  12.3130  0.00  0.00     0.000 C
ATOM     35  C2  NAG B   3      13.437   8.277  12.2950  0.00  0.00     0.000 C
ATOM     36  C3  NAG B   3      13.891   7.025  13.0620  0.00  0.00     0.000 C
ATOM     37  C4  NAG B   3      15.256   6.581  12.5400  0.00  0.00     0.000 C
ATOM     38  C5  NAG B   3      16.225   7.760  12.5220  0.00  0.00     0.000 C
ATOM     39  O5  NAG B   3      15.688   8.815  11.7420  0.00  0.00     0.000 O
ATOM     40   O  NAG B   3      15.785   5.540  13.3760  0.00  0.00     0.000 O
ATOM     42  HD  NAG B   3      16.458   6.084  13.4140  0.00  0.00     0.000 HD
ATOM     42   C  NAG B   3      17.577   7.437  11.8920  0.00  0.00     0.000 C
ATOM     43   O  NAG B   3      17.401   7.149  10.4990  0.00  0.00     0.000 O
ATOM     45  HD  NAG B   3      18.074   7.693  10.5380  0.00  0.00     0.000 HD
BRANCH 35 47
ATOM     45   N  NAG B   3      12.206   8.901  12.7640  0.00  0.00     0.000 N
ATOM     47  HD  NAG B   3      12.880   9.445  12.7730  0.00  0.00     0.000 HD
ATOM     47   C  NAG B   3      11.026   8.647  12.2340  0.00  0.00     0.000 C
ATOM     48   C  NAG B   3       9.864   9.391  12.8230  0.00  0.00     0.000 C
ATOM     49   O  NAG B   3      10.888   7.867  11.2940  0.00  0.00     0.000 OA
ENDBRANCH 35 47
BRANCH 34 50
ATOM     50  O4  BDP B   4      13.974  10.365  11.4820  0.00  0.00     0.000 O
BRANCH 50 54
ATOM     51  C1  BDP B   4      13.636  14.402  11.1110  0.00  0.00     0.000 C
ATOM     52  C2  BDP B   4      14.810  13.794  10.3520  0.00  0.00     0.000 C
ATOM     53  C3  BDP B   4      14.606  12.313  10.2600  0.00  0.00     0.000 C
ATOM     54  C4  BDP B   4      14.406  11.721  11.6850  0.00  0.00     0.000 C
ATOM     55  C5  BDP B   4      13.361  12.484  12.4880  0.00  0.00     0.000 C
ATOM     56  O5  BDP B   4      13.614  13.885  12.4290  0.00  0.00     0.000 O
ATOM     57   O  BDP B   4      14.887  14.337   9.0510  0.00  0.00     0.000 O
ATOM     59  HD  BDP B   4      15.538  14.906   9.0910  0.00  0.00     0.000 HD
ATOM     59   O  BDP B   4      15.818  11.755   9.7130  0.00  0.00     0.000 O
ATOM     61  HD  BDP B   4      16.470  12.324   9.7520  0.00  0.00     0.000 HD
BRANCH 55 61
ATOM     61   C  BDP B   4      13.411  12.028  13.9350  0.00  0.00     0.000 C
ATOM     62   O  BDP B   4      14.448  12.286  14.6010  0.00  0.00     0.000 OA
ATOM     63   O  BDP B   4      12.406  11.411  14.4050  0.00  0.00     0.000 OA
ENDBRANCH 55 61
BRANCH 51 64
ATOM     64  O3  NAG B   5      13.831  15.830  11.1260  0.00  0.00     0.000 O
BRANCH 64 67
ATOM     65  C1  NAG B   5      11.558  18.588  10.2230  0.00  0.00     0.000 C
ATOM     66  C2  NAG B   5      12.719  17.617  10.1020  0.00  0.00     0.000 C
ATOM     67  C3  NAG B   5      12.612  16.544  11.1780  0.00  0.00     0.000 C
ATOM     68  C4  NAG B   5      12.447  17.173  12.5690  0.00  0.00     0.000 C
ATOM     69  C5  NAG B   5      11.323  18.197  12.5670  0.00  0.00     0.000 C
ATOM     70  O5  NAG B   5      11.533  19.150  11.5150  0.00  0.00     0.000 O
ATOM     71   O  NAG B   5      12.200  16.144  13.5030  0.00  0.00     0.000 O
ATOM     73  HD  NAG B   5      12.752  16.610  13.9810  0.00  0.00     0.000 HD
ATOM     73   C  NAG B   5      11.169  18.969  13.8840  0.00  0.00     0.000 C
ATOM     74   O  NAG B   5      12.353  19.758  14.1230  0.00  0.00     0.000 O
ATOM     76  HD  NAG B   5      12.905  20.225  14.6010  0.00  0.00     0.000 HD
BRANCH 66 78
ATOM     76   N  NAG B   5      12.633  17.235   8.6800  0.00  0.00     0.000 N
ATOM     78  HD  NAG B   5      13.241  17.519   9.2270  0.00  0.00     0.000 HD
ATOM     78   C  NAG B   5      13.670  17.046   7.8490  0.00  0.00     0.000 C
ATOM     79   C  NAG B   5      13.259  16.643   6.4590  0.00  0.00     0.000 C
ATOM     80   O  NAG B   5      14.892  17.203   8.2030  0.00  0.00     0.000 OA
ENDBRANCH 66 78
BRANCH 65 81
ATOM     81  O4  BDP B   6      11.680  19.627   9.2420  0.00  0.00     0.000 O
BRANCH 81 85
ATOM     82  C1  BDP B   6       9.328  22.722   7.4390  0.00  0.00     0.000 C
ATOM     83  C2  BDP B   6       9.931  23.004   8.8120  0.00  0.00     0.000 C
ATOM     84  C3  BDP B   6      11.059  22.034   9.1770  0.00  0.00     0.000 C
ATOM     85  C4  BDP B   6      10.636  20.574   9.0040  0.00  0.00     0.000 C
ATOM     86  C5  BDP B   6      10.012  20.423   7.5960  0.00  0.00     0.000 C
ATOM     87  O5  BDP B   6       8.912  21.365   7.3830  0.00  0.00     0.000 O
ATOM     88   O  BDP B   6      10.448  24.329   8.7360  0.00  0.00     0.000 O
ATOM     90  HD  BDP B   6      11.141  24.790   8.9750  0.00  0.00     0.000 HD
ATOM     90   O  BDP B   6      11.493  22.287  10.5160  0.00  0.00     0.000 O
ATOM     92  HD  BDP B   6      12.186  22.748  10.7550  0.00  0.00     0.000 HD
BRANCH 86 92
ATOM     92   C  BDP B   6       9.360  19.069   7.4480  0.00  0.00     0.000 C
ATOM     93   O  BDP B   6       8.134  18.932   7.7390  0.00  0.00     0.000 OA
ATOM     94   O  BDP B   6      10.078  18.118   7.0080  0.00  0.00     0.000 OA
ENDBRANCH 86 92
BRANCH 82 95
ATOM     95  O3  NAG B   7       8.159  23.550   7.2780  0.00  0.00     0.000 O
BRANCH 95 98
ATOM     96  C1  NAG B   7       6.903  25.918   4.7970  0.00  0.00     0.000 C
ATOM     97  C2  NAG B   7       7.218  25.400   6.1940  0.00  0.00     0.000 C
ATOM     98  C3  NAG B   7       7.807  24.008   5.9730  0.00  0.00     0.000 C
ATOM     99  C4  NAG B   7       6.787  23.120   5.2640  0.00  0.00     0.000 C
ATOM    100  C5  NAG B   7       6.293  23.777   3.9750  0.00  0.00     0.000 C
ATOM    101  O5  NAG B   7       5.857  25.096   4.2690  0.00  0.00     0.000 O
BRANCH 97 104
ATOM    102   N  NAG B   7       8.257  26.103   6.9590  0.00  0.00     0.000 N
ATOM    104  HD  NAG B   7       8.973  26.276   7.4140  0.00  0.00     0.000 HD
ATOM    104   O  NAG B   7       9.131  27.280   8.6860  0.00  0.00     0.000 OA
ATOM    105   C  NAG B   7       8.140  26.780   8.1180  0.00  0.00     0.000 C
ATOM    106   C  NAG B   7       6.794  26.922   8.7420  0.00  0.00     0.000 C
ENDBRANCH 97 104
ATOM    107   O  NAG B   7       4.994  23.431   2.0530  0.00  0.00     0.000 O
ATOM    109  HD  NAG B   7       5.721  23.786   2.3620  0.00  0.00     0.000 HD
ATOM    109   O  NAG B   7       4.994  23.431   2.0530  0.00  0.00     0.000 O
ATOM    111  HD  NAG B   7       5.721  23.786   2.3620  0.00  0.00     0.000 HD
ENDBRANCH 95 98
ENDBRANCH 82 95
ENDBRANCH 81 85
ENDBRANCH 65 81
ENDBRANCH 64 67
ENDBRANCH 51 64
ENDBRANCH 50 54
ENDBRANCH 34 50
ENDBRANCH 33 36
ENDBRANCH 20 33
ENDBRANCH 19 23
ENDBRANCH 1 19
TORSDOF 19
ENDMDL
MODEL 13
REMARK VINA RESULT:      -6.3      9.179     14.718
ROOT
ATOM      1  C1  NAG B   1      19.136   5.611   3.5920  0.00  0.00     0.000 C
ATOM      2  C2  NAG B   1      18.472   5.193   2.2830  0.00  0.00     0.000 C
ATOM      3  C3  NAG B   1      19.262   5.655   1.0770  0.00  0.00     0.000 C
ATOM      4  C4  NAG B   1      19.370   7.171   1.2160  0.00  0.00     0.000 C
ATOM      5  C5  NAG B   1      20.163   7.504   2.4850  0.00  0.00     0.000 C
ATOM      6  O5  NAG B   1      19.498   6.999   3.6630  0.00  0.00     0.000 O
ATOM      7   O  NAG B   1      18.619   5.296  -0.1670  0.00  0.00     0.000 O
ATOM      9  HD  NAG B   1      18.424   4.625   0.3440  0.00  0.00     0.000 HD
ATOM      9   O  NAG B   1      20.022   7.719   0.0830  0.00  0.00     0.000 O
ATOM     11  HD  NAG B   1      19.827   7.048   0.5950  0.00  0.00     0.000 HD
ATOM     11   C  NAG B   1      20.401   9.017   2.5720  0.00  0.00     0.000 C
ATOM     12   O  NAG B   1      20.512   9.447   3.9280  0.00  0.00     0.000 O
ATOM     14  HD  NAG B   1      20.317   8.775   4.4390  0.00  0.00     0.000 HD
ENDROOT
BRANCH 2 16
ATOM     14   N  NAG B   1      17.306   4.409   2.7300  0.00  0.00     0.000 N
ATOM     16  HD  NAG B   1      16.504   4.176   2.5020  0.00  0.00     0.000 HD
ATOM     16   C  NAG B   1      17.031   3.175   2.2720  0.00  0.00     0.000 C
ATOM     17   C  NAG B   1      17.920   2.544   1.2330  0.00  0.00     0.000 C
ATOM     18   O  NAG B   1      16.076   2.532   2.7050  0.00  0.00     0.000 OA
ENDBRANCH 2 16
BRANCH 1 19
ATOM     19  O4  BDP B   2      18.104   5.426   4.5520  0.00  0.00     0.000 O
BRANCH 19 23
ATOM     20  C1  BDP B   2      17.011   7.213   8.0950  0.00  0.00     0.000 C
ATOM     21  C2  BDP B   2      16.800   8.029   6.8370  0.00  0.00     0.000 C
ATOM     22  C3  BDP B   2      16.831   7.154   5.6050  0.00  0.00     0.000 C
ATOM     23  C4  BDP B   2      18.125   6.346   5.6180  0.00  0.00     0.000 C
ATOM     24  C5  BDP B   2      18.219   5.565   6.9140  0.00  0.00     0.000 C
ATOM     25  O5  BDP B   2      18.214   6.462   8.0080  0.00  0.00     0.000 O
ATOM     26   O  BDP B   2      15.571   8.719   6.9010  0.00  0.00     0.000 O
ATOM     28  HD  BDP B   2      15.641   8.446   7.7200  0.00  0.00     0.000 HD
ATOM     28   O  BDP B   2      16.721   7.980   4.4350  0.00  0.00     0.000 O
ATOM     30  HD  BDP B   2      16.792   7.707   5.2540  0.00  0.00     0.000 HD
BRANCH 24 30
ATOM     30   C  BDP B   2      19.467   4.762   6.9970  0.00  0.00     0.000 C
ATOM     31   O  BDP B   2      20.516   5.363   7.3270  0.00  0.00     0.000 OA
ATOM     32   O  BDP B   2      19.408   3.529   6.7250  0.00  0.00     0.000 OA
ENDBRANCH 24 30
BRANCH 20 33
ATOM     33  O3  NAG B   3      17.142   8.180   9.1100  0.00  0.00     0.000 O
BRANCH 33 36
ATOM     34  C1  NAG B   3      16.522   7.351  12.7260  0.00  0.00     0.000 C
ATOM     35  C2  NAG B   3      16.205   7.780  11.3060  0.00  0.00     0.000 C
ATOM     36  C3  NAG B   3      17.414   7.581  10.3790  0.00  0.00     0.000 C
ATOM     37  C4  NAG B   3      18.638   8.256  10.9920  0.00  0.00     0.000 C
ATOM     38  C5  NAG B   3      18.812   7.819  12.4440  0.00  0.00     0.000 C
ATOM     39  O5  NAG B   3      17.635   8.107  13.1800  0.00  0.00     0.000 O
ATOM     40   O  NAG B   3      19.815   7.911  10.2450  0.00  0.00     0.000 O
ATOM     42  HD  NAG B   3      20.091   7.669  11.0300  0.00  0.00     0.000 HD
ATOM     42   C  NAG B   3      19.937   8.545  13.1770  0.00  0.00     0.000 C
ATOM     43   O  NAG B   3      19.609   9.934  13.3010  0.00  0.00     0.000 O
ATOM     45  HD  NAG B   3      19.886   9.692  14.0860  0.00  0.00     0.000 HD
BRANCH 35 47
ATOM     45   N  NAG B   3      14.897   8.317  10.9510  0.00  0.00     0.000 N
ATOM     47  HD  NAG B   3      15.519   8.920  10.9430  0.00  0.00     0.000 HD
ATOM     47   C  NAG B   3      14.023   7.653  10.2210  0.00  0.00     0.000 C
ATOM     48   C  NAG B   3      12.732   8.359   9.9310  0.00  0.00     0.000 C
ATOM     49   O  NAG B   3      14.262   6.531   9.7800  0.00  0.00     0.000 OA
ENDBRANCH 35 47
BRANCH 34 50
ATOM     50  O4  BDP B   4      15.360   7.704  13.4480  0.00  0.00     0.000 O
BRANCH 50 54
ATOM     51  C1  BDP B   4      12.813   6.556  16.4060  0.00  0.00     0.000 C
ATOM     52  C2  BDP B   4      14.229   6.870  16.8780  0.00  0.00     0.000 C
ATOM     53  C3  BDP B   4      14.939   7.622  15.7950  0.00  0.00     0.000 C
ATOM     54  C4  BDP B   4      14.885   6.809  14.4690  0.00  0.00     0.000 C
ATOM     55  C5  BDP B   4      13.476   6.341  14.1330  0.00  0.00     0.000 C
ATOM     56  O5  BDP B   4      12.875   5.718  15.2660  0.00  0.00     0.000 O
ATOM     57   O  BDP B   4      14.192   7.658  18.0480  0.00  0.00     0.000 O
ATOM     59  HD  BDP B   4      14.375   7.106  18.6890  0.00  0.00     0.000 HD
ATOM     59   O  BDP B   4      16.321   7.729  16.1950  0.00  0.00     0.000 O
ATOM     61  HD  BDP B   4      16.504   7.177  16.8360  0.00  0.00     0.000 HD
BRANCH 55 61
ATOM     61   C  BDP B   4      13.539   5.343  12.9900  0.00  0.00     0.000 C
ATOM     62   O  BDP B   4      14.546   4.592  12.9160  0.00  0.00     0.000 OA
ATOM     63   O  BDP B   4      12.574   5.312  12.1670  0.00  0.00     0.000 OA
ENDBRANCH 55 61
BRANCH 51 64
ATOM     64  O3  NAG B   5      12.139   5.891  17.4920  0.00  0.00     0.000 O
BRANCH 64 67
ATOM     65  C1  NAG B   5       8.565   6.432  18.2200  0.00  0.00     0.000 C
ATOM     66  C2  NAG B   5      10.063   6.685  18.2270  0.00  0.00     0.000 C
ATOM     67  C3  NAG B   5      10.753   5.734  17.2570  0.00  0.00     0.000 C
ATOM     68  C4  NAG B   5      10.351   4.279  17.5310  0.00  0.00     0.000 C
ATOM     69  C5  NAG B   5       8.837   4.143  17.5980  0.00  0.00     0.000 C
ATOM     70  O5  NAG B   5       8.303   5.085  18.5400  0.00  0.00     0.000 O
ATOM     71   O  NAG B   5      10.893   3.461  16.5170  0.00  0.00     0.000 O
ATOM     73  HD  NAG B   5      11.064   2.945  17.1910  0.00  0.00     0.000 HD
ATOM     73   C  NAG B   5       8.345   2.744  17.9950  0.00  0.00     0.000 C
ATOM     74   O  NAG B   5       8.777   2.442  19.3380  0.00  0.00     0.000 O
ATOM     76  HD  NAG B   5       8.948   1.927  20.0120  0.00  0.00     0.000 HD
BRANCH 66 78
ATOM     76   N  NAG B   5      10.106   8.141  17.9920  0.00  0.00     0.000 N
ATOM     78  HD  NAG B   5      10.453   7.575  18.5480  0.00  0.00     0.000 HD
ATOM     78   C  NAG B   5      10.959   9.007  18.5620  0.00  0.00     0.000 C
ATOM     79   C  NAG B   5      10.765  10.428  18.1050  0.00  0.00     0.000 C
ATOM     80   O  NAG B   5      11.847   8.659  19.4190  0.00  0.00     0.000 OA
ENDBRANCH 66 78
BRANCH 65 81
ATOM     81  O4  BDP B   6       7.916   7.292  19.1650  0.00  0.00     0.000 O
BRANCH 81 85
ATOM     82  C1  BDP B   6       4.025   8.872  20.0180  0.00  0.00     0.000 C
ATOM     83  C2  BDP B   6       4.336   7.460  20.5070  0.00  0.00     0.000 C
ATOM     84  C3  BDP B   6       5.836   7.152  20.5210  0.00  0.00     0.000 C
ATOM     85  C4  BDP B   6       6.498   7.474  19.1800  0.00  0.00     0.000 C
ATOM     86  C5  BDP B   6       6.082   8.908  18.7750  0.00  0.00     0.000 C
ATOM     87  O5  BDP B   6       4.627   9.066  18.7460  0.00  0.00     0.000 O
ATOM     88   O  BDP B   6       3.824   7.397  21.8360  0.00  0.00     0.000 O
ATOM     90  HD  BDP B   6       4.036   7.094  22.6190  0.00  0.00     0.000 HD
ATOM     90   O  BDP B   6       6.041   5.783  20.8790  0.00  0.00     0.000 O
ATOM     92  HD  BDP B   6       6.253   5.481  21.6630  0.00  0.00     0.000 HD
BRANCH 86 92
ATOM     92   C  BDP B   6       6.505   9.201  17.3560  0.00  0.00     0.000 C
ATOM     93   O  BDP B   6       7.616   9.773  17.1410  0.00  0.00     0.000 OA
ATOM     94   O  BDP B   6       5.723   8.835  16.4240  0.00  0.00     0.000 OA
ENDBRANCH 86 92
BRANCH 82 95
ATOM     95  O3  NAG B   7       2.598   8.991  19.8540  0.00  0.00     0.000 O
BRANCH 95 98
ATOM     96  C1  NAG B   7       0.380  11.847  19.3390  0.00  0.00     0.000 C
ATOM     97  C2  NAG B   7       0.903  10.597  20.0340  0.00  0.00     0.000 C
ATOM     98  C3  NAG B   7       2.069  10.125  19.1680  0.00  0.00     0.000 C
ATOM     99  C4  NAG B   7       1.575   9.815  17.7570  0.00  0.00     0.000 C
ATOM    100  C5  NAG B   7       0.829  11.011  17.1650  0.00  0.00     0.000 C
ATOM    101  O5  NAG B   7      -0.168  11.432  18.0830  0.00  0.00     0.000 O
BRANCH 97 104
ATOM    102   N  NAG B   7       1.425  10.833  21.3880  0.00  0.00     0.000 N
ATOM    104  HD  NAG B   7       1.961  10.931  22.0610  0.00  0.00     0.000 HD
ATOM    104   O  NAG B   7       1.735  10.437  23.5960  0.00  0.00     0.000 OA
ATOM    105   C  NAG B   7       1.167  10.155  22.5230  0.00  0.00     0.000 C
ATOM    106   C  NAG B   7       0.189   9.031  22.4890  0.00  0.00     0.000 C
ENDBRANCH 97 104
ATOM    107   O  NAG B   7      -0.167  11.838  15.2090  0.00  0.00     0.000 O
ATOM    109  HD  NAG B   7       0.313  12.042  15.8990  0.00  0.00     0.000 HD
ATOM    109   O  NAG B   7      -0.167  11.838  15.2090  0.00  0.00     0.000 O
ATOM    111  HD  NAG B   7       0.313  12.042  15.8990  0.00  0.00     0.000 HD
ENDBRANCH 95 98
ENDBRANCH 82 95
ENDBRANCH 81 85
ENDBRANCH 65 81
ENDBRANCH 64 67
ENDBRANCH 51 64
ENDBRANCH 50 54
ENDBRANCH 34 50
ENDBRANCH 33 36
ENDBRANCH 20 33
ENDBRANCH 19 23
ENDBRANCH 1 19
TORSDOF 19
ENDMDL
MODEL 14
REMARK VINA RESULT:      -6.3      4.990      6.900
ROOT
ATOM      1  C1  NAG B   1       9.699   8.403  14.9730  0.00  0.00     0.000 C
ATOM      2  C2  NAG B   1       9.062   9.350  15.9860  0.00  0.00     0.000 C
ATOM      3  C3  NAG B   1       7.586   9.065  16.1740  0.00  0.00     0.000 C
ATOM      4  C4  NAG B   1       6.965   9.194  14.7870  0.00  0.00     0.000 C
ATOM      5  C5  NAG B   1       7.563   8.123  13.8660  0.00  0.00     0.000 C
ATOM      6  O5  NAG B   1       8.990   8.293  13.7290  0.00  0.00     0.000 O
ATOM      7   O  NAG B   1       6.967   9.983  17.1040  0.00  0.00     0.000 O
ATOM      9  HD  NAG B   1       7.761   9.887  17.4360  0.00  0.00     0.000 HD
ATOM      9   O  NAG B   1       5.559   9.030  14.8640  0.00  0.00     0.000 O
ATOM     11  HD  NAG B   1       6.353   8.935  15.1970  0.00  0.00     0.000 HD
ATOM     11   C  NAG B   1       6.855   8.147  12.5060  0.00  0.00     0.000 C
ATOM     12   O  NAG B   1       7.722   7.705  11.4630  0.00  0.00     0.000 O
ATOM     14  HD  NAG B   1       8.515   7.609  11.7950  0.00  0.00     0.000 HD
ENDROOT
BRANCH 2 16
ATOM     14   N  NAG B   1       9.877   9.272  17.2120  0.00  0.00     0.000 N
ATOM     16  HD  NAG B   1      10.694   9.231  17.4940  0.00  0.00     0.000 HD
ATOM     16   C  NAG B   1      10.491  10.337  17.7550  0.00  0.00     0.000 C
ATOM     17   C  NAG B   1      10.384  11.685  17.0920  0.00  0.00     0.000 C
ATOM     18   O  NAG B   1      11.122  10.242  18.8070  0.00  0.00     0.000 OA
ENDBRANCH 2 16
BRANCH 1 19
ATOM     19  O4  BDP B   2      10.932   9.040  14.6660  0.00  0.00     0.000 O
BRANCH 19 23
ATOM     20  C1  BDP B   2      12.945  10.075  11.2280  0.00  0.00     0.000 C
ATOM     21  C2  BDP B   2      11.569  10.681  11.4100  0.00  0.00     0.000 C
ATOM     22  C3  BDP B   2      11.113  10.583  12.8490  0.00  0.00     0.000 C
ATOM     23  C4  BDP B   2      11.220   9.126  13.2910  0.00  0.00     0.000 C
ATOM     24  C5  BDP B   2      12.638   8.636  13.0730  0.00  0.00     0.000 C
ATOM     25  O5  BDP B   2      12.968   8.736  11.7010  0.00  0.00     0.000 O
ATOM     26   O  BDP B   2      11.570  12.032  11.0030  0.00  0.00     0.000 O
ATOM     28  HD  BDP B   2      12.337  11.774  10.6940  0.00  0.00     0.000 HD
ATOM     28   O  BDP B   2       9.770  11.082  12.9550  0.00  0.00     0.000 O
ATOM     30  HD  BDP B   2      10.537  10.823  12.6460  0.00  0.00     0.000 HD
BRANCH 24 30
ATOM     30   C  BDP B   2      12.809   7.215  13.4740  0.00  0.00     0.000 C
ATOM     31   O  BDP B   2      13.743   6.950  14.2660  0.00  0.00     0.000 OA
ATOM     32   O  BDP B   2      12.016   6.355  12.9950  0.00  0.00     0.000 OA
ENDBRANCH 24 30
BRANCH 20 33
ATOM     33  O3  NAG B   3      13.136  10.077   9.8340  0.00  0.00     0.000 O
BRANCH 33 36
ATOM     34  C1  NAG B   3      16.253  11.208   8.0580  0.00  0.00     0.000 C
ATOM     35  C2  NAG B   3      14.848  11.288   8.6240  0.00  0.00     0.000 C
ATOM     36  C3  NAG B   3      14.523  10.061   9.4900  0.00  0.00     0.000 C
ATOM     37  C4  NAG B   3      14.822   8.791   8.6980  0.00  0.00     0.000 C
ATOM     38  C5  NAG B   3      16.226   8.855   8.1040  0.00  0.00     0.000 C
ATOM     39  O5  NAG B   3      16.358  10.013   7.2980  0.00  0.00     0.000 O
ATOM     40   O  NAG B   3      14.717   7.642   9.5540  0.00  0.00     0.000 O
ATOM     42  HD  NAG B   3      15.517   7.500   9.2550  0.00  0.00     0.000 HD
ATOM     42   C  NAG B   3      16.563   7.682   7.1870  0.00  0.00     0.000 C
ATOM     43   O  NAG B   3      15.725   7.726   6.0250  0.00  0.00     0.000 O
ATOM     45  HD  NAG B   3      16.525   7.584   5.7260  0.00  0.00     0.000 HD
BRANCH 35 47
ATOM     45   N  NAG B   3      13.958  12.404   8.3310  0.00  0.00     0.000 N
ATOM     47  HD  NAG B   3      13.701  11.666   7.9570  0.00  0.00     0.000 HD
ATOM     47   C  NAG B   3      13.653  13.331   9.2170  0.00  0.00     0.000 C
ATOM     48   C  NAG B   3      12.706  14.399   8.7580  0.00  0.00     0.000 C
ATOM     49   O  NAG B   3      14.098  13.308  10.3630  0.00  0.00     0.000 OA
ENDBRANCH 35 47
BRANCH 34 50
ATOM     50  O4  BDP B   4      16.337  12.337   7.2140  0.00  0.00     0.000 O
BRANCH 50 54
ATOM     51  C1  BDP B   4      18.785  15.289   5.8530  0.00  0.00     0.000 C
ATOM     52  C2  BDP B   4      19.218  13.880   5.4650  0.00  0.00     0.000 C
ATOM     53  C3  BDP B   4      18.069  12.946   5.6910  0.00  0.00     0.000 C
ATOM     54  C4  BDP B   4      17.575  13.067   7.1610  0.00  0.00     0.000 C
ATOM     55  C5  BDP B   4      17.342  14.514   7.5760  0.00  0.00     0.000 C
ATOM     56  O5  BDP B   4      18.468  15.317   7.2330  0.00  0.00     0.000 O
ATOM     57   O  BDP B   4      19.593  13.840   4.1050  0.00  0.00     0.000 O
ATOM     59  HD  BDP B   4      20.459  13.826   4.1170  0.00  0.00     0.000 HD
ATOM     59   O  BDP B   4      18.572  11.607   5.5010  0.00  0.00     0.000 O
ATOM     61  HD  BDP B   4      19.438  11.594   5.5130  0.00  0.00     0.000 HD
BRANCH 55 61
ATOM     61   C  BDP B   4      17.125  14.575   9.0780  0.00  0.00     0.000 C
ATOM     62   O  BDP B   4      17.702  13.716   9.7940  0.00  0.00     0.000 OA
ATOM     63   O  BDP B   4      16.374  15.488   9.5390  0.00  0.00     0.000 OA
ENDBRANCH 55 61
BRANCH 51 64
ATOM     64  O3  NAG B   5      19.888  16.170   5.5640  0.00  0.00     0.000 O
BRANCH 64 67
ATOM     65  C1  NAG B   5      18.783  19.535   4.5420  0.00  0.00     0.000 C
ATOM     66  C2  NAG B   5      18.952  18.027   4.4900  0.00  0.00     0.000 C
ATOM     67  C3  NAG B   5      19.571  17.529   5.7900  0.00  0.00     0.000 C
ATOM     68  C4  NAG B   5      20.855  18.304   6.1200  0.00  0.00     0.000 C
ATOM     69  C5  NAG B   5      20.609  19.803   6.0570  0.00  0.00     0.000 C
ATOM     70  O5  NAG B   5      20.026  20.150   4.7930  0.00  0.00     0.000 O
ATOM     71   O  NAG B   5      21.301  17.912   7.4010  0.00  0.00     0.000 O
ATOM     73  HD  NAG B   5      22.071  17.926   7.0040  0.00  0.00     0.000 HD
ATOM     73   C  NAG B   5      21.868  20.659   6.2500  0.00  0.00     0.000 C
ATOM     74   O  NAG B   5      22.789  20.416   5.1660  0.00  0.00     0.000 O
ATOM     76  HD  NAG B   5      23.558  20.429   4.7690  0.00  0.00     0.000 HD
BRANCH 66 78
ATOM     76   N  NAG B   5      17.596  17.530   4.1860  0.00  0.00     0.000 N
ATOM     78  HD  NAG B   5      18.387  17.477   3.8380  0.00  0.00     0.000 HD
ATOM     78   C  NAG B   5      17.283  16.603   3.2680  0.00  0.00     0.000 C
ATOM     79   C  NAG B   5      15.812  16.292   3.2060  0.00  0.00     0.000 C
ATOM     80   O  NAG B   5      18.152  16.042   2.5090  0.00  0.00     0.000 OA
ENDBRANCH 66 78
BRANCH 65 81
ATOM     81  O4  BDP B   6      18.243  20.014   3.3040  0.00  0.00     0.000 O
BRANCH 81 85
ATOM     82  C1  BDP B   6      15.306  22.895   2.1050  0.00  0.00     0.000 C
ATOM     83  C2  BDP B   6      16.772  23.239   1.8600  0.00  0.00     0.000 C
ATOM     84  C3  BDP B   6      17.691  22.016   1.9350  0.00  0.00     0.000 C
ATOM     85  C4  BDP B   6      17.477  21.218   3.2230  0.00  0.00     0.000 C
ATOM     86  C5  BDP B   6      15.959  20.964   3.3780  0.00  0.00     0.000 C
ATOM     87  O5  BDP B   6      15.190  22.209   3.3430  0.00  0.00     0.000 O
ATOM     88   O  BDP B   6      16.819  23.791   0.5470  0.00  0.00     0.000 O
ATOM     90  HD  BDP B   6      17.303  23.765  -0.1710  0.00  0.00     0.000 HD
ATOM     90   O  BDP B   6      19.053  22.431   1.8100  0.00  0.00     0.000 O
ATOM     92  HD  BDP B   6      19.537  22.406   1.0920  0.00  0.00     0.000 HD
BRANCH 86 92
ATOM     92   C  BDP B   6      15.654  20.391   4.7410  0.00  0.00     0.000 C
ATOM     93   O  BDP B   6      15.181  19.218   4.8330  0.00  0.00     0.000 OA
ATOM     94   O  BDP B   6      15.912  21.115   5.7520  0.00  0.00     0.000 OA
ENDBRANCH 86 92
BRANCH 82 95
ATOM     95  O3  NAG B   7      14.563  24.126   2.2100  0.00  0.00     0.000 O
BRANCH 95 98
ATOM     96  C1  NAG B   7      11.814  25.776   0.4610  0.00  0.00     0.000 C
ATOM     97  C2  NAG B   7      13.150  25.687   1.1860  0.00  0.00     0.000 C
ATOM     98  C3  NAG B   7      13.282  24.220   1.5880  0.00  0.00     0.000 C
ATOM     99  C4  NAG B   7      12.125  23.826   2.5020  0.00  0.00     0.000 C
ATOM    100  C5  NAG B   7      10.780  24.155   1.8520  0.00  0.00     0.000 C
ATOM    101  O5  NAG B   7      10.792  25.509   1.4290  0.00  0.00     0.000 O
BRANCH 97 104
ATOM    102   N  NAG B   7      14.381  25.928   0.4190  0.00  0.00     0.000 N
ATOM    104  HD  NAG B   7      15.169  25.838   0.0730  0.00  0.00     0.000 HD
ATOM    104   O  NAG B   7      16.294  26.991  -0.1640  0.00  0.00     0.000 OA
ATOM    105   C  NAG B   7      15.252  26.950   0.5190  0.00  0.00     0.000 C
ATOM    106   C  NAG B   7      14.968  28.052   1.4820  0.00  0.00     0.000 C
ENDBRANCH 97 104
ATOM    107   O  NAG B   7       8.458  23.912   2.0830  0.00  0.00     0.000 O
ATOM    109  HD  NAG B   7       9.118  23.909   1.5220  0.00  0.00     0.000 HD
ATOM    109   O  NAG B   7       8.458  23.912   2.0830  0.00  0.00     0.000 O
ATOM    111  HD  NAG B   7       9.118  23.909   1.5220  0.00  0.00     0.000 HD
ENDBRANCH 95 98
ENDBRANCH 82 95
ENDBRANCH 81 85
ENDBRANCH 65 81
ENDBRANCH 64 67
ENDBRANCH 51 64
ENDBRANCH 50 54
ENDBRANCH 34 50
ENDBRANCH 33 36
ENDBRANCH 20 33
ENDBRANCH 19 23
ENDBRANCH 1 19
TORSDOF 19
ENDMDL
MODEL 15
REMARK VINA RESULT:      -6.3      8.193     12.879
ROOT
ATOM      1  C1  NAG B   1      18.730   4.674   3.6660  0.00  0.00     0.000 C
ATOM      2  C2  NAG B   1      18.061   4.045   2.4470  0.00  0.00     0.000 C
ATOM      3  C3  NAG B   1      18.926   4.156   1.2090  0.00  0.00     0.000 C
ATOM      4  C4  NAG B   1      19.184   5.648   1.0240  0.00  0.00     0.000 C
ATOM      5  C5  NAG B   1      19.975   6.174   2.2290  0.00  0.00     0.000 C
ATOM      6  O5  NAG B   1      19.231   6.004   3.4540  0.00  0.00     0.000 O
ATOM      7   O  NAG B   1      18.282   3.596   0.0410  0.00  0.00     0.000 O
ATOM      9  HD  NAG B   1      18.006   3.075   0.6750  0.00  0.00     0.000 HD
ATOM      9   O  NAG B   1      19.919   5.872  -0.1670  0.00  0.00     0.000 O
ATOM     11  HD  NAG B   1      19.643   5.351   0.4660  0.00  0.00     0.000 HD
ATOM     11   C  NAG B   1      20.364   7.640   2.0000  0.00  0.00     0.000 C
ATOM     12   O  NAG B   1      20.483   8.343   3.2360  0.00  0.00     0.000 O
ATOM     14  HD  NAG B   1      20.207   7.822   3.8690  0.00  0.00     0.000 HD
ENDROOT
BRANCH 2 16
ATOM     14   N  NAG B   1      16.694   3.495   2.4790  0.00  0.00     0.000 N
ATOM     16  HD  NAG B   1      16.131   3.020   2.0230  0.00  0.00     0.000 HD
ATOM     16   C  NAG B   1      16.422   2.218   2.8000  0.00  0.00     0.000 C
ATOM     17   C  NAG B   1      17.546   1.269   3.1230  0.00  0.00     0.000 C
ATOM     18   O  NAG B   1      15.264   1.809   2.8640  0.00  0.00     0.000 OA
ENDBRANCH 2 16
BRANCH 1 19
ATOM     19  O4  BDP B   2      17.660   4.802   4.5930  0.00  0.00     0.000 O
BRANCH 19 23
ATOM     20  C1  BDP B   2      16.910   7.161   7.8810  0.00  0.00     0.000 C
ATOM     21  C2  BDP B   2      16.605   7.774   6.5300  0.00  0.00     0.000 C
ATOM     22  C3  BDP B   2      16.513   6.713   5.4560  0.00  0.00     0.000 C
ATOM     23  C4  BDP B   2      17.789   5.878   5.4910  0.00  0.00     0.000 C
ATOM     24  C5  BDP B   2      17.982   5.310   6.8840  0.00  0.00     0.000 C
ATOM     25  O5  BDP B   2      18.088   6.369   7.8160  0.00  0.00     0.000 O
ATOM     26   O  BDP B   2      15.398   8.502   6.5840  0.00  0.00     0.000 O
ATOM     28  HD  BDP B   2      15.534   8.361   7.4270  0.00  0.00     0.000 HD
ATOM     28   O  BDP B   2      16.317   7.346   4.1810  0.00  0.00     0.000 O
ATOM     30  HD  BDP B   2      16.453   7.205   5.0250  0.00  0.00     0.000 HD
BRANCH 24 30
ATOM     30   C  BDP B   2      19.219   4.492   6.9910  0.00  0.00     0.000 C
ATOM     31   O  BDP B   2      20.311   5.075   6.8030  0.00  0.00     0.000 OA
ATOM     32   O  BDP B   2      19.104   3.261   7.2550  0.00  0.00     0.000 OA
ENDBRANCH 24 30
BRANCH 20 33
ATOM     33  O3  NAG B   3      17.145   8.272   8.7120  0.00  0.00     0.000 O
BRANCH 33 36
ATOM     34  C1  NAG B   3      15.971   8.410  12.2840  0.00  0.00     0.000 C
ATOM     35  C2  NAG B   3      15.922   8.588  10.7780  0.00  0.00     0.000 C
ATOM     36  C3  NAG B   3      17.121   7.911  10.0960  0.00  0.00     0.000 C
ATOM     37  C4  NAG B   3      18.413   8.389  10.7540  0.00  0.00     0.000 C
ATOM     38  C5  NAG B   3      18.320   8.244  12.2700  0.00  0.00     0.000 C
ATOM     39  O5  NAG B   3      17.194   8.957  12.7560  0.00  0.00     0.000 O
ATOM     40   O  NAG B   3      19.525   7.621  10.2680  0.00  0.00     0.000 O
ATOM     42  HD  NAG B   3      19.648   7.494  11.1160  0.00  0.00     0.000 HD
ATOM     42   C  NAG B   3      19.518   8.820  13.0200  0.00  0.00     0.000 C
ATOM     43   O  NAG B   3      19.560  10.241  12.8390  0.00  0.00     0.000 O
ATOM     45  HD  NAG B   3      19.683  10.113  13.6870  0.00  0.00     0.000 HD
BRANCH 35 47
ATOM     45   N  NAG B   3      14.855   9.335  10.1240  0.00  0.00     0.000 N
ATOM     47  HD  NAG B   3      15.618   9.744  10.0900  0.00  0.00     0.000 HD
ATOM     47   C  NAG B   3      13.904   8.757   9.4180  0.00  0.00     0.000 C
ATOM     48   C  NAG B   3      12.894   9.674   8.7950  0.00  0.00     0.000 C
ATOM     49   O  NAG B   3      13.861   7.539   9.2560  0.00  0.00     0.000 OA
ENDBRANCH 35 47
BRANCH 34 50
ATOM     50  O4  BDP B   4      14.879   9.176  12.7460  0.00  0.00     0.000 O
BRANCH 50 54
ATOM     51  C1  BDP B   4      12.132   9.471  15.7330  0.00  0.00     0.000 C
ATOM     52  C2  BDP B   4      13.549   9.167  16.2060  0.00  0.00     0.000 C
ATOM     53  C3  BDP B   4      14.500   9.454  15.0850  0.00  0.00     0.000 C
ATOM     54  C4  BDP B   4      14.076   8.655  13.8190  0.00  0.00     0.000 C
ATOM     55  C5  BDP B   4      12.599   8.827  13.4930  0.00  0.00     0.000 C
ATOM     56  O5  BDP B   4      11.804   8.612  14.6560  0.00  0.00     0.000 O
ATOM     57   O  BDP B   4      13.879   9.974  17.3160  0.00  0.00     0.000 O
ATOM     59  HD  BDP B   4      13.812   9.444  17.9980  0.00  0.00     0.000 HD
ATOM     59   O  BDP B   4      15.796   8.975  15.5000  0.00  0.00     0.000 O
ATOM     61  HD  BDP B   4      15.729   8.445  16.1820  0.00  0.00     0.000 HD
BRANCH 55 61
ATOM     61   C  BDP B   4      12.202   7.824  12.4250  0.00  0.00     0.000 C
ATOM     62   O  BDP B   4      11.273   8.139  11.6350  0.00  0.00     0.000 OA
ATOM     63   O  BDP B   4      12.824   6.719  12.3770  0.00  0.00     0.000 OA
ENDBRANCH 55 61
BRANCH 51 64
ATOM     64  O3  NAG B   5      11.252   9.248  16.8510  0.00  0.00     0.000 O
BRANCH 64 67
ATOM     65  C1  NAG B   5       8.485  11.466  17.8620  0.00  0.00     0.000 C
ATOM     66  C2  NAG B   5       9.893  10.897  17.8060  0.00  0.00     0.000 C
ATOM     67  C3  NAG B   5       9.993   9.870  16.6850  0.00  0.00     0.000 C
ATOM     68  C4  NAG B   5       8.883   8.816  16.8020  0.00  0.00     0.000 C
ATOM     69  C5  NAG B   5       7.523   9.482  16.9460  0.00  0.00     0.000 C
ATOM     70  O5  NAG B   5       7.551  10.423  18.0280  0.00  0.00     0.000 O
ATOM     71   O  NAG B   5       8.927   7.985  15.6630  0.00  0.00     0.000 O
ATOM     73  HD  NAG B   5       8.794   7.368  16.2560  0.00  0.00     0.000 HD
ATOM     73   C  NAG B   5       6.365   8.506  17.1970  0.00  0.00     0.000 C
ATOM     74   O  NAG B   5       6.558   7.841  18.4620  0.00  0.00     0.000 O
ATOM     76  HD  NAG B   5       6.425   7.225  19.0560  0.00  0.00     0.000 HD
BRANCH 66 78
ATOM     76   N  NAG B   5      10.755  12.086  17.6660  0.00  0.00     0.000 N
ATOM     78  HD  NAG B   5      10.666  11.424  18.2180  0.00  0.00     0.000 HD
ATOM     78   C  NAG B   5      11.870  12.339  18.3690  0.00  0.00     0.000 C
ATOM     79   C  NAG B   5      12.542  13.629  17.9830  0.00  0.00     0.000 C
ATOM     80   O  NAG B   5      12.314  11.562  19.2880  0.00  0.00     0.000 OA
ENDBRANCH 66 78
BRANCH 65 81
ATOM     81  O4  BDP B   6       8.373  12.398  18.9450  0.00  0.00     0.000 O
BRANCH 81 85
ATOM     82  C1  BDP B   6       5.687  15.360  20.4850  0.00  0.00     0.000 C
ATOM     83  C2  BDP B   6       5.249  13.901  20.5660  0.00  0.00     0.000 C
ATOM     84  C3  BDP B   6       6.410  12.920  20.3810  0.00  0.00     0.000 C
ATOM     85  C4  BDP B   6       7.221  13.226  19.1190  0.00  0.00     0.000 C
ATOM     86  C5  BDP B   6       7.573  14.732  19.1330  0.00  0.00     0.000 C
ATOM     87  O5  BDP B   6       6.380  15.570  19.2630  0.00  0.00     0.000 O
ATOM     88   O  BDP B   6       4.695  13.742  21.8700  0.00  0.00     0.000 O
ATOM     90  HD  BDP B   6       4.690  13.180  22.5290  0.00  0.00     0.000 HD
ATOM     90   O  BDP B   6       5.908  11.582  20.3550  0.00  0.00     0.000 O
ATOM     92  HD  BDP B   6       5.902  11.019  21.0140  0.00  0.00     0.000 HD
BRANCH 86 92
ATOM     92   C  BDP B   6       8.164  15.151  17.8090  0.00  0.00     0.000 C
ATOM     93   O  BDP B   6       9.359  14.830  17.5300  0.00  0.00     0.000 OA
ATOM     94   O  BDP B   6       7.417  15.797  17.0120  0.00  0.00     0.000 OA
ENDBRANCH 86 92
BRANCH 82 95
ATOM     95  O3  NAG B   7       4.507  16.188  20.4720  0.00  0.00     0.000 O
BRANCH 95 98
ATOM     96  C1  NAG B   7       4.063  19.771  21.0210  0.00  0.00     0.000 C
ATOM     97  C2  NAG B   7       3.870  18.286  21.2950  0.00  0.00     0.000 C
ATOM     98  C3  NAG B   7       4.636  17.578  20.1790  0.00  0.00     0.000 C
ATOM     99  C4  NAG B   7       4.060  17.976  18.8220  0.00  0.00     0.000 C
ATOM    100  C5  NAG B   7       4.033  19.497  18.6640  0.00  0.00     0.000 C
ATOM    101  O5  NAG B   7       3.387  20.065  19.7930  0.00  0.00     0.000 O
BRANCH 97 104
ATOM    102   N  NAG B   7       4.443  17.806  22.5600  0.00  0.00     0.000 N
ATOM    104  HD  NAG B   7       4.942  17.398  23.1390  0.00  0.00     0.000 HD
ATOM    104   O  NAG B   7       4.485  16.711  24.5420  0.00  0.00     0.000 OA
ATOM    105   C  NAG B   7       3.850  17.103  23.5440  0.00  0.00     0.000 C
ATOM    106   C  NAG B   7       2.400  16.775  23.4270  0.00  0.00     0.000 C
ENDBRANCH 97 104
ATOM    107   O  NAG B   7       3.611  21.234  17.1460  0.00  0.00     0.000 O
ATOM    109  HD  NAG B   7       4.124  20.965  17.7890  0.00  0.00     0.000 HD
ATOM    109   O  NAG B   7       3.611  21.234  17.1460  0.00  0.00     0.000 O
ATOM    111  HD  NAG B   7       4.124  20.965  17.7890  0.00  0.00     0.000 HD
ENDBRANCH 95 98
ENDBRANCH 82 95
ENDBRANCH 81 85
ENDBRANCH 65 81
ENDBRANCH 64 67
ENDBRANCH 51 64
ENDBRANCH 50 54
ENDBRANCH 34 50
ENDBRANCH 33 36
ENDBRANCH 20 33
ENDBRANCH 19 23
ENDBRANCH 1 19
TORSDOF 19
ENDMDL
MODEL 16
REMARK VINA RESULT:      -6.3      1.405      1.738
ROOT
ATOM      1  C1  NAG B   1      10.835   3.591  17.0940  0.00  0.00     0.000 C
ATOM      2  C2  NAG B   1       9.358   3.362  17.4020  0.00  0.00     0.000 C
ATOM      3  C3  NAG B   1       9.043   1.892  17.5930  0.00  0.00     0.000 C
ATOM      4  C4  NAG B   1       9.479   1.210  16.3000  0.00  0.00     0.000 C
ATOM      5  C5  NAG B   1      10.995   1.374  16.1320  0.00  0.00     0.000 C
ATOM      6  O5  NAG B   1      11.361   2.768  16.0410  0.00  0.00     0.000 O
ATOM      7   O  NAG B   1       7.638   1.664  17.8470  0.00  0.00     0.000 O
ATOM      9  HD  NAG B   1       7.779   2.421  18.2430  0.00  0.00     0.000 HD
ATOM      9   O  NAG B   1       9.146  -0.167  16.3380  0.00  0.00     0.000 O
ATOM     11  HD  NAG B   1       9.287   0.590  16.7340  0.00  0.00     0.000 HD
ATOM     11   C  NAG B   1      11.475   0.580  14.9110  0.00  0.00     0.000 C
ATOM     12   O  NAG B   1      12.635   1.174  14.3300  0.00  0.00     0.000 O
ATOM     14  HD  NAG B   1      12.776   1.932  14.7250  0.00  0.00     0.000 HD
ENDROOT
BRANCH 2 16
ATOM     14   N  NAG B   1       8.480   4.545  17.3820  0.00  0.00     0.000 N
ATOM     16  HD  NAG B   1       7.658   4.795  17.4910  0.00  0.00     0.000 HD
ATOM     16   C  NAG B   1       8.075   5.179  18.4960  0.00  0.00     0.000 C
ATOM     17   C  NAG B   1       8.499   4.667  19.8480  0.00  0.00     0.000 C
ATOM     18   O  NAG B   1       7.382   6.194  18.4370  0.00  0.00     0.000 OA
ENDBRANCH 2 16
BRANCH 1 19
ATOM     19  O4  BDP B   2      10.859   4.923  16.5980  0.00  0.00     0.000 O
BRANCH 19 23
ATOM     20  C1  BDP B   2      12.356   6.808  13.2590  0.00  0.00     0.000 C
ATOM     21  C2  BDP B   2      11.285   5.764  13.0200  0.00  0.00     0.000 C
ATOM     22  C3  BDP B   2      10.528   5.453  14.2910  0.00  0.00     0.000 C
ATOM     23  C4  BDP B   2      11.536   5.080  15.3740  0.00  0.00     0.000 C
ATOM     24  C5  BDP B   2      12.545   6.200  15.5320  0.00  0.00     0.000 C
ATOM     25  O5  BDP B   2      13.224   6.402  14.3070  0.00  0.00     0.000 O
ATOM     26   O  BDP B   2      10.385   6.205  12.0260  0.00  0.00     0.000 O
ATOM     28  HD  BDP B   2      11.015   6.793  11.9400  0.00  0.00     0.000 HD
ATOM     28   O  BDP B   2       9.591   4.395  14.0370  0.00  0.00     0.000 O
ATOM     30  HD  BDP B   2      10.221   4.983  13.9520  0.00  0.00     0.000 HD
BRANCH 24 30
ATOM     30   C  BDP B   2      13.567   5.894  16.5680  0.00  0.00     0.000 C
ATOM     31   O  BDP B   2      14.421   5.020  16.2920  0.00  0.00     0.000 OA
ATOM     32   O  BDP B   2      13.516   6.520  17.6650  0.00  0.00     0.000 OA
ENDBRANCH 24 30
BRANCH 20 33
ATOM     33  O3  NAG B   3      13.074   6.843  12.0500  0.00  0.00     0.000 O
BRANCH 33 36
ATOM     34  C1  NAG B   3      14.501  10.215  11.1890  0.00  0.00     0.000 C
ATOM     35  C2  NAG B   3      13.446   9.148  11.4110  0.00  0.00     0.000 C
ATOM     36  C3  NAG B   3      14.051   7.887  12.0450  0.00  0.00     0.000 C
ATOM     37  C4  NAG B   3      15.254   7.434  11.2210  0.00  0.00     0.000 C
ATOM     38  C5  NAG B   3      16.206   8.604  10.9870  0.00  0.00     0.000 C
ATOM     39  O5  NAG B   3      15.516   9.670  10.3580  0.00  0.00     0.000 O
ATOM     40   O  NAG B   3      15.950   6.381  11.9060  0.00  0.00     0.000 O
ATOM     42  HD  NAG B   3      16.620   6.918  11.7920  0.00  0.00     0.000 HD
ATOM     42   C  NAG B   3      17.373   8.273  10.0610  0.00  0.00     0.000 C
ATOM     43   O  NAG B   3      16.878   7.999   8.7450  0.00  0.00     0.000 O
ATOM     45  HD  NAG B   3      17.548   8.536   8.6310  0.00  0.00     0.000 HD
BRANCH 35 47
ATOM     45   N  NAG B   3      12.041   9.262  11.0400  0.00  0.00     0.000 N
ATOM     47  HD  NAG B   3      12.449   8.630  10.6120  0.00  0.00     0.000 HD
ATOM     47   C  NAG B   3      11.090   9.542  11.9090  0.00  0.00     0.000 C
ATOM     48   C  NAG B   3       9.694   9.601  11.3640  0.00  0.00     0.000 C
ATOM     49   O  NAG B   3      11.329   9.717  13.1020  0.00  0.00     0.000 OA
ENDBRANCH 35 47
BRANCH 34 50
ATOM     50  O4  BDP B   4      13.805  11.238  10.5090  0.00  0.00     0.000 O
BRANCH 50 54
ATOM     51  C1  BDP B   4      13.500  15.278  10.1410  0.00  0.00     0.000 C
ATOM     52  C2  BDP B   4      14.469  14.626   9.1620  0.00  0.00     0.000 C
ATOM     53  C3  BDP B   4      14.212  13.150   9.1430  0.00  0.00     0.000 C
ATOM     54  C4  BDP B   4      14.305  12.583  10.5890  0.00  0.00     0.000 C
ATOM     55  C5  BDP B   4      13.475  13.387  11.5810  0.00  0.00     0.000 C
ATOM     56  O5  BDP B   4      13.746  14.780  11.4430  0.00  0.00     0.000 O
ATOM     57   O  BDP B   4      14.281  15.149   7.8640  0.00  0.00     0.000 O
ATOM     59  HD  BDP B   4      14.941  15.699   7.7530  0.00  0.00     0.000 HD
ATOM     59   O  BDP B   4      15.265  12.550   8.3620  0.00  0.00     0.000 O
ATOM     61  HD  BDP B   4      15.925  13.100   8.2510  0.00  0.00     0.000 HD
BRANCH 55 61
ATOM     61   C  BDP B   4      13.820  12.949  12.9930  0.00  0.00     0.000 C
ATOM     62   O  BDP B   4      12.959  12.291  13.6340  0.00  0.00     0.000 OA
ATOM     63   O  BDP B   4      14.957  13.265  13.4590  0.00  0.00     0.000 OA
ENDBRANCH 55 61
BRANCH 51 64
ATOM     64  O3  NAG B   5      13.730  16.700  10.0860  0.00  0.00     0.000 O
BRANCH 64 67
ATOM     65  C1  NAG B   5      11.381  19.446   9.3580  0.00  0.00     0.000 C
ATOM     66  C2  NAG B   5      12.492  18.437   9.1240  0.00  0.00     0.000 C
ATOM     67  C3  NAG B   5      12.548  17.450  10.2830  0.00  0.00     0.000 C
ATOM     68  C4  NAG B   5      12.627  18.184  11.6280  0.00  0.00     0.000 C
ATOM     69  C5  NAG B   5      11.534  19.236  11.7320  0.00  0.00     0.000 C
ATOM     70  O5  NAG B   5      11.580  20.103  10.5890  0.00  0.00     0.000 O
ATOM     71   O  NAG B   5      12.523  17.235  12.6680  0.00  0.00     0.000 O
ATOM     73  HD  NAG B   5      13.153  17.720  13.0100  0.00  0.00     0.000 HD
ATOM     73   C  NAG B   5      11.612  20.109  12.9920  0.00  0.00     0.000 C
ATOM     74   O  NAG B   5      12.832  20.880  12.9710  0.00  0.00     0.000 O
ATOM     76  HD  NAG B   5      13.462  21.365  13.3130  0.00  0.00     0.000 HD
BRANCH 66 78
ATOM     76   N  NAG B   5      13.270  18.446   7.8700  0.00  0.00     0.000 N
ATOM     78  HD  NAG B   5      12.665  17.950   8.2400  0.00  0.00     0.000 HD
ATOM     78   C  NAG B   5      13.045  17.674   6.7960  0.00  0.00     0.000 C
ATOM     79   C  NAG B   5      14.000  17.931   5.6620  0.00  0.00     0.000 C
ATOM     80   O  NAG B   5      12.113  16.795   6.7440  0.00  0.00     0.000 OA
ENDBRANCH 66 78
BRANCH 65 81
ATOM     81  O4  BDP B   6      11.354  20.405   8.2930  0.00  0.00     0.000 O
BRANCH 81 85
ATOM     82  C1  BDP B   6       8.441  22.844   6.3110  0.00  0.00     0.000 C
ATOM     83  C2  BDP B   6       9.335  23.516   7.3490  0.00  0.00     0.000 C
ATOM     84  C3  BDP B   6      10.579  22.690   7.6880  0.00  0.00     0.000 C
ATOM     85  C4  BDP B   6      10.224  21.248   8.0570  0.00  0.00     0.000 C
ATOM     86  C5  BDP B   6       9.292  20.690   6.9540  0.00  0.00     0.000 C
ATOM     87  O5  BDP B   6       8.114  21.536   6.7570  0.00  0.00     0.000 O
ATOM     88   O  BDP B   6       9.731  24.755   6.7650  0.00  0.00     0.000 O
ATOM     90  HD  BDP B   6      10.429  25.260   6.6810  0.00  0.00     0.000 HD
ATOM     90   O  BDP B   6      11.304  23.325   8.7440  0.00  0.00     0.000 O
ATOM     92  HD  BDP B   6      12.002  23.830   8.6590  0.00  0.00     0.000 HD
BRANCH 86 92
ATOM     92   C  BDP B   6       8.714  19.360   7.3720  0.00  0.00     0.000 C
ATOM     93   O  BDP B   6       7.758  19.328   8.2040  0.00  0.00     0.000 OA
ATOM     94   O  BDP B   6       9.207  18.315   6.8440  0.00  0.00     0.000 OA
ENDBRANCH 86 92
BRANCH 82 95
ATOM     95  O3  NAG B   7       7.216  23.597   6.2120  0.00  0.00     0.000 O
BRANCH 95 98
ATOM     96  C1  NAG B   7       5.385  25.381   3.6040  0.00  0.00     0.000 C
ATOM     97  C2  NAG B   7       5.973  25.161   4.9910  0.00  0.00     0.000 C
ATOM     98  C3  NAG B   7       6.611  23.775   4.9320  0.00  0.00     0.000 C
ATOM     99  C4  NAG B   7       5.549  22.729   4.6030  0.00  0.00     0.000 C
ATOM    100  C5  NAG B   7       4.794  23.099   3.3260  0.00  0.00     0.000 C
ATOM    101  O5  NAG B   7       4.323  24.433   3.4410  0.00  0.00     0.000 O
BRANCH 97 104
ATOM    102   N  NAG B   7       7.086  26.016   5.4240  0.00  0.00     0.000 N
ATOM    104  HD  NAG B   7       7.852  26.285   5.7270  0.00  0.00     0.000 HD
ATOM    104   O  NAG B   7       8.151  27.564   6.6890  0.00  0.00     0.000 OA
ATOM    105   C  NAG B   7       7.106  26.954   6.3910  0.00  0.00     0.000 C
ATOM    106   C  NAG B   7       5.848  27.257   7.1320  0.00  0.00     0.000 C
ENDBRANCH 97 104
ATOM    107   O  NAG B   7       3.209  22.333   1.7760  0.00  0.00     0.000 O
ATOM    109  HD  NAG B   7       3.951  22.768   1.8730  0.00  0.00     0.000 HD
ATOM    109   O  NAG B   7       3.209  22.333   1.7760  0.00  0.00     0.000 O
ATOM    111  HD  NAG B   7       3.951  22.768   1.8730  0.00  0.00     0.000 HD
ENDBRANCH 95 98
ENDBRANCH 82 95
ENDBRANCH 81 85
ENDBRANCH 65 81
ENDBRANCH 64 67
ENDBRANCH 51 64
ENDBRANCH 50 54
ENDBRANCH 34 50
ENDBRANCH 33 36
ENDBRANCH 20 33
ENDBRANCH 19 23
ENDBRANCH 1 19
TORSDOF 19
ENDMDL
MODEL 17
REMARK VINA RESULT:      -6.2      7.168     16.973
ROOT
ATOM      1  C1  NAG B   1       6.138  21.807   6.0640  0.00  0.00     0.000 C
ATOM      2  C2  NAG B   1       5.652  22.458   4.7710  0.00  0.00     0.000 C
ATOM      3  C3  NAG B   1       4.193  22.857   4.8540  0.00  0.00     0.000 C
ATOM      4  C4  NAG B   1       3.436  21.573   5.1780  0.00  0.00     0.000 C
ATOM      5  C5  NAG B   1       3.887  21.057   6.5500  0.00  0.00     0.000 C
ATOM      6  O5  NAG B   1       5.298  20.750   6.5530  0.00  0.00     0.000 O
ATOM      7   O  NAG B   1       3.716  23.439   3.6190  0.00  0.00     0.000 O
ATOM      9  HD  NAG B   1       4.536  23.717   3.6520  0.00  0.00     0.000 HD
ATOM      9   O  NAG B   1       2.040  21.820   5.1920  0.00  0.00     0.000 O
ATOM     11  HD  NAG B   1       2.860  22.098   5.2250  0.00  0.00     0.000 HD
ATOM     11   C  NAG B   1       3.041  19.844   6.9560  0.00  0.00     0.000 C
ATOM     12   O  NAG B   1       3.773  18.964   7.8080  0.00  0.00     0.000 O
ATOM     14  HD  NAG B   1       4.593  19.242   7.8410  0.00  0.00     0.000 HD
ENDROOT
BRANCH 2 16
ATOM     14   N  NAG B   1       6.671  22.498   3.7070  0.00  0.00     0.000 N
ATOM     16  HD  NAG B   1       6.790  22.700   2.8740  0.00  0.00     0.000 HD
ATOM     16   C  NAG B   1       7.301  23.626   3.3350  0.00  0.00     0.000 C
ATOM     17   C  NAG B   1       6.955  24.933   3.9970  0.00  0.00     0.000 C
ATOM     18   O  NAG B   1       8.183  23.611   2.4770  0.00  0.00     0.000 OA
ENDBRANCH 2 16
BRANCH 1 19
ATOM     19  O4  BDP B   2       7.358  21.190   5.6770  0.00  0.00     0.000 O
BRANCH 19 23
ATOM     20  C1  BDP B   2      10.689  19.758   7.6260  0.00  0.00     0.000 C
ATOM     21  C2  BDP B   2       9.420  18.945   7.7750  0.00  0.00     0.000 C
ATOM     22  C3  BDP B   2       8.407  19.309   6.7130  0.00  0.00     0.000 C
ATOM     23  C4  BDP B   2       8.191  20.819   6.7490  0.00  0.00     0.000 C
ATOM     24  C5  BDP B   2       9.523  21.523   6.5790  0.00  0.00     0.000 C
ATOM     25  O5  BDP B   2      10.395  21.148   7.6280  0.00  0.00     0.000 O
ATOM     26   O  BDP B   2       9.711  17.565   7.7020  0.00  0.00     0.000 O
ATOM     28  HD  BDP B   2      10.510  17.891   7.7760  0.00  0.00     0.000 HD
ATOM     28   O  BDP B   2       7.191  18.583   6.9500  0.00  0.00     0.000 O
ATOM     30  HD  BDP B   2       7.990  18.909   7.0240  0.00  0.00     0.000 HD
BRANCH 24 30
ATOM     30   C  BDP B   2       9.385  23.003   6.6160  0.00  0.00     0.000 C
ATOM     31   O  BDP B   2       8.792  23.499   7.6020  0.00  0.00     0.000 OA
ATOM     32   O  BDP B   2       9.861  23.676   5.6580  0.00  0.00     0.000 OA
ENDBRANCH 24 30
BRANCH 20 33
ATOM     33  O3  NAG B   3      11.434  19.441   8.7760  0.00  0.00     0.000 O
BRANCH 33 36
ATOM     34  C1  NAG B   3      15.136  18.776   8.7200  0.00  0.00     0.000 C
ATOM     35  C2  NAG B   3      13.650  18.472   8.6730  0.00  0.00     0.000 C
ATOM     36  C3  NAG B   3      12.818  19.762   8.6150  0.00  0.00     0.000 C
ATOM     37  C4  NAG B   3      13.245  20.690   9.7500  0.00  0.00     0.000 C
ATOM     38  C5  NAG B   3      14.762  20.857   9.7550  0.00  0.00     0.000 C
ATOM     39  O5  NAG B   3      15.387  19.589   9.8570  0.00  0.00     0.000 O
ATOM     40   O  NAG B   3      12.623  21.976   9.5930  0.00  0.00     0.000 O
ATOM     42  HD  NAG B   3      13.446  22.242   9.6440  0.00  0.00     0.000 HD
ATOM     42   C  NAG B   3      15.290  21.667  10.9360  0.00  0.00     0.000 C
ATOM     43   O  NAG B   3      15.045  20.952  12.1540  0.00  0.00     0.000 O
ATOM     45  HD  NAG B   3      15.868  21.218  12.2050  0.00  0.00     0.000 HD
BRANCH 35 47
ATOM     45   N  NAG B   3      13.191  17.090   8.6860  0.00  0.00     0.000 N
ATOM     47  HD  NAG B   3      13.055  17.493   9.4400  0.00  0.00     0.000 HD
ATOM     47   C  NAG B   3      12.618  16.514   7.6480  0.00  0.00     0.000 C
ATOM     48   C  NAG B   3      12.185  15.091   7.8360  0.00  0.00     0.000 C
ATOM     49   O  NAG B   3      12.424  17.117   6.5940  0.00  0.00     0.000 OA
ENDBRANCH 35 47
BRANCH 34 50
ATOM     50  O4  BDP B   4      15.732  17.506   8.8820  0.00  0.00     0.000 O
BRANCH 50 54
ATOM     51  C1  BDP B   4      18.243  15.051   6.8280  0.00  0.00     0.000 C
ATOM     52  C2  BDP B   4      18.792  15.543   8.1620  0.00  0.00     0.000 C
ATOM     53  C3  BDP B   4      17.662  16.107   8.9670  0.00  0.00     0.000 C
ATOM     54  C4  BDP B   4      16.929  17.207   8.1460  0.00  0.00     0.000 C
ATOM     55  C5  BDP B   4      16.573  16.740   6.7410  0.00  0.00     0.000 C
ATOM     56  O5  BDP B   4      17.705  16.147   6.1110  0.00  0.00     0.000 O
ATOM     57   O  BDP B   4      19.385  14.477   8.8720  0.00  0.00     0.000 O
ATOM     59  HD  BDP B   4      20.237  14.593   8.7700  0.00  0.00     0.000 HD
ATOM     59   O  BDP B   4      18.244  16.733  10.1290  0.00  0.00     0.000 O
ATOM     61  HD  BDP B   4      19.096  16.850  10.0270  0.00  0.00     0.000 HD
BRANCH 55 61
ATOM     61   C  BDP B   4      16.111  17.931   5.9200  0.00  0.00     0.000 C
ATOM     62   O  BDP B   4      16.828  18.966   5.9250  0.00  0.00     0.000 OA
ATOM     63   O  BDP B   4      15.028  17.827   5.2670  0.00  0.00     0.000 OA
ENDBRANCH 55 61
BRANCH 51 64
ATOM     64  O3  NAG B   5      19.341  14.458   6.1070  0.00  0.00     0.000 O
BRANCH 64 67
ATOM     65  C1  NAG B   5      19.210  11.224   4.3420  0.00  0.00     0.000 C
ATOM     66  C2  NAG B   5      19.420  12.204   5.4840  0.00  0.00     0.000 C
ATOM     67  C3  NAG B   5      18.910  13.582   5.0840  0.00  0.00     0.000 C
ATOM     68  C4  NAG B   5      19.513  14.026   3.7440  0.00  0.00     0.000 C
ATOM     69  C5  NAG B   5      19.335  12.944   2.6910  0.00  0.00     0.000 C
ATOM     70  O5  NAG B   5      19.851  11.697   3.1790  0.00  0.00     0.000 O
ATOM     71   O  NAG B   5      18.895  15.232   3.3480  0.00  0.00     0.000 O
ATOM     73  HD  NAG B   5      19.709  15.438   3.1360  0.00  0.00     0.000 HD
ATOM     73   C  NAG B   5      20.020  13.248   1.3510  0.00  0.00     0.000 C
ATOM     74   O  NAG B   5      21.449  13.312   1.5420  0.00  0.00     0.000 O
ATOM     76  HD  NAG B   5      22.263  13.518   1.3300  0.00  0.00     0.000 HD
BRANCH 66 78
ATOM     76   N  NAG B   5      19.942  11.660   6.7520  0.00  0.00     0.000 N
ATOM     78  HD  NAG B   5      19.215  12.037   6.4720  0.00  0.00     0.000 HD
ATOM     78   C  NAG B   5      19.231  11.436   7.8680  0.00  0.00     0.000 C
ATOM     79   C  NAG B   5      20.045  10.856   8.9920  0.00  0.00     0.000 C
ATOM     80   O  NAG B   5      17.979  11.700   7.9680  0.00  0.00     0.000 OA
ENDBRANCH 66 78
BRANCH 65 81
ATOM     81  O4  BDP B   6      19.731   9.936   4.6960  0.00  0.00     0.000 O
BRANCH 81 85
ATOM     82  C1  BDP B   6      19.071   5.787   3.8530  0.00  0.00     0.000 C
ATOM     83  C2  BDP B   6      19.167   6.741   2.6660  0.00  0.00     0.000 C
ATOM     84  C3  BDP B   6      19.798   8.087   3.0330  0.00  0.00     0.000 C
ATOM     85  C4  BDP B   6      19.122   8.722   4.2510  0.00  0.00     0.000 C
ATOM     86  C5  BDP B   6      19.053   7.653   5.3680  0.00  0.00     0.000 C
ATOM     87  O5  BDP B   6      18.383   6.433   4.9140  0.00  0.00     0.000 O
ATOM     88   O  BDP B   6      19.987   6.076   1.7080  0.00  0.00     0.000 O
ATOM     90  HD  BDP B   6      20.631   6.240   1.1530  0.00  0.00     0.000 HD
ATOM     90   O  BDP B   6      19.749   8.964   1.9050  0.00  0.00     0.000 O
ATOM     92  HD  BDP B   6      20.393   9.127   1.3500  0.00  0.00     0.000 HD
BRANCH 86 92
ATOM     92   C  BDP B   6      18.190   8.134   6.5090  0.00  0.00     0.000 C
ATOM     93   O  BDP B   6      18.597   7.994   7.7010  0.00  0.00     0.000 OA
ATOM     94   O  BDP B   6      17.085   8.688   6.2150  0.00  0.00     0.000 OA
ENDBRANCH 86 92
BRANCH 82 95
ATOM     95  O3  NAG B   7      18.292   4.642   3.4530  0.00  0.00     0.000 O
BRANCH 95 98
ATOM     96  C1  NAG B   7      18.692   1.025   3.7640  0.00  0.00     0.000 C
ATOM     97  C2  NAG B   7      18.431   2.341   3.0430  0.00  0.00     0.000 C
ATOM     98  C3  NAG B   7      18.474   3.404   4.1380  0.00  0.00     0.000 C
ATOM     99  C4  NAG B   7      17.398   3.117   5.1830  0.00  0.00     0.000 C
ATOM    100  C5  NAG B   7      17.527   1.691   5.7210  0.00  0.00     0.000 C
ATOM    101  O5  NAG B   7      17.573   0.789   4.6270  0.00  0.00     0.000 O
BRANCH 97 104
ATOM    102   N  NAG B   7      19.411   2.873   2.0860  0.00  0.00     0.000 N
ATOM    104  HD  NAG B   7      19.934   3.410   1.6530  0.00  0.00     0.000 HD
ATOM    104   O  NAG B   7      20.247   3.426   0.0550  0.00  0.00     0.000 OA
ATOM    105   C  NAG B   7      19.360   2.879   0.7410  0.00  0.00     0.000 C
ATOM    106   C  NAG B   7      18.207   2.228   0.0560  0.00  0.00     0.000 C
ENDBRANCH 97 104
ATOM    107   O  NAG B   7      16.707   0.197   7.3340  0.00  0.00     0.000 O
ATOM    109  HD  NAG B   7      17.415   0.471   6.9170  0.00  0.00     0.000 HD
ATOM    109   O  NAG B   7      16.707   0.197   7.3340  0.00  0.00     0.000 O
ATOM    111  HD  NAG B   7      17.415   0.471   6.9170  0.00  0.00     0.000 HD
ENDBRANCH 95 98
ENDBRANCH 82 95
ENDBRANCH 81 85
ENDBRANCH 65 81
ENDBRANCH 64 67
ENDBRANCH 51 64
ENDBRANCH 50 54
ENDBRANCH 34 50
ENDBRANCH 33 36
ENDBRANCH 20 33
ENDBRANCH 19 23
ENDBRANCH 1 19
TORSDOF 19
ENDMDL
MODEL 18
REMARK VINA RESULT:      -6.2      3.124      5.257
ROOT
ATOM      1  C1  NAG B   1       7.503   2.765  20.4680  0.00  0.00     0.000 C
ATOM      2  C2  NAG B   1       8.076   1.968  21.6360  0.00  0.00     0.000 C
ATOM      3  C3  NAG B   1       7.077   0.967  22.1810  0.00  0.00     0.000 C
ATOM      4  C4  NAG B   1       5.855   1.788  22.5810  0.00  0.00     0.000 C
ATOM      5  C5  NAG B   1       5.262   2.450  21.3310  0.00  0.00     0.000 C
ATOM      6  O5  NAG B   1       6.213   3.346  20.7160  0.00  0.00     0.000 O
ATOM      7   O  NAG B   1       7.600   0.235  23.3130  0.00  0.00     0.000 O
ATOM      9  HD  NAG B   1       8.304   0.346  22.8210  0.00  0.00     0.000 HD
ATOM      9   O  NAG B   1       4.884   0.952  23.1890  0.00  0.00     0.000 O
ATOM     11  HD  NAG B   1       5.588   1.063  22.6970  0.00  0.00     0.000 HD
ATOM     11   C  NAG B   1       3.955   3.167  21.6890  0.00  0.00     0.000 C
ATOM     12   O  NAG B   1       3.722   4.280  20.8260  0.00  0.00     0.000 O
ATOM     14  HD  NAG B   1       4.426   4.390  20.3340  0.00  0.00     0.000 HD
ENDROOT
BRANCH 2 16
ATOM     14   N  NAG B   1       9.366   1.483  21.1130  0.00  0.00     0.000 N
ATOM     16  HD  NAG B   1      10.085   1.741  20.7050  0.00  0.00     0.000 HD
ATOM     16   C  NAG B   1      10.531   1.644  21.7650  0.00  0.00     0.000 C
ATOM     17   C  NAG B   1      10.560   2.373  23.0830  0.00  0.00     0.000 C
ATOM     18   O  NAG B   1      11.581   1.182  21.3200  0.00  0.00     0.000 OA
ENDBRANCH 2 16
BRANCH 1 19
ATOM     19  O4  BDP B   2       8.406   3.856  20.3470  0.00  0.00     0.000 O
BRANCH 19 23
ATOM     20  C1  BDP B   2       9.311   6.533  17.3540  0.00  0.00     0.000 C
ATOM     21  C2  BDP B   2       8.203   6.936  18.3040  0.00  0.00     0.000 C
ATOM     22  C3  BDP B   2       8.240   6.111  19.5710  0.00  0.00     0.000 C
ATOM     23  C4  BDP B   2       8.231   4.635  19.1870  0.00  0.00     0.000 C
ATOM     24  C5  BDP B   2       9.387   4.350  18.2480  0.00  0.00     0.000 C
ATOM     25  O5  BDP B   2       9.255   5.140  17.0820  0.00  0.00     0.000 O
ATOM     26   O  BDP B   2       8.306   8.306  18.6250  0.00  0.00     0.000 O
ATOM     28  HD  BDP B   2       8.868   8.255  17.9690  0.00  0.00     0.000 HD
ATOM     28   O  BDP B   2       7.119   6.461  20.3970  0.00  0.00     0.000 O
ATOM     30  HD  BDP B   2       7.681   6.411  19.7410  0.00  0.00     0.000 HD
BRANCH 24 30
ATOM     30   C  BDP B   2       9.430   2.926  17.8250  0.00  0.00     0.000 C
ATOM     31   O  BDP B   2      10.394   2.235  18.2280  0.00  0.00     0.000 OA
ATOM     32   O  BDP B   2       8.505   2.492  17.0810  0.00  0.00     0.000 OA
ENDBRANCH 24 30
BRANCH 20 33
ATOM     33  O3  NAG B   3       9.026   7.247  16.1760  0.00  0.00     0.000 O
BRANCH 33 36
ATOM     34  C1  NAG B   3      11.430   9.030  13.8970  0.00  0.00     0.000 C
ATOM     35  C2  NAG B   3      10.344   8.860  14.9430  0.00  0.00     0.000 C
ATOM     36  C3  NAG B   3      10.183   7.387  15.3490  0.00  0.00     0.000 C
ATOM     37  C4  NAG B   3      10.002   6.535  14.0950  0.00  0.00     0.000 C
ATOM     38  C5  NAG B   3      11.097   6.847  13.0790  0.00  0.00     0.000 C
ATOM     39  O5  NAG B   3      11.091   8.231  12.7730  0.00  0.00     0.000 O
ATOM     40   O  NAG B   3      10.051   5.141  14.4380  0.00  0.00     0.000 O
ATOM     42  HD  NAG B   3      10.664   5.140  13.8260  0.00  0.00     0.000 HD
ATOM     42   C  NAG B   3      10.919   6.135  11.7410  0.00  0.00     0.000 C
ATOM     43   O  NAG B   3       9.737   6.620  11.0930  0.00  0.00     0.000 O
ATOM     45  HD  NAG B   3      10.350   6.619  10.4810  0.00  0.00     0.000 HD
BRANCH 35 47
ATOM     45   N  NAG B   3       9.571   9.989  15.4460  0.00  0.00     0.000 N
ATOM     47  HD  NAG B   3       9.099   9.454  14.9550  0.00  0.00     0.000 HD
ATOM     47   C  NAG B   3       9.733  10.488  16.6540  0.00  0.00     0.000 C
ATOM     48   C  NAG B   3       8.841  11.637  17.0200  0.00  0.00     0.000 C
ATOM     49   O  NAG B   3      10.549  10.023  17.4470  0.00  0.00     0.000 OA
ENDBRANCH 35 47
BRANCH 34 50
ATOM     50  O4  BDP B   4      11.363  10.401  13.5660  0.00  0.00     0.000 O
BRANCH 50 54
ATOM     51  C1  BDP B   4      13.467  13.489  11.9570  0.00  0.00     0.000 C
ATOM     52  C2  BDP B   4      13.536  12.193  11.1570  0.00  0.00     0.000 C
ATOM     53  C3  BDP B   4      12.450  11.278  11.6320  0.00  0.00     0.000 C
ATOM     54  C4  BDP B   4      12.570  11.074  13.1700  0.00  0.00     0.000 C
ATOM     55  C5  BDP B   4      12.700  12.392  13.9210  0.00  0.00     0.000 C
ATOM     56  O5  BDP B   4      13.704  13.208  13.3240  0.00  0.00     0.000 O
ATOM     57   O  BDP B   4      13.358  12.456   9.7820  0.00  0.00     0.000 O
ATOM     59  HD  BDP B   4      14.154  12.406   9.4450  0.00  0.00     0.000 HD
ATOM     59   O  BDP B   4      12.667  10.002  10.9960  0.00  0.00     0.000 O
ATOM     61  HD  BDP B   4      13.463   9.952  10.6590  0.00  0.00     0.000 HD
BRANCH 55 61
ATOM     61   C  BDP B   4      13.079  12.110  15.3640  0.00  0.00     0.000 C
ATOM     62   O  BDP B   4      14.009  11.291  15.5820  0.00  0.00     0.000 OA
ATOM     63   O  BDP B   4      12.442  12.715  16.2810  0.00  0.00     0.000 OA
ENDBRANCH 55 61
BRANCH 51 64
ATOM     64  O3  NAG B   5      14.480  14.369  11.4330  0.00  0.00     0.000 O
BRANCH 64 67
ATOM     65  C1  NAG B   5      13.993  17.859  10.3500  0.00  0.00     0.000 C
ATOM     66  C2  NAG B   5      14.092  16.347  10.2440  0.00  0.00     0.000 C
ATOM     67  C3  NAG B   5      14.173  15.734  11.6360  0.00  0.00     0.000 C
ATOM     68  C4  NAG B   5      15.287  16.391  12.4630  0.00  0.00     0.000 C
ATOM     69  C5  NAG B   5      15.157  17.905  12.4340  0.00  0.00     0.000 C
ATOM     70  O5  NAG B   5      15.090  18.364  11.0750  0.00  0.00     0.000 O
ATOM     71   O  NAG B   5      15.219  15.897  13.7840  0.00  0.00     0.000 O
ATOM     73  HD  NAG B   5      16.080  15.874  13.6910  0.00  0.00     0.000 HD
ATOM     73   C  NAG B   5      16.303  18.652  13.1300  0.00  0.00     0.000 C
ATOM     74   O  NAG B   5      17.540  18.399  12.4320  0.00  0.00     0.000 O
ATOM     76  HD  NAG B   5      18.401  18.376  12.3390  0.00  0.00     0.000 HD
BRANCH 66 78
ATOM     76   N  NAG B   5      13.978  15.768   8.8910  0.00  0.00     0.000 N
ATOM     78  HD  NAG B   5      13.536  15.740   9.6360  0.00  0.00     0.000 HD
ATOM     78   C  NAG B   5      12.910  15.122   8.3980  0.00  0.00     0.000 C
ATOM     79   C  NAG B   5      13.091  14.663   6.9760  0.00  0.00     0.000 C
ATOM     80   O  NAG B   5      11.842  14.908   9.0750  0.00  0.00     0.000 OA
ENDBRANCH 66 78
BRANCH 65 81
ATOM     81  O4  BDP B   6      13.963  18.444   9.0410  0.00  0.00     0.000 O
BRANCH 81 85
ATOM     82  C1  BDP B   6      12.189  21.729   6.9370  0.00  0.00     0.000 C
ATOM     83  C2  BDP B   6      13.286  22.049   7.9480  0.00  0.00     0.000 C
ATOM     84  C3  BDP B   6      14.120  20.823   8.3310  0.00  0.00     0.000 C
ATOM     85  C4  BDP B   6      13.242  19.646   8.7620  0.00  0.00     0.000 C
ATOM     86  C5  BDP B   6      12.154  19.443   7.6800  0.00  0.00     0.000 C
ATOM     87  O5  BDP B   6      11.389  20.668   7.4390  0.00  0.00     0.000 O
ATOM     88   O  BDP B   6      14.121  23.013   7.3120  0.00  0.00     0.000 O
ATOM     90  HD  BDP B   6      14.959  23.206   7.2090  0.00  0.00     0.000 HD
ATOM     90   O  BDP B   6      15.047  21.175   9.3610  0.00  0.00     0.000 O
ATOM     92  HD  BDP B   6      15.885  21.368   9.2580  0.00  0.00     0.000 HD
BRANCH 86 92
ATOM     92   C  BDP B   6      11.113  18.458   8.1540  0.00  0.00     0.000 C
ATOM     93   O  BDP B   6      10.684  17.571   7.3550  0.00  0.00     0.000 OA
ATOM     94   O  BDP B   6      10.725  18.549   9.3600  0.00  0.00     0.000 OA
ENDBRANCH 86 92
BRANCH 82 95
ATOM     95  O3  NAG B   7      11.348  22.891   6.7980  0.00  0.00     0.000 O
BRANCH 95 98
ATOM     96  C1  NAG B   7      10.198  24.990   4.0390  0.00  0.00     0.000 C
ATOM     97  C2  NAG B   7      10.771  24.693   5.4190  0.00  0.00     0.000 C
ATOM     98  C3  NAG B   7      10.753  23.170   5.5320  0.00  0.00     0.000 C
ATOM     99  C4  NAG B   7       9.321  22.657   5.3990  0.00  0.00     0.000 C
ATOM    100  C5  NAG B   7       8.672  23.175   4.1140  0.00  0.00     0.000 C
ATOM    101  O5  NAG B   7       8.825  24.584   4.0570  0.00  0.00     0.000 O
BRANCH 97 104
ATOM    102   N  NAG B   7      12.168  25.102   5.6190  0.00  0.00     0.000 N
ATOM    104  HD  NAG B   7      13.024  25.081   5.7500  0.00  0.00     0.000 HD
ATOM    104   O  NAG B   7      13.918  26.087   6.6660  0.00  0.00     0.000 OA
ATOM    105   C  NAG B   7      12.692  25.872   6.5910  0.00  0.00     0.000 C
ATOM    106   C  NAG B   7      11.784  26.471   7.6090  0.00  0.00     0.000 C
ENDBRANCH 97 104
ATOM    107   O  NAG B   7       6.768  23.003   2.7550  0.00  0.00     0.000 O
ATOM    109  HD  NAG B   7       7.630  23.082   2.7590  0.00  0.00     0.000 HD
ATOM    109   O  NAG B   7       6.768  23.003   2.7550  0.00  0.00     0.000 O
ATOM    111  HD  NAG B   7       7.630  23.082   2.7590  0.00  0.00     0.000 HD
ENDBRANCH 95 98
ENDBRANCH 82 95
ENDBRANCH 81 85
ENDBRANCH 65 81
ENDBRANCH 64 67
ENDBRANCH 51 64
ENDBRANCH 50 54
ENDBRANCH 34 50
ENDBRANCH 33 36
ENDBRANCH 20 33
ENDBRANCH 19 23
ENDBRANCH 1 19
TORSDOF 19
ENDMDL
MODEL 19
REMARK VINA RESULT:      -6.2      2.582      4.891
ROOT
ATOM      1  C1  NAG B   1       9.119   4.769  18.7600  0.00  0.00     0.000 C
ATOM      2  C2  NAG B   1       7.800   4.380  19.4220  0.00  0.00     0.000 C
ATOM      3  C3  NAG B   1       6.976   5.596  19.7940  0.00  0.00     0.000 C
ATOM      4  C4  NAG B   1       7.866   6.426  20.7140  0.00  0.00     0.000 C
ATOM      5  C5  NAG B   1       9.104   6.887  19.9340  0.00  0.00     0.000 C
ATOM      6  O5  NAG B   1       9.878   5.759  19.4720  0.00  0.00     0.000 O
ATOM      7   O  NAG B   1       5.742   5.236  20.4570  0.00  0.00     0.000 O
ATOM      9  HD  NAG B   1       5.845   4.590  19.8900  0.00  0.00     0.000 HD
ATOM      9   O  NAG B   1       7.153   7.554  21.1940  0.00  0.00     0.000 O
ATOM     11  HD  NAG B   1       7.256   6.907  20.6270  0.00  0.00     0.000 HD
ATOM     11   C  NAG B   1       9.943   7.835  20.7990  0.00  0.00     0.000 C
ATOM     12   O  NAG B   1      11.325   7.769  20.4490  0.00  0.00     0.000 O
ATOM     14  HD  NAG B   1      11.428   7.122  19.8820  0.00  0.00     0.000 HD
ENDROOT
BRANCH 2 16
ATOM     14   N  NAG B   1       7.011   3.468  18.5750  0.00  0.00     0.000 N
ATOM     16  HD  NAG B   1       7.084   2.841  17.9830  0.00  0.00     0.000 HD
ATOM     16   C  NAG B   1       6.802   2.176  18.8830  0.00  0.00     0.000 C
ATOM     17   C  NAG B   1       7.412   1.593  20.1300  0.00  0.00     0.000 C
ATOM     18   O  NAG B   1       6.096   1.457  18.1770  0.00  0.00     0.000 OA
ENDBRANCH 2 16
BRANCH 1 19
ATOM     19  O4  BDP B   2       9.880   3.570  18.8260  0.00  0.00     0.000 O
BRANCH 19 23
ATOM     20  C1  BDP B   2      12.016   4.378  15.4010  0.00  0.00     0.000 C
ATOM     21  C2  BDP B   2      10.821   3.459  15.2490  0.00  0.00     0.000 C
ATOM     22  C3  BDP B   2       9.891   3.568  16.4360  0.00  0.00     0.000 C
ATOM     23  C4  BDP B   2      10.702   3.336  17.7080  0.00  0.00     0.000 C
ATOM     24  C5  BDP B   2      11.857   4.316  17.7550  0.00  0.00     0.000 C
ATOM     25  O5  BDP B   2      12.688   4.125  16.6270  0.00  0.00     0.000 O
ATOM     26   O  BDP B   2      10.118   3.762  14.0640  0.00  0.00     0.000 O
ATOM     28  HD  BDP B   2      10.841   4.224  13.9400  0.00  0.00     0.000 HD
ATOM     28   O  BDP B   2       8.827   2.613  16.2920  0.00  0.00     0.000 O
ATOM     30  HD  BDP B   2       9.550   3.075  16.1690  0.00  0.00     0.000 HD
BRANCH 24 30
ATOM     30   C  BDP B   2      12.697   4.137  18.9690  0.00  0.00     0.000 C
ATOM     31   O  BDP B   2      13.132   2.985  19.2000  0.00  0.00     0.000 OA
ATOM     32   O  BDP B   2      12.919   5.143  19.7000  0.00  0.00     0.000 OA
ENDBRANCH 24 30
BRANCH 20 33
ATOM     33  O3  NAG B   3      12.856   4.024  14.3310  0.00  0.00     0.000 O
BRANCH 33 36
ATOM     34  C1  NAG B   3      15.383   6.466  12.9860  0.00  0.00     0.000 C
ATOM     35  C2  NAG B   3      14.040   5.780  13.1570  0.00  0.00     0.000 C
ATOM     36  C3  NAG B   3      14.064   4.789  14.3310  0.00  0.00     0.000 C
ATOM     37  C4  NAG B   3      15.250   3.842  14.1690  0.00  0.00     0.000 C
ATOM     38  C5  NAG B   3      16.530   4.634  13.9180  0.00  0.00     0.000 C
ATOM     39  O5  NAG B   3      16.370   5.465  12.7810  0.00  0.00     0.000 O
ATOM     40   O  NAG B   3      15.406   3.043  15.3520  0.00  0.00     0.000 O
ATOM     42  HD  NAG B   3      16.210   3.363  15.3130  0.00  0.00     0.000 HD
ATOM     42   C  NAG B   3      17.746   3.762  13.6150  0.00  0.00     0.000 C
ATOM     43   O  NAG B   3      17.547   3.079  12.3710  0.00  0.00     0.000 O
ATOM     45  HD  NAG B   3      18.351   3.399  12.3310  0.00  0.00     0.000 HD
BRANCH 35 47
ATOM     45   N  NAG B   3      12.839   5.921  12.3430  0.00  0.00     0.000 N
ATOM     47  HD  NAG B   3      13.119   5.103  12.3860  0.00  0.00     0.000 HD
ATOM     47   C  NAG B   3      11.859   6.748  12.6490  0.00  0.00     0.000 C
ATOM     48   C  NAG B   3      10.685   6.755  11.7160  0.00  0.00     0.000 C
ATOM     49   O  NAG B   3      11.892   7.452  13.6560  0.00  0.00     0.000 OA
ENDBRANCH 35 47
BRANCH 34 50
ATOM     50  O4  BDP B   4      15.216   7.239  11.8160  0.00  0.00     0.000 O
BRANCH 50 54
ATOM     51  C1  BDP B   4      16.415  10.759  10.1650  0.00  0.00     0.000 C
ATOM     52  C2  BDP B   4      17.073   9.522   9.5630  0.00  0.00     0.000 C
ATOM     53  C3  BDP B   4      16.292   8.313   9.9780  0.00  0.00     0.000 C
ATOM     54  C4  BDP B   4      16.175   8.271  11.5290  0.00  0.00     0.000 C
ATOM     55  C5  BDP B   4      15.702   9.596  12.1110  0.00  0.00     0.000 C
ATOM     56  O5  BDP B   4      16.464  10.675  11.5770  0.00  0.00     0.000 O
ATOM     57   O  BDP B   4      17.086   9.610   8.1540  0.00  0.00     0.000 O
ATOM     59  HD  BDP B   4      17.901   9.825   7.9560  0.00  0.00     0.000 HD
ATOM     59   O  BDP B   4      17.048   7.160   9.5570  0.00  0.00     0.000 O
ATOM     61  HD  BDP B   4      17.863   7.375   9.3600  0.00  0.00     0.000 HD
BRANCH 55 61
ATOM     61   C  BDP B   4      15.867   9.567  13.6200  0.00  0.00     0.000 C
ATOM     62   O  BDP B   4      14.841   9.738  14.3300  0.00  0.00     0.000 OA
ATOM     63   O  BDP B   4      17.027   9.371  14.0940  0.00  0.00     0.000 OA
ENDBRANCH 55 61
BRANCH 51 64
ATOM     64  O3  NAG B   5      17.150  11.905   9.6950  0.00  0.00     0.000 O
BRANCH 64 67
ATOM     65  C1  NAG B   5      15.485  15.184   9.4240  0.00  0.00     0.000 C
ATOM     66  C2  NAG B   5      15.879  13.764   9.0560  0.00  0.00     0.000 C
ATOM     67  C3  NAG B   5      16.644  13.123  10.2060  0.00  0.00     0.000 C
ATOM     68  C4  NAG B   5      17.811  14.012  10.6550  0.00  0.00     0.000 C
ATOM     69  C5  NAG B   5      17.336  15.434  10.9110  0.00  0.00     0.000 C
ATOM     70  O5  NAG B   5      16.632  15.928   9.7620  0.00  0.00     0.000 O
ATOM     71   O  NAG B   5      18.389  13.450  11.8130  0.00  0.00     0.000 O
ATOM     73  HD  NAG B   5      19.122  13.667  11.4070  0.00  0.00     0.000 HD
ATOM     73   C  NAG B   5      18.460  16.426  11.2420  0.00  0.00     0.000 C
ATOM     74   O  NAG B   5      19.340  16.557  10.1060  0.00  0.00     0.000 O
ATOM     76  HD  NAG B   5      20.073  16.774   9.6990  0.00  0.00     0.000 HD
BRANCH 66 78
ATOM     76   N  NAG B   5      14.573  13.256   8.5930  0.00  0.00     0.000 N
ATOM     78  HD  NAG B   5      15.396  13.231   8.3270  0.00  0.00     0.000 HD
ATOM     78   C  NAG B   5      14.376  12.363   7.6110  0.00  0.00     0.000 C
ATOM     79   C  NAG B   5      12.926  12.029   7.3840  0.00  0.00     0.000 C
ATOM     80   O  NAG B   5      15.331  11.850   6.9250  0.00  0.00     0.000 OA
ENDBRANCH 66 78
BRANCH 65 81
ATOM     81  O4  BDP B   6      14.805  15.807   8.3270  0.00  0.00     0.000 O
BRANCH 81 85
ATOM     82  C1  BDP B   6      11.664  18.649   7.6760  0.00  0.00     0.000 C
ATOM     83  C2  BDP B   6      13.093  19.180   7.7470  0.00  0.00     0.000 C
ATOM     84  C3  BDP B   6      14.146  18.083   7.5700  0.00  0.00     0.000 C
ATOM     85  C4  BDP B   6      13.905  16.903   8.5130  0.00  0.00     0.000 C
ATOM     86  C5  BDP B   6      12.423  16.479   8.3780  0.00  0.00     0.000 C
ATOM     87  O5  BDP B   6      11.512  17.598   8.6200  0.00  0.00     0.000 O
ATOM     88   O  BDP B   6      13.201  20.121   6.6820  0.00  0.00     0.000 O
ATOM     90  HD  BDP B   6      13.754  20.367   6.0620  0.00  0.00     0.000 HD
ATOM     90   O  BDP B   6      15.451  18.634   7.7610  0.00  0.00     0.000 O
ATOM     92  HD  BDP B   6      16.003  18.880   7.1410  0.00  0.00     0.000 HD
BRANCH 86 92
ATOM     92   C  BDP B   6      12.058  15.480   9.4490  0.00  0.00     0.000 C
ATOM     93   O  BDP B   6      11.544  14.369   9.1170  0.00  0.00     0.000 OA
ATOM     94   O  BDP B   6      12.308  15.794  10.6540  0.00  0.00     0.000 OA
ENDBRANCH 86 92
BRANCH 82 95
ATOM     95  O3  NAG B   7      10.766  19.712   8.0490  0.00  0.00     0.000 O
BRANCH 95 98
ATOM     96  C1  NAG B   7       7.944  21.551   6.6360  0.00  0.00     0.000 C
ATOM     97  C2  NAG B   7       9.209  21.360   7.4620  0.00  0.00     0.000 C
ATOM     98  C3  NAG B   7       9.546  19.877   7.3270  0.00  0.00     0.000 C
ATOM     99  C4  NAG B   7       8.394  19.032   7.8670  0.00  0.00     0.000 C
ATOM    100  C5  NAG B   7       7.075  19.415   7.1940  0.00  0.00     0.000 C
ATOM    101  O5  NAG B   7       6.900  20.820   7.2890  0.00  0.00     0.000 O
BRANCH 97 104
ATOM    102   N  NAG B   7      10.484  22.065   7.6560  0.00  0.00     0.000 N
ATOM    104  HD  NAG B   7      11.098  22.590   7.9670  0.00  0.00     0.000 HD
ATOM    104   O  NAG B   7      12.200  23.445   7.1260  0.00  0.00     0.000 OA
ATOM    105   C  NAG B   7      11.148  22.862   6.7980  0.00  0.00     0.000 C
ATOM    106   C  NAG B   7      10.601  23.063   5.4250  0.00  0.00     0.000 C
ENDBRANCH 97 104
ATOM    107   O  NAG B   7       4.813  18.824   6.9920  0.00  0.00     0.000 O
ATOM    109  HD  NAG B   7       5.511  19.111   6.5670  0.00  0.00     0.000 HD
ATOM    109   O  NAG B   7       4.813  18.824   6.9920  0.00  0.00     0.000 O
ATOM    111  HD  NAG B   7       5.511  19.111   6.5670  0.00  0.00     0.000 HD
ENDBRANCH 95 98
ENDBRANCH 82 95
ENDBRANCH 81 85
ENDBRANCH 65 81
ENDBRANCH 64 67
ENDBRANCH 51 64
ENDBRANCH 50 54
ENDBRANCH 34 50
ENDBRANCH 33 36
ENDBRANCH 20 33
ENDBRANCH 19 23
ENDBRANCH 1 19
TORSDOF 19
ENDMDL
MODEL 20
REMARK VINA RESULT:      -6.0      7.088     12.555
ROOT
ATOM      1  C1  NAG B   1       2.236   8.470  20.0360  0.00  0.00     0.000 C
ATOM      2  C2  NAG B   1       1.412   7.671  19.0290  0.00  0.00     0.000 C
ATOM      3  C3  NAG B   1       0.590   6.592  19.7030  0.00  0.00     0.000 C
ATOM      4  C4  NAG B   1       1.593   5.722  20.4530  0.00  0.00     0.000 C
ATOM      5  C5  NAG B   1       2.282   6.567  21.5330  0.00  0.00     0.000 C
ATOM      6  O5  NAG B   1       3.006   7.670  20.9470  0.00  0.00     0.000 O
ATOM      7   O  NAG B   1      -0.163   5.806  18.7520  0.00  0.00     0.000 O
ATOM      9  HD  NAG B   1      -0.176   6.594  18.3940  0.00  0.00     0.000 HD
ATOM      9   O  NAG B   1       0.932   4.621  21.0540  0.00  0.00     0.000 O
ATOM     11  HD  NAG B   1       0.920   5.410  20.6960  0.00  0.00     0.000 HD
ATOM     11   C  NAG B   1       3.195   5.679  22.3890  0.00  0.00     0.000 C
ATOM     12   O  NAG B   1       4.293   6.422  22.9160  0.00  0.00     0.000 O
ATOM     14  HD  NAG B   1       4.281   7.211  22.5580  0.00  0.00     0.000 HD
ENDROOT
BRANCH 2 16
ATOM     14   N  NAG B   1       0.491   8.459  18.1910  0.00  0.00     0.000 N
ATOM     16  HD  NAG B   1       0.356   9.254  17.8750  0.00  0.00     0.000 HD
ATOM     16   C  NAG B   1       0.744   8.762  16.9060  0.00  0.00     0.000 C
ATOM     17   C  NAG B   1       2.032   8.314  16.2680  0.00  0.00     0.000 C
ATOM     18   O  NAG B   1      -0.073   9.380  16.2240  0.00  0.00     0.000 OA
ENDBRANCH 2 16
BRANCH 1 19
ATOM     19  O4  BDP B   2       3.179   9.147  19.2170  0.00  0.00     0.000 O
BRANCH 19 23
ATOM     20  C1  BDP B   2       7.284   9.323  18.9630  0.00  0.00     0.000 C
ATOM     21  C2  BDP B   2       6.654   7.961  18.7560  0.00  0.00     0.000 C
ATOM     22  C3  BDP B   2       5.177   8.080  18.4540  0.00  0.00     0.000 C
ATOM     23  C4  BDP B   2       4.525   8.910  19.5550  0.00  0.00     0.000 C
ATOM     24  C5  BDP B   2       5.228  10.249  19.6610  0.00  0.00     0.000 C
ATOM     25  O5  BDP B   2       6.593  10.044  19.9730  0.00  0.00     0.000 O
ATOM     26   O  BDP B   2       7.301   7.277  17.7040  0.00  0.00     0.000 O
ATOM     28  HD  BDP B   2       7.850   7.936  17.8250  0.00  0.00     0.000 HD
ATOM     28   O  BDP B   2       4.606   6.765  18.3580  0.00  0.00     0.000 O
ATOM     30  HD  BDP B   2       5.155   7.424  18.4790  0.00  0.00     0.000 HD
BRANCH 24 30
ATOM     30   C  BDP B   2       4.647  11.107  20.7270  0.00  0.00     0.000 C
ATOM     31   O  BDP B   2       4.161  12.207  20.3780  0.00  0.00     0.000 OA
ATOM     32   O  BDP B   2       4.680  10.688  21.9200  0.00  0.00     0.000 OA
ENDBRANCH 24 30
BRANCH 20 33
ATOM     33  O3  NAG B   3       8.585   9.031  19.4110  0.00  0.00     0.000 O
BRANCH 33 36
ATOM     34  C1  NAG B   3      11.620  10.902  18.2100  0.00  0.00     0.000 C
ATOM     35  C2  NAG B   3      10.550   9.827  18.2410  0.00  0.00     0.000 C
ATOM     36  C3  NAG B   3       9.457  10.155  19.2700  0.00  0.00     0.000 C
ATOM     37  C4  NAG B   3      10.107  10.450  20.6200  0.00  0.00     0.000 C
ATOM     38  C5  NAG B   3      11.222  11.478  20.4570  0.00  0.00     0.000 C
ATOM     39  O5  NAG B   3      12.173  11.016  19.5130  0.00  0.00     0.000 O
ATOM     40   O  NAG B   3       9.124  10.952  21.5380  0.00  0.00     0.000 O
ATOM     42  HD  NAG B   3       9.698  11.597  21.6080  0.00  0.00     0.000 HD
ATOM     42   C  NAG B   3      12.014  11.737  21.7360  0.00  0.00     0.000 C
ATOM     43   O  NAG B   3      12.728  10.551  22.1060  0.00  0.00     0.000 O
ATOM     45  HD  NAG B   3      13.302  11.195  22.1760  0.00  0.00     0.000 HD
BRANCH 35 47
ATOM     45   N  NAG B   3      10.651   8.671  17.3590  0.00  0.00     0.000 N
ATOM     47  HD  NAG B   3      10.827   8.477  18.1850  0.00  0.00     0.000 HD
ATOM     47   C  NAG B   3       9.829   8.464  16.3500  0.00  0.00     0.000 C
ATOM     48   C  NAG B   3      10.061   7.214  15.5540  0.00  0.00     0.000 C
ATOM     49   O  NAG B   3       8.908   9.236  16.0910  0.00  0.00     0.000 OA
ENDBRANCH 35 47
BRANCH 34 50
ATOM     50  O4  BDP B   4      12.581  10.390  17.3100  0.00  0.00     0.000 O
BRANCH 50 54
ATOM     51  C1  BDP B   4      14.516  11.359  13.8650  0.00  0.00     0.000 C
ATOM     52  C2  BDP B   4      15.366  11.486  15.1240  0.00  0.00     0.000 C
ATOM     53  C3  BDP B   4      14.680  10.760  16.2400  0.00  0.00     0.000 C
ATOM     54  C4  BDP B   4      13.230  11.299  16.4050  0.00  0.00     0.000 C
ATOM     55  C5  BDP B   4      12.475  11.344  15.0840  0.00  0.00     0.000 C
ATOM     56  O5  BDP B   4      13.263  11.981  14.0820  0.00  0.00     0.000 O
ATOM     57   O  BDP B   4      16.642  10.920  14.9130  0.00  0.00     0.000 O
ATOM     59  HD  BDP B   4      17.166  11.600  14.7990  0.00  0.00     0.000 HD
ATOM     59   O  BDP B   4      15.408  11.063  17.4480  0.00  0.00     0.000 O
ATOM     61  HD  BDP B   4      15.932  11.744  17.3350  0.00  0.00     0.000 HD
BRANCH 55 61
ATOM     61   C  BDP B   4      11.184  12.120  15.2710  0.00  0.00     0.000 C
ATOM     62   O  BDP B   4      10.108  11.570  14.9190  0.00  0.00     0.000 OA
ATOM     63   O  BDP B   4      11.249  13.283  15.7750  0.00  0.00     0.000 OA
ENDBRANCH 55 61
BRANCH 51 64
ATOM     64  O3  NAG B   5      15.233  12.010  12.7980  0.00  0.00     0.000 O
BRANCH 64 67
ATOM     65  C1  NAG B   5      15.720  10.534   9.4550  0.00  0.00     0.000 C
ATOM     66  C2  NAG B   5      15.988  10.837  10.9190  0.00  0.00     0.000 C
ATOM     67  C3  NAG B   5      14.806  11.587  11.5180  0.00  0.00     0.000 C
ATOM     68  C4  NAG B   5      14.445  12.814  10.6690  0.00  0.00     0.000 C
ATOM     69  C5  NAG B   5      14.288  12.429   9.2070  0.00  0.00     0.000 C
ATOM     70  O5  NAG B   5      15.458  11.731   8.7570  0.00  0.00     0.000 O
ATOM     71   O  NAG B   5      13.257  13.382  11.1790  0.00  0.00     0.000 O
ATOM     73  HD  NAG B   5      13.691  14.118  11.0370  0.00  0.00     0.000 HD
ATOM     73   C  NAG B   5      14.051  13.615   8.2620  0.00  0.00     0.000 C
ATOM     74   O  NAG B   5      15.208  14.477   8.2690  0.00  0.00     0.000 O
ATOM     76  HD  NAG B   5      15.642  15.213   8.1270  0.00  0.00     0.000 HD
BRANCH 66 78
ATOM     76   N  NAG B   5      16.221   9.547  11.5980  0.00  0.00     0.000 N
ATOM     78  HD  NAG B   5      16.677  10.258  11.4060  0.00  0.00     0.000 HD
ATOM     78   C  NAG B   5      17.298   9.224  12.3300  0.00  0.00     0.000 C
ATOM     79   C  NAG B   5      17.235   7.838  12.9110  0.00  0.00     0.000 C
ATOM     80   O  NAG B   5      18.290  10.018  12.5100  0.00  0.00     0.000 OA
ENDBRANCH 66 78
BRANCH 65 81
ATOM     81  O4  BDP B   6      16.849   9.869   8.8740  0.00  0.00     0.000 O
BRANCH 81 85
ATOM     82  C1  BDP B   6      17.759   7.012   5.8130  0.00  0.00     0.000 C
ATOM     83  C2  BDP B   6      17.467   8.445   5.3760  0.00  0.00     0.000 C
ATOM     84  C3  BDP B   6      17.561   9.449   6.5280  0.00  0.00     0.000 C
ATOM     85  C4  BDP B   6      16.725   9.015   7.7350  0.00  0.00     0.000 C
ATOM     86  C5  BDP B   6      17.083   7.545   8.0570  0.00  0.00     0.000 C
ATOM     87  O5  BDP B   6      16.905   6.672   6.8950  0.00  0.00     0.000 O
ATOM     88   O  BDP B   6      18.454   8.752   4.3950  0.00  0.00     0.000 O
ATOM     90  HD  BDP B   6      18.979   9.398   4.1550  0.00  0.00     0.000 HD
ATOM     90   O  BDP B   6      17.165  10.744   6.0700  0.00  0.00     0.000 O
ATOM     92  HD  BDP B   6      17.690  11.390   5.8300  0.00  0.00     0.000 HD
BRANCH 86 92
ATOM     92   C  BDP B   6      16.128   6.980   9.0810  0.00  0.00     0.000 C
ATOM     93   O  BDP B   6      14.881   7.154   8.9340  0.00  0.00     0.000 OA
ATOM     94   O  BDP B   6      16.627   6.325  10.0480  0.00  0.00     0.000 OA
ENDBRANCH 86 92
BRANCH 82 95
ATOM     95  O3  NAG B   7      17.453   6.131   4.7140  0.00  0.00     0.000 O
BRANCH 95 98
ATOM     96  C1  NAG B   7      19.007   3.106   3.3830  0.00  0.00     0.000 C
ATOM     97  C2  NAG B   7      18.437   4.517   3.3320  0.00  0.00     0.000 C
ATOM     98  C3  NAG B   7      17.929   4.787   4.7470  0.00  0.00     0.000 C
ATOM     99  C4  NAG B   7      16.857   3.764   5.1170  0.00  0.00     0.000 C
ATOM    100  C5  NAG B   7      17.373   2.338   4.9230  0.00  0.00     0.000 C
ATOM    101  O5  NAG B   7      17.909   2.216   3.6150  0.00  0.00     0.000 O
BRANCH 97 104
ATOM    102   N  NAG B   7      19.325   5.668   3.1180  0.00  0.00     0.000 N
ATOM    104  HD  NAG B   7      19.703   6.444   3.1880  0.00  0.00     0.000 HD
ATOM    104   O  NAG B   7      20.247   7.403   1.9900  0.00  0.00     0.000 OA
ATOM    105   C  NAG B   7      19.494   6.409   2.0060  0.00  0.00     0.000 C
ATOM    106   C  NAG B   7      18.750   6.039   0.7690  0.00  0.00     0.000 C
ENDBRANCH 97 104
ATOM    107   O  NAG B   7      16.855   0.076   5.2690  0.00  0.00     0.000 O
ATOM    109  HD  NAG B   7      17.486   0.669   5.2880  0.00  0.00     0.000 HD
ATOM    109   O  NAG B   7      16.855   0.076   5.2690  0.00  0.00     0.000 O
ATOM    111  HD  NAG B   7      17.486   0.669   5.2880  0.00  0.00     0.000 HD
ENDBRANCH 95 98
ENDBRANCH 82 95
ENDBRANCH 81 85
ENDBRANCH 65 81
ENDBRANCH 64 67
ENDBRANCH 51 64
ENDBRANCH 50 54
ENDBRANCH 34 50
ENDBRANCH 33 36
ENDBRANCH 20 33
ENDBRANCH 19 23
ENDBRANCH 1 19
TORSDOF 19
ENDMDL
MODEL 21
REMARK VINA RESULT:      -6.0      6.165     16.746
ROOT
ATOM      1  C1  NAG B   1       6.785  22.247   7.0280  0.00  0.00     0.000 C
ATOM      2  C2  NAG B   1       6.153  22.096   5.6470  0.00  0.00     0.000 C
ATOM      3  C3  NAG B   1       4.641  22.037   5.7230  0.00  0.00     0.000 C
ATOM      4  C4  NAG B   1       4.324  20.860   6.6400  0.00  0.00     0.000 C
ATOM      5  C5  NAG B   1       4.879  21.149   8.0400  0.00  0.00     0.000 C
ATOM      6  O5  NAG B   1       6.313  21.310   8.0080  0.00  0.00     0.000 O
ATOM      7   O  NAG B   1       4.036  21.855   4.4220  0.00  0.00     0.000 O
ATOM      9  HD  NAG B   1       4.724  22.350   4.2410  0.00  0.00     0.000 HD
ATOM      9   O  NAG B   1       2.922  20.661   6.7100  0.00  0.00     0.000 O
ATOM     11  HD  NAG B   1       3.609  21.155   6.5290  0.00  0.00     0.000 HD
ATOM     11   C  NAG B   1       4.452  20.042   9.0110  0.00  0.00     0.000 C
ATOM     12   O  NAG B   1       5.404  19.880  10.0620  0.00  0.00     0.000 O
ATOM     14  HD  NAG B   1       6.091  20.375   9.8810  0.00  0.00     0.000 HD
ENDROOT
BRANCH 2 16
ATOM     14   N  NAG B   1       7.106  21.960   4.5320  0.00  0.00     0.000 N
ATOM     16  HD  NAG B   1       7.153  21.827   3.6770  0.00  0.00     0.000 HD
ATOM     16   C  NAG B   1       7.382  22.958   3.6740  0.00  0.00     0.000 C
ATOM     17   C  NAG B   1       6.681  24.284   3.8140  0.00  0.00     0.000 C
ATOM     18   O  NAG B   1       8.221  22.822   2.7850  0.00  0.00     0.000 OA
ENDBRANCH 2 16
BRANCH 1 19
ATOM     19  O4  BDP B   2       8.149  21.918   6.7970  0.00  0.00     0.000 O
BRANCH 19 23
ATOM     20  C1  BDP B   2      10.921  19.415   8.5270  0.00  0.00     0.000 C
ATOM     21  C2  BDP B   2       9.734  18.748   7.8620  0.00  0.00     0.000 C
ATOM     22  C3  BDP B   2       9.027  19.698   6.9220  0.00  0.00     0.000 C
ATOM     23  C4  BDP B   2       8.682  20.971   7.6910  0.00  0.00     0.000 C
ATOM     24  C5  BDP B   2       9.943  21.551   8.2980  0.00  0.00     0.000 C
ATOM     25  O5  BDP B   2      10.520  20.609   9.1830  0.00  0.00     0.000 O
ATOM     26   O  BDP B   2      10.150  17.600   7.1540  0.00  0.00     0.000 O
ATOM     28  HD  BDP B   2      10.867  17.774   7.6080  0.00  0.00     0.000 HD
ATOM     28   O  BDP B   2       7.859  19.055   6.3890  0.00  0.00     0.000 O
ATOM     30  HD  BDP B   2       8.575  19.229   6.8430  0.00  0.00     0.000 HD
BRANCH 24 30
ATOM     30   C  BDP B   2       9.675  22.791   9.0740  0.00  0.00     0.000 C
ATOM     31   O  BDP B   2      10.298  23.824   8.7380  0.00  0.00     0.000 OA
ATOM     32   O  BDP B   2       8.846  22.736  10.0270  0.00  0.00     0.000 OA
ENDBRANCH 24 30
BRANCH 20 33
ATOM     33  O3  NAG B   3      11.343  18.478   9.4880  0.00  0.00     0.000 O
BRANCH 33 36
ATOM     34  C1  NAG B   3      14.819  17.224  10.1870  0.00  0.00     0.000 C
ATOM     35  C2  NAG B   3      13.381  17.190   9.7060  0.00  0.00     0.000 C
ATOM     36  C3  NAG B   3      12.743  18.587   9.7530  0.00  0.00     0.000 C
ATOM     37  C4  NAG B   3      12.938  19.185  11.1440  0.00  0.00     0.000 C
ATOM     38  C5  NAG B   3      14.403  19.090  11.5610  0.00  0.00     0.000 C
ATOM     39  O5  NAG B   3      14.833  17.740  11.5100  0.00  0.00     0.000 O
ATOM     40   O  NAG B   3      12.529  20.562  11.1480  0.00  0.00     0.000 O
ATOM     42  HD  NAG B   3      13.329  20.670  11.4620  0.00  0.00     0.000 HD
ATOM     42   C  NAG B   3      14.668  19.547  12.9930  0.00  0.00     0.000 C
ATOM     43   O  NAG B   3      14.019  18.655  13.9080  0.00  0.00     0.000 O
ATOM     45  HD  NAG B   3      14.819  18.764  14.2220  0.00  0.00     0.000 HD
BRANCH 35 47
ATOM     45   N  NAG B   3      13.376  16.558   8.3930  0.00  0.00     0.000 N
ATOM     47  HD  NAG B   3      14.175  16.664   8.7090  0.00  0.00     0.000 HD
ATOM     47   C  NAG B   3      12.465  15.679   8.0250  0.00  0.00     0.000 C
ATOM     48   C  NAG B   3      12.618  15.108   6.6460  0.00  0.00     0.000 C
ATOM     49   O  NAG B   3      11.559  15.325   8.7760  0.00  0.00     0.000 OA
ENDBRANCH 35 47
BRANCH 34 50
ATOM     50  O4  BDP B   4      15.204  15.865  10.1850  0.00  0.00     0.000 O
BRANCH 50 54
ATOM     51  C1  BDP B   4      18.283  13.341   9.3470  0.00  0.00     0.000 C
ATOM     52  C2  BDP B   4      18.278  13.880  10.7730  0.00  0.00     0.000 C
ATOM     53  C3  BDP B   4      16.932  14.471  11.0570  0.00  0.00     0.000 C
ATOM     54  C4  BDP B   4      16.590  15.541   9.9810  0.00  0.00     0.000 C
ATOM     55  C5  BDP B   4      16.799  15.025   8.5640  0.00  0.00     0.000 C
ATOM     56  O5  BDP B   4      18.079  14.411   8.4420  0.00  0.00     0.000 O
ATOM     57   O  BDP B   4      18.536  12.839  11.6910  0.00  0.00     0.000 O
ATOM     59  HD  BDP B   4      19.362  12.952  11.9230  0.00  0.00     0.000 HD
ATOM     59   O  BDP B   4      17.027  15.138  12.3330  0.00  0.00     0.000 O
ATOM     61  HD  BDP B   4      17.854  15.251  12.5650  0.00  0.00     0.000 HD
BRANCH 55 61
ATOM     61   C  BDP B   4      16.707  16.186   7.5900  0.00  0.00     0.000 C
ATOM     62   O  BDP B   4      15.871  16.106   6.6520  0.00  0.00     0.000 OA
ATOM     63   O  BDP B   4      17.475  17.181   7.7670  0.00  0.00     0.000 OA
ENDBRANCH 55 61
BRANCH 51 64
ATOM     64  O3  NAG B   5      19.566  12.723   9.1270  0.00  0.00     0.000 O
BRANCH 64 67
ATOM     65  C1  NAG B   5      19.670   9.624   7.1330  0.00  0.00     0.000 C
ATOM     66  C2  NAG B   5      19.408  10.531   8.3230  0.00  0.00     0.000 C
ATOM     67  C3  NAG B   5      19.616  11.986   7.9220  0.00  0.00     0.000 C
ATOM     68  C4  NAG B   5      20.985  12.184   7.2580  0.00  0.00     0.000 C
ATOM     69  C5  NAG B   5      21.193  11.173   6.1420  0.00  0.00     0.000 C
ATOM     70  O5  NAG B   5      20.971   9.845   6.6380  0.00  0.00     0.000 O
ATOM     71   O  NAG B   5      21.064  13.507   6.7710  0.00  0.00     0.000 O
ATOM     73  HD  NAG B   5      21.864  13.451   7.0990  0.00  0.00     0.000 HD
ATOM     73   C  NAG B   5      22.589  11.213   5.5040  0.00  0.00     0.000 C
ATOM     74   O  NAG B   5      23.581  10.849   6.4870  0.00  0.00     0.000 O
ATOM     76  HD  NAG B   5      24.380  10.794   6.8150  0.00  0.00     0.000 HD
BRANCH 66 78
ATOM     76   N  NAG B   5      18.931  10.025   9.6250  0.00  0.00     0.000 N
ATOM     78  HD  NAG B   5      18.598  10.444   8.9430  0.00  0.00     0.000 HD
ATOM     78   C  NAG B   5      17.649   9.933  10.0140  0.00  0.00     0.000 C
ATOM     79   C  NAG B   5      17.482   9.358  11.3940  0.00  0.00     0.000 C
ATOM     80   O  NAG B   5      16.664  10.307   9.2830  0.00  0.00     0.000 OA
ENDBRANCH 66 78
BRANCH 65 81
ATOM     81  O4  BDP B   6      19.521   8.251   7.5170  0.00  0.00     0.000 O
BRANCH 81 85
ATOM     82  C1  BDP B   6      18.988   4.391   5.7350  0.00  0.00     0.000 C
ATOM     83  C2  BDP B   6      20.404   4.959   5.7770  0.00  0.00     0.000 C
ATOM     84  C3  BDP B   6      20.552   6.114   6.7710  0.00  0.00     0.000 C
ATOM     85  C4  BDP B   6      19.487   7.192   6.5580  0.00  0.00     0.000 C
ATOM     86  C5  BDP B   6      18.108   6.493   6.4980  0.00  0.00     0.000 C
ATOM     87  O5  BDP B   6      18.072   5.444   5.4770  0.00  0.00     0.000 O
ATOM     88   O  BDP B   6      21.237   3.875   6.1790  0.00  0.00     0.000 O
ATOM     90  HD  BDP B   6      21.909   3.707   6.6990  0.00  0.00     0.000 HD
ATOM     90   O  BDP B   6      21.867   6.667   6.6720  0.00  0.00     0.000 O
ATOM     92  HD  BDP B   6      22.539   6.499   7.1920  0.00  0.00     0.000 HD
BRANCH 86 92
ATOM     92   C  BDP B   6      17.041   7.464   6.0540  0.00  0.00     0.000 C
ATOM     93   O  BDP B   6      15.995   7.605   6.7570  0.00  0.00     0.000 OA
ATOM     94   O  BDP B   6      17.254   8.123   4.9900  0.00  0.00     0.000 OA
ENDBRANCH 86 92
BRANCH 82 95
ATOM     95  O3  NAG B   7      18.907   3.456   4.6410  0.00  0.00     0.000 O
BRANCH 95 98
ATOM     96  C1  NAG B   7      17.039   0.329   4.3720  0.00  0.00     0.000 C
ATOM     97  C2  NAG B   7      18.280   1.209   4.4430  0.00  0.00     0.000 C
ATOM     98  C3  NAG B   7      17.746   2.638   4.5110  0.00  0.00     0.000 C
ATOM     99  C4  NAG B   7      16.916   2.941   3.2660  0.00  0.00     0.000 C
ATOM    100  C5  NAG B   7      15.818   1.895   3.0730  0.00  0.00     0.000 C
ATOM    101  O5  NAG B   7      16.400   0.602   3.1190  0.00  0.00     0.000 O
BRANCH 97 104
ATOM    102   N  NAG B   7      19.583   1.094   5.1130  0.00  0.00     0.000 N
ATOM    104  HD  NAG B   7      20.381   0.837   5.3280  0.00  0.00     0.000 HD
ATOM    104   O  NAG B   7      21.015   0.690   6.8200  0.00  0.00     0.000 OA
ATOM    105   C  NAG B   7      19.847   0.815   6.4040  0.00  0.00     0.000 C
ATOM    106   C  NAG B   7      18.712   0.635   7.3530  0.00  0.00     0.000 C
ENDBRANCH 97 104
ATOM    107   O  NAG B   7      13.929   1.350   1.7920  0.00  0.00     0.000 O
ATOM    109  HD  NAG B   7      14.271   1.345   2.5880  0.00  0.00     0.000 HD
ATOM    109   O  NAG B   7      13.929   1.350   1.7920  0.00  0.00     0.000 O
ATOM    111  HD  NAG B   7      14.271   1.345   2.5880  0.00  0.00     0.000 HD
ENDBRANCH 95 98
ENDBRANCH 82 95
ENDBRANCH 81 85
ENDBRANCH 65 81
ENDBRANCH 64 67
ENDBRANCH 51 64
ENDBRANCH 50 54
ENDBRANCH 34 50
ENDBRANCH 33 36
ENDBRANCH 20 33
ENDBRANCH 19 23
ENDBRANCH 1 19
TORSDOF 19
ENDMDL
MODEL 22
REMARK VINA RESULT:      -6.0      2.356     16.779
ROOT
ATOM      1  C1  NAG B   1       4.899  23.093   6.5820  0.00  0.00     0.000 C
ATOM      2  C2  NAG B   1       3.557  23.181   5.8610  0.00  0.00     0.000 C
ATOM      3  C3  NAG B   1       2.564  22.167   6.3910  0.00  0.00     0.000 C
ATOM      4  C4  NAG B   1       3.232  20.808   6.2100  0.00  0.00     0.000 C
ATOM      5  C5  NAG B   1       4.502  20.754   7.0690  0.00  0.00     0.000 C
ATOM      6  O5  NAG B   1       5.447  21.768   6.6650  0.00  0.00     0.000 O
ATOM      7   O  NAG B   1       1.302  22.219   5.6860  0.00  0.00     0.000 O
ATOM      9  HD  NAG B   1       1.547  23.050   5.6920  0.00  0.00     0.000 HD
ATOM      9   O  NAG B   1       2.345  19.773   6.5980  0.00  0.00     0.000 O
ATOM     11  HD  NAG B   1       2.590  20.603   6.6040  0.00  0.00     0.000 HD
ATOM     11   C  NAG B   1       5.115  19.350   7.0090  0.00  0.00     0.000 C
ATOM     12   O  NAG B   1       6.529  19.393   7.1950  0.00  0.00     0.000 O
ATOM     14  HD  NAG B   1       6.774  20.224   7.2010  0.00  0.00     0.000 HD
ENDROOT
BRANCH 2 16
ATOM     14   N  NAG B   1       3.268  24.067   4.7190  0.00  0.00     0.000 N
ATOM     16  HD  NAG B   1       2.619  24.402   4.2530  0.00  0.00     0.000 HD
ATOM     16   C  NAG B   1       2.883  25.347   4.8610  0.00  0.00     0.000 C
ATOM     17   C  NAG B   1       2.703  25.930   6.2380  0.00  0.00     0.000 C
ATOM     18   O  NAG B   1       2.699  26.071   3.8830  0.00  0.00     0.000 OA
ENDBRANCH 2 16
BRANCH 1 19
ATOM     19  O4  BDP B   2       5.772  23.824   5.7320  0.00  0.00     0.000 O
BRANCH 19 23
ATOM     20  C1  BDP B   2       9.289  22.620   7.4980  0.00  0.00     0.000 C
ATOM     21  C2  BDP B   2       8.558  23.766   8.1660  0.00  0.00     0.000 C
ATOM     22  C3  BDP B   2       7.121  23.842   7.7050  0.00  0.00     0.000 C
ATOM     23  C4  BDP B   2       7.104  23.893   6.1800  0.00  0.00     0.000 C
ATOM     24  C5  BDP B   2       7.852  22.696   5.6270  0.00  0.00     0.000 C
ATOM     25  O5  BDP B   2       9.190  22.721   6.0840  0.00  0.00     0.000 O
ATOM     26   O  BDP B   2       8.601  23.622   9.5690  0.00  0.00     0.000 O
ATOM     28  HD  BDP B   2       9.180  23.023   9.3320  0.00  0.00     0.000 HD
ATOM     28   O  BDP B   2       6.496  24.996   8.2910  0.00  0.00     0.000 O
ATOM     30  HD  BDP B   2       7.075  24.397   8.0530  0.00  0.00     0.000 HD
BRANCH 24 30
ATOM     30   C  BDP B   2       7.883  22.690   4.1410  0.00  0.00     0.000 C
ATOM     31   O  BDP B   2       8.937  23.082   3.5880  0.00  0.00     0.000 OA
ATOM     32   O  BDP B   2       6.854  22.302   3.5190  0.00  0.00     0.000 OA
ENDBRANCH 24 30
BRANCH 20 33
ATOM     33  O3  NAG B   3      10.630  22.801   7.8820  0.00  0.00     0.000 O
BRANCH 33 36
ATOM     34  C1  NAG B   3      12.705  19.673   8.1370  0.00  0.00     0.000 C
ATOM     35  C2  NAG B   3      11.660  20.705   8.5190  0.00  0.00     0.000 C
ATOM     36  C3  NAG B   3      11.465  21.743   7.4040  0.00  0.00     0.000 C
ATOM     37  C4  NAG B   3      12.821  22.323   7.0100  0.00  0.00     0.000 C
ATOM     38  C5  NAG B   3      13.816  21.200   6.7300  0.00  0.00     0.000 C
ATOM     39  O5  NAG B   3      13.921  20.354   7.8630  0.00  0.00     0.000 O
ATOM     40   O  NAG B   3      12.684  23.142   5.8390  0.00  0.00     0.000 O
ATOM     42  HD  NAG B   3      13.308  22.616   5.5490  0.00  0.00     0.000 HD
ATOM     42   C  NAG B   3      15.236  21.687   6.4550  0.00  0.00     0.000 C
ATOM     43   O  NAG B   3      15.771  22.297   7.6360  0.00  0.00     0.000 O
ATOM     45  HD  NAG B   3      16.395  21.772   7.3460  0.00  0.00     0.000 HD
BRANCH 35 47
ATOM     45   N  NAG B   3      10.917  20.831   9.7670  0.00  0.00     0.000 N
ATOM     47  HD  NAG B   3      11.364  21.546   9.5710  0.00  0.00     0.000 HD
ATOM     47   C  NAG B   3       9.715  20.319   9.9400  0.00  0.00     0.000 C
ATOM     48   C  NAG B   3       9.082  20.557  11.2790  0.00  0.00     0.000 C
ATOM     49   O  NAG B   3       9.134  19.704   9.0490  0.00  0.00     0.000 OA
ENDBRANCH 35 47
BRANCH 34 50
ATOM     50  O4  BDP B   4      12.834  18.882   9.2990  0.00  0.00     0.000 O
BRANCH 50 54
ATOM     51  C1  BDP B   4      13.494  15.034  10.4440  0.00  0.00     0.000 C
ATOM     52  C2  BDP B   4      14.694  15.959  10.6160  0.00  0.00     0.000 C
ATOM     53  C3  BDP B   4      14.222  17.378  10.5240  0.00  0.00     0.000 C
ATOM     54  C4  BDP B   4      13.454  17.590   9.1880  0.00  0.00     0.000 C
ATOM     55  C5  BDP B   4      12.392  16.523   8.9550  0.00  0.00     0.000 C
ATOM     56  O5  BDP B   4      12.939  15.223   9.1550  0.00  0.00     0.000 O
ATOM     57   O  BDP B   4      15.298  15.748  11.8750  0.00  0.00     0.000 O
ATOM     59  HD  BDP B   4      16.007  15.282  11.7010  0.00  0.00     0.000 HD
ATOM     59   O  BDP B   4      15.400  18.210  10.4960  0.00  0.00     0.000 O
ATOM     61  HD  BDP B   4      16.108  17.744  10.3230  0.00  0.00     0.000 HD
BRANCH 55 61
ATOM     61   C  BDP B   4      11.875  16.634   7.5320  0.00  0.00     0.000 C
ATOM     62   O  BDP B   4      12.698  16.483   6.5910  0.00  0.00     0.000 OA
ATOM     63   O  BDP B   4      10.641  16.871   7.3570  0.00  0.00     0.000 OA
ENDBRANCH 55 61
BRANCH 51 64
ATOM     64  O3  NAG B   5      13.970  13.684  10.6030  0.00  0.00     0.000 O
BRANCH 64 67
ATOM     65  C1  NAG B   5      12.156  10.906  12.2110  0.00  0.00     0.000 C
ATOM     66  C2  NAG B   5      13.097  12.091  12.0790  0.00  0.00     0.000 C
ATOM     67  C3  NAG B   5      12.917  12.746  10.7150  0.00  0.00     0.000 C
ATOM     68  C4  NAG B   5      13.032  11.711   9.5870  0.00  0.00     0.000 C
ATOM     69  C5  NAG B   5      12.123  10.522   9.8540  0.00  0.00     0.000 C
ATOM     70  O5  NAG B   5      12.383   9.992  11.1620  0.00  0.00     0.000 O
ATOM     71   O  NAG B   5      12.708  12.338   8.3650  0.00  0.00     0.000 O
ATOM     73  HD  NAG B   5      13.388  11.878   8.0880  0.00  0.00     0.000 HD
ATOM     73   C  NAG B   5      12.266   9.377   8.8420  0.00  0.00     0.000 C
ATOM     74   O  NAG B   5      13.595   8.820   8.9250  0.00  0.00     0.000 O
ATOM     76  HD  NAG B   5      14.274   8.360   8.6490  0.00  0.00     0.000 HD
BRANCH 66 78
ATOM     76   N  NAG B   5      12.779  12.850  13.3040  0.00  0.00     0.000 N
ATOM     78  HD  NAG B   5      13.488  12.554  12.9030  0.00  0.00     0.000 HD
ATOM     78   C  NAG B   5      13.661  13.495  14.0830  0.00  0.00     0.000 C
ATOM     79   C  NAG B   5      13.027  14.195  15.2540  0.00  0.00     0.000 C
ATOM     80   O  NAG B   5      14.924  13.506  13.8570  0.00  0.00     0.000 OA
ENDBRANCH 66 78
BRANCH 65 81
ATOM     81  O4  BDP B   6      12.354  10.257  13.4740  0.00  0.00     0.000 O
BRANCH 81 85
ATOM     82  C1  BDP B   6      10.461   7.378  16.0220  0.00  0.00     0.000 C
ATOM     83  C2  BDP B   6      11.212   6.854  14.8010  0.00  0.00     0.000 C
ATOM     84  C3  BDP B   6      12.172   7.887  14.2040  0.00  0.00     0.000 C
ATOM     85  C4  BDP B   6      11.482   9.227  13.9450  0.00  0.00     0.000 C
ATOM     86  C5  BDP B   6      10.732   9.633  15.2360  0.00  0.00     0.000 C
ATOM     87  O5  BDP B   6       9.805   8.591  15.6800  0.00  0.00     0.000 O
ATOM     88   O  BDP B   6      11.951   5.727  15.2630  0.00  0.00     0.000 O
ATOM     90  HD  BDP B   6      12.732   5.362  15.1820  0.00  0.00     0.000 HD
ATOM     90   O  BDP B   6      12.750   7.367  13.0040  0.00  0.00     0.000 O
ATOM     92  HD  BDP B   6      13.531   7.002  12.9220  0.00  0.00     0.000 HD
BRANCH 86 92
ATOM     92   C  BDP B   6       9.838  10.822  14.9770  0.00  0.00     0.000 C
ATOM     93   O  BDP B   6       8.694  10.642  14.4610  0.00  0.00     0.000 OA
ATOM     94   O  BDP B   6      10.272  11.967  15.3160  0.00  0.00     0.000 OA
ENDBRANCH 86 92
BRANCH 82 95
ATOM     95  O3  NAG B   7       9.452   6.415  16.3820  0.00  0.00     0.000 O
BRANCH 95 98
ATOM     96  C1  NAG B   7       8.552   4.260  19.1900  0.00  0.00     0.000 C
ATOM     97  C2  NAG B   7       8.668   4.666  17.7270  0.00  0.00     0.000 C
ATOM     98  C3  NAG B   7       9.285   6.062  17.7540  0.00  0.00     0.000 C
ATOM     99  C4  NAG B   7       8.377   7.016  18.5280  0.00  0.00     0.000 C
ATOM    100  C5  NAG B   7       8.068   6.466  19.9210  0.00  0.00     0.000 C
ATOM    101  O5  NAG B   7       7.592   5.135  19.7950  0.00  0.00     0.000 O
BRANCH 97 104
ATOM    102   N  NAG B   7       9.424   4.143  16.5810  0.00  0.00     0.000 N
ATOM    104  HD  NAG B   7       9.701   3.989  15.7750  0.00  0.00     0.000 HD
ATOM    104   O  NAG B   7      10.208   2.575  15.1460  0.00  0.00     0.000 OA
ATOM    105   C  NAG B   7       9.581   2.866  16.1840  0.00  0.00     0.000 C
ATOM    106   C  NAG B   7       8.976   1.774  16.9990  0.00  0.00     0.000 C
ENDBRANCH 97 104
ATOM    107   O  NAG B   7       7.053   6.976  21.9730  0.00  0.00     0.000 O
ATOM    109  HD  NAG B   7       7.728   6.589  21.5940  0.00  0.00     0.000 HD
ATOM    109   O  NAG B   7       7.053   6.976  21.9730  0.00  0.00     0.000 O
ATOM    111  HD  NAG B   7       7.728   6.589  21.5940  0.00  0.00     0.000 HD
ENDBRANCH 95 98
ENDBRANCH 82 95
ENDBRANCH 81 85
ENDBRANCH 65 81
ENDBRANCH 64 67
ENDBRANCH 51 64
ENDBRANCH 50 54
ENDBRANCH 34 50
ENDBRANCH 33 36
ENDBRANCH 20 33
ENDBRANCH 19 23
ENDBRANCH 1 19
TORSDOF 19
ENDMDL
MODEL 23
REMARK VINA RESULT:      -6.0      1.361      2.424
ROOT
ATOM      1  C1  NAG B   1      12.300   4.723  16.0520  0.00  0.00     0.000 C
ATOM      2  C2  NAG B   1      11.687   3.688  16.9920  0.00  0.00     0.000 C
ATOM      3  C3  NAG B   1      11.138   4.326  18.2520  0.00  0.00     0.000 C
ATOM      4  C4  NAG B   1      12.316   5.061  18.8840  0.00  0.00     0.000 C
ATOM      5  C5  NAG B   1      12.787   6.169  17.9330  0.00  0.00     0.000 C
ATOM      6  O5  NAG B   1      13.233   5.619  16.6750  0.00  0.00     0.000 O
ATOM      7   O  NAG B   1      10.591   3.348  19.1650  0.00  0.00     0.000 O
ATOM      9  HD  NAG B   1      10.395   3.011  18.3920  0.00  0.00     0.000 HD
ATOM      9   O  NAG B   1      11.929   5.627  20.1250  0.00  0.00     0.000 O
ATOM     11  HD  NAG B   1      11.733   5.290  19.3520  0.00  0.00     0.000 HD
ATOM     11   C  NAG B   1      13.880   7.008  18.6060  0.00  0.00     0.000 C
ATOM     12   O  NAG B   1      14.773   7.563  17.6430  0.00  0.00     0.000 O
ATOM     14  HD  NAG B   1      14.578   7.227  16.8700  0.00  0.00     0.000 HD
ENDROOT
BRANCH 2 16
ATOM     14   N  NAG B   1      11.827   2.319  16.4660  0.00  0.00     0.000 N
ATOM     16  HD  NAG B   1      11.733   1.485  16.6790  0.00  0.00     0.000 HD
ATOM     16   C  NAG B   1      10.786   1.590  16.0280  0.00  0.00     0.000 C
ATOM     17   C  NAG B   1       9.392   2.158  16.0890  0.00  0.00     0.000 C
ATOM     18   O  NAG B   1      10.948   0.468  15.5490  0.00  0.00     0.000 OA
ENDBRANCH 2 16
BRANCH 1 19
ATOM     19  O4  BDP B   2      13.060   3.930  15.1500  0.00  0.00     0.000 O
BRANCH 19 23
ATOM     20  C1  BDP B   2      13.302   6.783  12.1930  0.00  0.00     0.000 C
ATOM     21  C2  BDP B   2      12.081   5.887  12.1660  0.00  0.00     0.000 C
ATOM     22  C3  BDP B   2      11.884   5.188  13.4920  0.00  0.00     0.000 C
ATOM     23  C4  BDP B   2      13.181   4.469  13.8560  0.00  0.00     0.000 C
ATOM     24  C5  BDP B   2      14.324   5.464  13.8620  0.00  0.00     0.000 C
ATOM     25  O5  BDP B   2      14.454   6.046  12.5790  0.00  0.00     0.000 O
ATOM     26   O  BDP B   2      10.929   6.639  11.8490  0.00  0.00     0.000 O
ATOM     28  HD  BDP B   2      11.549   7.215  11.6650  0.00  0.00     0.000 HD
ATOM     28   O  BDP B   2      10.775   4.282  13.3890  0.00  0.00     0.000 O
ATOM     30  HD  BDP B   2      11.395   4.858  13.2050  0.00  0.00     0.000 HD
BRANCH 24 30
ATOM     30   C  BDP B   2      15.623   4.825  14.2000  0.00  0.00     0.000 C
ATOM     31   O  BDP B   2      16.007   3.884  13.4680  0.00  0.00     0.000 OA
ATOM     32   O  BDP B   2      16.262   5.255  15.2020  0.00  0.00     0.000 OA
ENDBRANCH 24 30
BRANCH 20 33
ATOM     33  O3  NAG B   3      13.447   7.201  10.8570  0.00  0.00     0.000 O
BRANCH 33 36
ATOM     34  C1  NAG B   3      14.938  10.571  10.1030  0.00  0.00     0.000 C
ATOM     35  C2  NAG B   3      13.876   9.552  10.4690  0.00  0.00     0.000 C
ATOM     36  C3  NAG B   3      14.492   8.166  10.7160  0.00  0.00     0.000 C
ATOM     37  C4  NAG B   3      15.363   7.781   9.5230  0.00  0.00     0.000 C
ATOM     38  C5  NAG B   3      16.334   8.910   9.1900  0.00  0.00     0.000 C
ATOM     39  O5  NAG B   3      15.617  10.108   8.9450  0.00  0.00     0.000 O
ATOM     40   O  NAG B   3      16.103   6.587   9.8210  0.00  0.00     0.000 O
ATOM     42  HD  NAG B   3      16.770   7.092   9.5940  0.00  0.00     0.000 HD
ATOM     42   C  NAG B   3      17.157   8.665   7.9280  0.00  0.00     0.000 C
ATOM     43   O  NAG B   3      16.290   8.645   6.7870  0.00  0.00     0.000 O
ATOM     45  HD  NAG B   3      16.957   9.149   6.5600  0.00  0.00     0.000 HD
BRANCH 35 47
ATOM     45   N  NAG B   3      12.452   9.855  10.5400  0.00  0.00     0.000 N
ATOM     47  HD  NAG B   3      12.644   9.304   9.9000  0.00  0.00     0.000 HD
ATOM     47   C  NAG B   3      11.807  10.006  11.6800  0.00  0.00     0.000 C
ATOM     48   C  NAG B   3      10.339  10.295  11.5750  0.00  0.00     0.000 C
ATOM     49   O  NAG B   3      12.369   9.892  12.7670  0.00  0.00     0.000 OA
ENDBRANCH 35 47
BRANCH 34 50
ATOM     50  O4  BDP B   4      14.195  11.735   9.8050  0.00  0.00     0.000 O
BRANCH 50 54
ATOM     51  C1  BDP B   4      14.353  15.793   9.5650  0.00  0.00     0.000 C
ATOM     52  C2  BDP B   4      15.361  15.068   8.6810  0.00  0.00     0.000 C
ATOM     53  C3  BDP B   4      14.958  13.630   8.5740  0.00  0.00     0.000 C
ATOM     54  C4  BDP B   4      14.817  13.017   9.9970  0.00  0.00     0.000 C
ATOM     55  C5  BDP B   4      13.960  13.877  10.9160  0.00  0.00     0.000 C
ATOM     56  O5  BDP B   4      14.386  15.236  10.8660  0.00  0.00     0.000 O
ATOM     57   O  BDP B   4      15.386  15.644   7.3920  0.00  0.00     0.000 O
ATOM     59  HD  BDP B   4      16.107  16.124   7.3810  0.00  0.00     0.000 HD
ATOM     59   O  BDP B   4      16.031  12.942   7.8980  0.00  0.00     0.000 O
ATOM     61  HD  BDP B   4      16.752  13.422   7.8870  0.00  0.00     0.000 HD
BRANCH 55 61
ATOM     61   C  BDP B   4      14.085  13.367  12.3400  0.00  0.00     0.000 C
ATOM     62   O  BDP B   4      15.217  13.414  12.8880  0.00  0.00     0.000 OA
ATOM     63   O  BDP B   4      13.044  12.919  12.9110  0.00  0.00     0.000 OA
ENDBRANCH 55 61
BRANCH 51 64
ATOM     64  O3  NAG B   5      14.732  17.183   9.5940  0.00  0.00     0.000 O
BRANCH 64 67
ATOM     65  C1  NAG B   5      12.261  19.841   8.9430  0.00  0.00     0.000 C
ATOM     66  C2  NAG B   5      13.259  18.735   8.6460  0.00  0.00     0.000 C
ATOM     67  C3  NAG B   5      13.656  18.033   9.9380  0.00  0.00     0.000 C
ATOM     68  C4  NAG B   5      14.121  19.045  10.9940  0.00  0.00     0.000 C
ATOM     69  C5  NAG B   5      13.102  20.162  11.1550  0.00  0.00     0.000 C
ATOM     70  O5  NAG B   5      12.809  20.744   9.8760  0.00  0.00     0.000 O
ATOM     71   O  NAG B   5      14.330  18.364  12.2120  0.00  0.00     0.000 O
ATOM     73  HD  NAG B   5      15.031  18.871  12.2370  0.00  0.00     0.000 HD
ATOM     73   C  NAG B   5      13.543  21.289  12.0990  0.00  0.00     0.000 C
ATOM     74   O  NAG B   5      14.699  21.955  11.5510  0.00  0.00     0.000 O
ATOM     76  HD  NAG B   5      15.400  22.463  11.5760  0.00  0.00     0.000 HD
BRANCH 66 78
ATOM     76   N  NAG B   5      13.578  18.458   7.2320  0.00  0.00     0.000 N
ATOM     78  HD  NAG B   5      13.191  18.049   7.8890  0.00  0.00     0.000 HD
ATOM     78   C  NAG B   5      13.110  17.433   6.5030  0.00  0.00     0.000 C
ATOM     79   C  NAG B   5      13.605  17.432   5.0820  0.00  0.00     0.000 C
ATOM     80   O  NAG B   5      12.325  16.535   6.9750  0.00  0.00     0.000 OA
ENDBRANCH 66 78
BRANCH 65 81
ATOM     81  O4  BDP B   6      11.920  20.535   7.7360  0.00  0.00     0.000 O
BRANCH 81 85
ATOM     82  C1  BDP B   6       8.276  21.918   5.9540  0.00  0.00     0.000 C
ATOM     83  C2  BDP B   6       9.287  22.971   6.4020  0.00  0.00     0.000 C
ATOM     84  C3  BDP B   6      10.685  22.392   6.6350  0.00  0.00     0.000 C
ATOM     85  C4  BDP B   6      10.653  21.172   7.5580  0.00  0.00     0.000 C
ATOM     86  C5  BDP B   6       9.574  20.200   7.0230  0.00  0.00     0.000 C
ATOM     87  O5  BDP B   6       8.269  20.852   6.8920  0.00  0.00     0.000 O
ATOM     88   O  BDP B   6       9.336  23.925   5.3450  0.00  0.00     0.000 O
ATOM     90  HD  BDP B   6       9.908  24.399   4.8990  0.00  0.00     0.000 HD
ATOM     90   O  BDP B   6      11.543  23.408   7.1600  0.00  0.00     0.000 O
ATOM     92  HD  BDP B   6      12.115  23.882   6.7140  0.00  0.00     0.000 HD
BRANCH 86 92
ATOM     92   C  BDP B   6       9.323  19.090   8.0150  0.00  0.00     0.000 C
ATOM     93   O  BDP B   6       9.608  17.895   7.6990  0.00  0.00     0.000 OA
ATOM     94   O  BDP B   6       8.850  19.412   9.1490  0.00  0.00     0.000 OA
ENDBRANCH 86 92
BRANCH 82 95
ATOM     95  O3  NAG B   7       6.966  22.518   5.9560  0.00  0.00     0.000 O
BRANCH 95 98
ATOM     96  C1  NAG B   7       3.702  21.878   4.4460  0.00  0.00     0.000 C
ATOM     97  C2  NAG B   7       4.873  22.726   4.9260  0.00  0.00     0.000 C
ATOM     98  C3  NAG B   7       5.842  21.732   5.5640  0.00  0.00     0.000 C
ATOM     99  C4  NAG B   7       5.158  21.014   6.7250  0.00  0.00     0.000 C
ATOM    100  C5  NAG B   7       3.845  20.372   6.2740  0.00  0.00     0.000 C
ATOM    101  O5  NAG B   7       3.059  21.350   5.6110  0.00  0.00     0.000 O
BRANCH 97 104
ATOM    102   N  NAG B   7       5.684  23.400   3.9030  0.00  0.00     0.000 N
ATOM    104  HD  NAG B   7       6.353  23.659   3.4180  0.00  0.00     0.000 HD
ATOM    104   O  NAG B   7       6.638  25.148   2.8220  0.00  0.00     0.000 OA
ATOM    105   C  NAG B   7       5.865  24.719   3.7020  0.00  0.00     0.000 C
ATOM    106   C  NAG B   7       5.134  25.690   4.5650  0.00  0.00     0.000 C
ENDBRANCH 97 104
ATOM    107   O  NAG B   7       2.098  18.963   6.9540  0.00  0.00     0.000 O
ATOM    109  HD  NAG B   7       2.616  19.181   6.2950  0.00  0.00     0.000 HD
ATOM    109   O  NAG B   7       2.098  18.963   6.9540  0.00  0.00     0.000 O
ATOM    111  HD  NAG B   7       2.616  19.181   6.2950  0.00  0.00     0.000 HD
ENDBRANCH 95 98
ENDBRANCH 82 95
ENDBRANCH 81 85
ENDBRANCH 65 81
ENDBRANCH 64 67
ENDBRANCH 51 64
ENDBRANCH 50 54
ENDBRANCH 34 50
ENDBRANCH 33 36
ENDBRANCH 20 33
ENDBRANCH 19 23
ENDBRANCH 1 19
TORSDOF 19
ENDMDL
MODEL 24
REMARK VINA RESULT:      -5.9      5.468      7.427
ROOT
ATOM      1  C1  NAG B   1      11.164   8.087  13.4120  0.00  0.00     0.000 C
ATOM      2  C2  NAG B   1      10.122   8.048  14.5270  0.00  0.00     0.000 C
ATOM      3  C3  NAG B   1      10.764   7.929  15.8940  0.00  0.00     0.000 C
ATOM      4  C4  NAG B   1      11.606   6.658  15.8400  0.00  0.00     0.000 C
ATOM      5  C5  NAG B   1      12.709   6.830  14.7890  0.00  0.00     0.000 C
ATOM      6  O5  NAG B   1      12.148   7.044  13.4760  0.00  0.00     0.000 O
ATOM      7   O  NAG B   1       9.782   7.852  16.9530  0.00  0.00     0.000 O
ATOM      9  HD  NAG B   1       9.404   8.386  16.3850  0.00  0.00     0.000 HD
ATOM      9   O  NAG B   1      12.187   6.404  17.1090  0.00  0.00     0.000 O
ATOM     11  HD  NAG B   1      11.808   6.938  16.5410  0.00  0.00     0.000 HD
ATOM     11   C  NAG B   1      13.650   5.620  14.8140  0.00  0.00     0.000 C
ATOM     12   O  NAG B   1      14.235   5.391  13.5330  0.00  0.00     0.000 O
ATOM     14  HD  NAG B   1      13.857   5.925  12.9660  0.00  0.00     0.000 HD
ENDROOT
BRANCH 2 16
ATOM     14   N  NAG B   1       8.720   8.055  14.0730  0.00  0.00     0.000 N
ATOM     16  HD  NAG B   1       7.904   8.005  14.3560  0.00  0.00     0.000 HD
ATOM     16   C  NAG B   1       7.930   9.140  14.1460  0.00  0.00     0.000 C
ATOM     17   C  NAG B   1       8.460  10.418  14.7380  0.00  0.00     0.000 C
ATOM     18   O  NAG B   1       6.779   9.121  13.7100  0.00  0.00     0.000 OA
ENDBRANCH 2 16
BRANCH 1 19
ATOM     19  O4  BDP B   2      10.397   7.831  12.2430  0.00  0.00     0.000 O
BRANCH 19 23
ATOM     20  C1  BDP B   2      13.115   9.579   9.6940  0.00  0.00     0.000 C
ATOM     21  C2  BDP B   2      11.958  10.448  10.1440  0.00  0.00     0.000 C
ATOM     22  C3  BDP B   2      11.283   9.871  11.3670  0.00  0.00     0.000 C
ATOM     23  C4  BDP B   2      10.901   8.424  11.0700  0.00  0.00     0.000 C
ATOM     24  C5  BDP B   2      12.135   7.653  10.6440  0.00  0.00     0.000 C
ATOM     25  O5  BDP B   2      12.682   8.243   9.4800  0.00  0.00     0.000 O
ATOM     26   O  BDP B   2      12.408  11.756  10.4220  0.00  0.00     0.000 O
ATOM     28  HD  BDP B   2      13.106  11.431  10.0250  0.00  0.00     0.000 HD
ATOM     28   O  BDP B   2      10.139  10.674  11.6990  0.00  0.00     0.000 O
ATOM     30  HD  BDP B   2      10.837  10.348  11.3030  0.00  0.00     0.000 HD
BRANCH 24 30
ATOM     30   C  BDP B   2      11.829   6.233  10.3270  0.00  0.00     0.000 C
ATOM     31   O  BDP B   2      12.173   5.371  11.1690  0.00  0.00     0.000 OA
ATOM     32   O  BDP B   2      11.253   5.972   9.2340  0.00  0.00     0.000 OA
ENDBRANCH 24 30
BRANCH 20 33
ATOM     33  O3  NAG B   3      13.505  10.142   8.4660  0.00  0.00     0.000 O
BRANCH 33 36
ATOM     34  C1  NAG B   3      16.756  11.591   7.2460  0.00  0.00     0.000 C
ATOM     35  C2  NAG B   3      15.272  11.525   7.5570  0.00  0.00     0.000 C
ATOM     36  C3  NAG B   3      14.926  10.268   8.3690  0.00  0.00     0.000 C
ATOM     37  C4  NAG B   3      15.485   9.038   7.6590  0.00  0.00     0.000 C
ATOM     38  C5  NAG B   3      16.958   9.246   7.3190  0.00  0.00     0.000 C
ATOM     39  O5  NAG B   3      17.112  10.416   6.5320  0.00  0.00     0.000 O
ATOM     40   O  NAG B   3      15.348   7.881   8.4990  0.00  0.00     0.000 O
ATOM     42  HD  NAG B   3      16.198   7.822   8.3460  0.00  0.00     0.000 HD
ATOM     42   C  NAG B   3      17.566   8.118   6.4900  0.00  0.00     0.000 C
ATOM     43   O  NAG B   3      16.945   8.082   5.2000  0.00  0.00     0.000 O
ATOM     45  HD  NAG B   3      17.795   8.023   5.0470  0.00  0.00     0.000 HD
BRANCH 35 47
ATOM     45   N  NAG B   3      14.315  12.527   7.1040  0.00  0.00     0.000 N
ATOM     47  HD  NAG B   3      14.195  11.756   6.7280  0.00  0.00     0.000 HD
ATOM     47   C  NAG B   3      13.793  13.434   7.9040  0.00  0.00     0.000 C
ATOM     48   C  NAG B   3      12.808  14.378   7.2810  0.00  0.00     0.000 C
ATOM     49   O  NAG B   3      14.076  13.488   9.0990  0.00  0.00     0.000 OA
ENDBRANCH 35 47
BRANCH 34 50
ATOM     50  O4  BDP B   4      16.873  12.726   6.4150  0.00  0.00     0.000 O
BRANCH 50 54
ATOM     51  C1  BDP B   4      19.304  15.795   5.3100  0.00  0.00     0.000 C
ATOM     52  C2  BDP B   4      19.777  14.419   4.8540  0.00  0.00     0.000 C
ATOM     53  C3  BDP B   4      18.639  13.454   4.9870  0.00  0.00     0.000 C
ATOM     54  C4  BDP B   4      18.097  13.479   6.4450  0.00  0.00     0.000 C
ATOM     55  C5  BDP B   4      17.824  14.894   6.9370  0.00  0.00     0.000 C
ATOM     56  O5  BDP B   4      18.944  15.736   6.6780  0.00  0.00     0.000 O
ATOM     57   O  BDP B   4      20.194  14.467   3.5060  0.00  0.00     0.000 O
ATOM     59  HD  BDP B   4      21.060  14.468   3.5460  0.00  0.00     0.000 HD
ATOM     59   O  BDP B   4      19.174  12.138   4.7340  0.00  0.00     0.000 O
ATOM     61  HD  BDP B   4      20.039  12.139   4.7740  0.00  0.00     0.000 HD
BRANCH 55 61
ATOM     61   C  BDP B   4      17.559  14.862   8.4310  0.00  0.00     0.000 C
ATOM     62   O  BDP B   4      18.324  14.170   9.1530  0.00  0.00     0.000 OA
ATOM     63   O  BDP B   4      16.582  15.535   8.8820  0.00  0.00     0.000 OA
ENDBRANCH 55 61
BRANCH 51 64
ATOM     64  O3  NAG B   5      20.399  16.711   5.1090  0.00  0.00     0.000 O
BRANCH 64 67
ATOM     65  C1  NAG B   5      19.407  20.104   4.0630  0.00  0.00     0.000 C
ATOM     66  C2  NAG B   5      19.606  18.601   3.9780  0.00  0.00     0.000 C
ATOM     67  C3  NAG B   5      20.031  18.057   5.3360  0.00  0.00     0.000 C
ATOM     68  C4  NAG B   5      21.237  18.830   5.8870  0.00  0.00     0.000 C
ATOM     69  C5  NAG B   5      20.979  20.328   5.8460  0.00  0.00     0.000 C
ATOM     70  O5  NAG B   5      20.589  20.721   4.5220  0.00  0.00     0.000 O
ATOM     71   O  NAG B   5      21.491  18.391   7.2040  0.00  0.00     0.000 O
ATOM     73  HD  NAG B   5      22.312  18.428   6.9290  0.00  0.00     0.000 HD
ATOM     73   C  NAG B   5      22.182  21.188   6.2600  0.00  0.00     0.000 C
ATOM     74   O  NAG B   5      23.259  20.997   5.3190  0.00  0.00     0.000 O
ATOM     76  HD  NAG B   5      24.079  21.035   5.0440  0.00  0.00     0.000 HD
BRANCH 66 78
ATOM     76   N  NAG B   5      18.320  18.099   3.4570  0.00  0.00     0.000 N
ATOM     78  HD  NAG B   5      19.154  18.073   3.2270  0.00  0.00     0.000 HD
ATOM     78   C  NAG B   5      18.164  17.211   2.4630  0.00  0.00     0.000 C
ATOM     79   C  NAG B   5      16.724  16.884   2.1720  0.00  0.00     0.000 C
ATOM     80   O  NAG B   5      19.146  16.699   1.8170  0.00  0.00     0.000 OA
ENDBRANCH 66 78
BRANCH 65 81
ATOM     81  O4  BDP B   6      19.053  20.628   2.7760  0.00  0.00     0.000 O
BRANCH 81 85
ATOM     82  C1  BDP B   6      16.156  23.420   1.3030  0.00  0.00     0.000 C
ATOM     83  C2  BDP B   6      17.626  23.820   1.2200  0.00  0.00     0.000 C
ATOM     84  C3  BDP B   6      18.576  22.630   1.3790  0.00  0.00     0.000 C
ATOM     85  C4  BDP B   6      18.256  21.805   2.6280  0.00  0.00     0.000 C
ATOM     86  C5  BDP B   6      16.740  21.494   2.6170  0.00  0.00     0.000 C
ATOM     87  O5  BDP B   6      15.934  22.711   2.5140  0.00  0.00     0.000 O
ATOM     88   O  BDP B   6      17.792  24.392  -0.0750  0.00  0.00     0.000 O
ATOM     90  HD  BDP B   6      18.350  24.395  -0.7370  0.00  0.00     0.000 HD
ATOM     90   O  BDP B   6      19.928  23.095   1.4050  0.00  0.00     0.000 O
ATOM     92  HD  BDP B   6      20.486  23.097   0.7420  0.00  0.00     0.000 HD
BRANCH 86 92
ATOM     92   C  BDP B   6      16.314  20.890   3.9330  0.00  0.00     0.000 C
ATOM     93   O  BDP B   6      16.408  21.578   4.9940  0.00  0.00     0.000 OA
ATOM     94   O  BDP B   6      15.852  19.707   3.9130  0.00  0.00     0.000 OA
ENDBRANCH 86 92
BRANCH 82 95
ATOM     95  O3  NAG B   7      15.361  24.622   1.3420  0.00  0.00     0.000 O
BRANCH 95 98
ATOM     96  C1  NAG B   7      12.423  26.212  -0.1350  0.00  0.00     0.000 C
ATOM     97  C2  NAG B   7      13.666  26.122   0.7400  0.00  0.00     0.000 C
ATOM     98  C3  NAG B   7      14.161  24.687   0.5730  0.00  0.00     0.000 C
ATOM     99  C4  NAG B   7      13.082  23.709   1.0330  0.00  0.00     0.000 C
ATOM    100  C5  NAG B   7      11.759  23.978   0.3150  0.00  0.00     0.000 C
ATOM    101  O5  NAG B   7      11.435  25.354   0.4480  0.00  0.00     0.000 O
BRANCH 97 104
ATOM    102   N  NAG B   7      14.898  26.860   0.4270  0.00  0.00     0.000 N
ATOM    104  HD  NAG B   7      15.732  27.071   0.3300  0.00  0.00     0.000 HD
ATOM    104   O  NAG B   7      16.435  28.513   0.6050  0.00  0.00     0.000 OA
ATOM    105   C  NAG B   7      15.329  28.034   0.9250  0.00  0.00     0.000 C
ATOM    106   C  NAG B   7      14.468  28.770   1.8930  0.00  0.00     0.000 C
ENDBRANCH 97 104
ATOM    107   O  NAG B   7       9.582  23.166  -0.0060  0.00  0.00     0.000 O
ATOM    109  HD  NAG B   7      10.262  23.539  -0.3900  0.00  0.00     0.000 HD
ATOM    109   O  NAG B   7       9.582  23.166  -0.0060  0.00  0.00     0.000 O
ATOM    111  HD  NAG B   7      10.262  23.539  -0.3900  0.00  0.00     0.000 HD
ENDBRANCH 95 98
ENDBRANCH 82 95
ENDBRANCH 81 85
ENDBRANCH 65 81
ENDBRANCH 64 67
ENDBRANCH 51 64
ENDBRANCH 50 54
ENDBRANCH 34 50
ENDBRANCH 33 36
ENDBRANCH 20 33
ENDBRANCH 19 23
ENDBRANCH 1 19
TORSDOF 19
ENDMDL
MODEL 25
REMARK VINA RESULT:      -5.9      6.800     12.571
ROOT
ATOM      1  C1  NAG B   1       3.031   5.840  21.1370  0.00  0.00     0.000 C
ATOM      2  C2  NAG B   1       1.767   5.152  20.6290  0.00  0.00     0.000 C
ATOM      3  C3  NAG B   1       1.168   4.230  21.6710  0.00  0.00     0.000 C
ATOM      4  C4  NAG B   1       2.272   3.236  22.0180  0.00  0.00     0.000 C
ATOM      5  C5  NAG B   1       3.451   3.991  22.6440  0.00  0.00     0.000 C
ATOM      6  O5  NAG B   1       4.000   4.955  21.7210  0.00  0.00     0.000 O
ATOM      7   O  NAG B   1      -0.008   3.545  21.1830  0.00  0.00     0.000 O
ATOM      9  HD  NAG B   1      -0.066   4.317  20.7940  0.00  0.00     0.000 HD
ATOM      9   O  NAG B   1       1.785   2.265  22.9300  0.00  0.00     0.000 O
ATOM     11  HD  NAG B   1       1.727   3.037  22.5410  0.00  0.00     0.000 HD
ATOM     11   C  NAG B   1       4.514   2.996  23.1260  0.00  0.00     0.000 C
ATOM     12   O  NAG B   1       5.818   3.574  23.0920  0.00  0.00     0.000 O
ATOM     14  HD  NAG B   1       5.759   4.346  22.7030  0.00  0.00     0.000 HD
ENDROOT
BRANCH 2 16
ATOM     14   N  NAG B   1       1.306   5.334  19.2410  0.00  0.00     0.000 N
ATOM     16  HD  NAG B   1       0.648   5.161  18.7050  0.00  0.00     0.000 HD
ATOM     16   C  NAG B   1       0.422   6.279  18.8780  0.00  0.00     0.000 C
ATOM     17   C  NAG B   1      -0.166   7.197  19.9170  0.00  0.00     0.000 C
ATOM     18   O  NAG B   1       0.098   6.432  17.7010  0.00  0.00     0.000 OA
ENDBRANCH 2 16
BRANCH 1 19
ATOM     19  O4  BDP B   2       3.626   6.344  19.9490  0.00  0.00     0.000 O
BRANCH 19 23
ATOM     20  C1  BDP B   2       7.310   7.849  18.8970  0.00  0.00     0.000 C
ATOM     21  C2  BDP B   2       7.253   6.369  19.2170  0.00  0.00     0.000 C
ATOM     22  C3  BDP B   2       5.833   5.853  19.1730  0.00  0.00     0.000 C
ATOM     23  C4  BDP B   2       4.974   6.724  20.0850  0.00  0.00     0.000 C
ATOM     24  C5  BDP B   2       5.101   8.175  19.6630  0.00  0.00     0.000 C
ATOM     25  O5  BDP B   2       6.453   8.580  19.7620  0.00  0.00     0.000 O
ATOM     26   O  BDP B   2       8.053   5.641  18.3090  0.00  0.00     0.000 O
ATOM     28  HD  BDP B   2       8.305   6.450  18.1280  0.00  0.00     0.000 HD
ATOM     28   O  BDP B   2       5.819   4.474  19.5740  0.00  0.00     0.000 O
ATOM     30  HD  BDP B   2       6.071   5.282  19.3930  0.00  0.00     0.000 HD
BRANCH 24 30
ATOM     30   C  BDP B   2       4.295   9.082  20.5210  0.00  0.00     0.000 C
ATOM     31   O  BDP B   2       4.739   9.337  21.6640  0.00  0.00     0.000 OA
ATOM     32   O  BDP B   2       3.210   9.539  20.0600  0.00  0.00     0.000 OA
ENDBRANCH 24 30
BRANCH 20 33
ATOM     33  O3  NAG B   3       8.645   8.203  19.1600  0.00  0.00     0.000 O
BRANCH 33 36
ATOM     34  C1  NAG B   3      10.502  10.777  17.1400  0.00  0.00     0.000 C
ATOM     35  C2  NAG B   3       9.988   9.408  17.5450  0.00  0.00     0.000 C
ATOM     36  C3  NAG B   3       8.951   9.513  18.6730  0.00  0.00     0.000 C
ATOM     37  C4  NAG B   3       9.529  10.342  19.8170  0.00  0.00     0.000 C
ATOM     38  C5  NAG B   3      10.093  11.657  19.2850  0.00  0.00     0.000 C
ATOM     39  O5  NAG B   3      11.066  11.397  18.2870  0.00  0.00     0.000 O
ATOM     40   O  NAG B   3       8.508  10.619  20.7880  0.00  0.00     0.000 O
ATOM     42  HD  NAG B   3       8.763  11.433  20.6420  0.00  0.00     0.000 HD
ATOM     42   C  NAG B   3      10.810  12.494  20.3410  0.00  0.00     0.000 C
ATOM     43   O  NAG B   3      11.983  11.802  20.7860  0.00  0.00     0.000 O
ATOM     45  HD  NAG B   3      12.238  12.617  20.6400  0.00  0.00     0.000 HD
BRANCH 35 47
ATOM     45   N  NAG B   3      10.449   8.154  16.9630  0.00  0.00     0.000 N
ATOM     47  HD  NAG B   3      10.656   8.229  17.8000  0.00  0.00     0.000 HD
ATOM     47   C  NAG B   3       9.747   7.474  16.0780  0.00  0.00     0.000 C
ATOM     48   C  NAG B   3      10.358   6.192  15.5950  0.00  0.00     0.000 C
ATOM     49   O  NAG B   3       8.644   7.853  15.6910  0.00  0.00     0.000 OA
ENDBRANCH 35 47
BRANCH 34 50
ATOM     50  O4  BDP B   4      11.509  10.488  16.1920  0.00  0.00     0.000 O
BRANCH 50 54
ATOM     51  C1  BDP B   4      13.328  11.778  12.7900  0.00  0.00     0.000 C
ATOM     52  C2  BDP B   4      13.439  12.739  13.9680  0.00  0.00     0.000 C
ATOM     53  C3  BDP B   4      13.074  12.004  15.2210  0.00  0.00     0.000 C
ATOM     54  C4  BDP B   4      11.664  11.364  15.0630  0.00  0.00     0.000 C
ATOM     55  C5  BDP B   4      11.529  10.573  13.7690  0.00  0.00     0.000 C
ATOM     56  O5  BDP B   4      11.986  11.346  12.6630  0.00  0.00     0.000 O
ATOM     57   O  BDP B   4      14.759  13.227  14.0800  0.00  0.00     0.000 O
ATOM     59  HD  BDP B   4      14.722  14.030  13.7590  0.00  0.00     0.000 HD
ATOM     59   O  BDP B   4      13.001  12.984  16.2770  0.00  0.00     0.000 O
ATOM     61  HD  BDP B   4      12.965  13.788  15.9560  0.00  0.00     0.000 HD
BRANCH 55 61
ATOM     61   C  BDP B   4      10.071  10.209  13.5550  0.00  0.00     0.000 C
ATOM     62   O  BDP B   4       9.812   9.177  12.8830  0.00  0.00     0.000 OA
ATOM     63   O  BDP B   4       9.183  10.959  14.0650  0.00  0.00     0.000 OA
ENDBRANCH 55 61
BRANCH 51 64
ATOM     64  O3  NAG B   5      13.747  12.496  11.6130  0.00  0.00     0.000 O
BRANCH 64 67
ATOM     65  C1  NAG B   5      15.047  10.476   8.8150  0.00  0.00     0.000 C
ATOM     66  C2  NAG B   5      15.007  11.137  10.1830  0.00  0.00     0.000 C
ATOM     67  C3  NAG B   5      13.624  11.726  10.4330  0.00  0.00     0.000 C
ATOM     68  C4  NAG B   5      13.193  12.634   9.2730  0.00  0.00     0.000 C
ATOM     69  C5  NAG B   5      13.356  11.918   7.9410  0.00  0.00     0.000 C
ATOM     70  O5  NAG B   5      14.692  11.409   7.8200  0.00  0.00     0.000 O
ATOM     71   O  NAG B   5      11.854  13.028   9.4810  0.00  0.00     0.000 O
ATOM     73  HD  NAG B   5      12.165  13.792   9.2170  0.00  0.00     0.000 HD
ATOM     73   C  NAG B   5      13.069  12.793   6.7140  0.00  0.00     0.000 C
ATOM     74   O  NAG B   5      14.032  13.865   6.6480  0.00  0.00     0.000 O
ATOM     76  HD  NAG B   5      14.343  14.629   6.3840  0.00  0.00     0.000 HD
BRANCH 66 78
ATOM     76   N  NAG B   5      15.646  10.049  10.9480  0.00  0.00     0.000 N
ATOM     78  HD  NAG B   5      15.650  10.915  10.9470  0.00  0.00     0.000 HD
ATOM     78   C  NAG B   5      16.333  10.188  12.0920  0.00  0.00     0.000 C
ATOM     79   C  NAG B   5      16.850   8.886  12.6430  0.00  0.00     0.000 C
ATOM     80   O  NAG B   5      16.538  11.321  12.6570  0.00  0.00     0.000 OA
ENDBRANCH 66 78
BRANCH 65 81
ATOM     81  O4  BDP B   6      16.359   9.961   8.5550  0.00  0.00     0.000 O
BRANCH 81 85
ATOM     82  C1  BDP B   6      18.336   7.113   6.0360  0.00  0.00     0.000 C
ATOM     83  C2  BDP B   6      17.901   8.432   5.4040  0.00  0.00     0.000 C
ATOM     84  C3  BDP B   6      17.590   9.515   6.4400  0.00  0.00     0.000 C
ATOM     85  C4  BDP B   6      16.613   9.021   7.5090  0.00  0.00     0.000 C
ATOM     86  C5  BDP B   6      17.141   7.669   8.0470  0.00  0.00     0.000 C
ATOM     87  O5  BDP B   6      17.350   6.698   6.9710  0.00  0.00     0.000 O
ATOM     88   O  BDP B   6      18.999   8.847   4.5960  0.00  0.00     0.000 O
ATOM     90  HD  BDP B   6      19.445   9.560   4.3910  0.00  0.00     0.000 HD
ATOM     90   O  BDP B   6      17.082  10.678   5.7810  0.00  0.00     0.000 O
ATOM     92  HD  BDP B   6      17.528  11.392   5.5770  0.00  0.00     0.000 HD
BRANCH 86 92
ATOM     92   C  BDP B   6      16.109   7.010   8.9290  0.00  0.00     0.000 C
ATOM     93   O  BDP B   6      16.453   6.560  10.0630  0.00  0.00     0.000 OA
ATOM     94   O  BDP B   6      14.916   6.957   8.4970  0.00  0.00     0.000 OA
ENDBRANCH 86 92
BRANCH 82 95
ATOM     95  O3  NAG B   7      18.410   6.115   4.9990  0.00  0.00     0.000 O
BRANCH 95 98
ATOM     96  C1  NAG B   7      20.058   2.867   4.7330  0.00  0.00     0.000 C
ATOM     97  C2  NAG B   7      19.705   4.288   4.3160  0.00  0.00     0.000 C
ATOM     98  C3  NAG B   7      18.691   4.763   5.3550  0.00  0.00     0.000 C
ATOM     99  C4  NAG B   7      17.465   3.854   5.3350  0.00  0.00     0.000 C
ATOM    100  C5  NAG B   7      17.867   2.389   5.5110  0.00  0.00     0.000 C
ATOM    101  O5  NAG B   7      18.877   2.073   4.5650  0.00  0.00     0.000 O
BRANCH 97 104
ATOM    102   N  NAG B   7      20.515   5.513   4.2740  0.00  0.00     0.000 N
ATOM    104  HD  NAG B   7      20.765   6.335   4.1640  0.00  0.00     0.000 HD
ATOM    104   O  NAG B   7      22.189   6.879   3.5920  0.00  0.00     0.000 OA
ATOM    105   C  NAG B   7      21.638   5.760   3.5730  0.00  0.00     0.000 C
ATOM    106   C  NAG B   7      22.228   4.672   2.7430  0.00  0.00     0.000 C
ENDBRANCH 97 104
ATOM    107   O  NAG B   7      17.027   0.220   5.8180  0.00  0.00     0.000 O
ATOM    109  HD  NAG B   7      17.651   0.777   6.0440  0.00  0.00     0.000 HD
ATOM    109   O  NAG B   7      17.027   0.220   5.8180  0.00  0.00     0.000 O
ATOM    111  HD  NAG B   7      17.651   0.777   6.0440  0.00  0.00     0.000 HD
ENDBRANCH 95 98
ENDBRANCH 82 95
ENDBRANCH 81 85
ENDBRANCH 65 81
ENDBRANCH 64 67
ENDBRANCH 51 64
ENDBRANCH 50 54
ENDBRANCH 34 50
ENDBRANCH 33 36
ENDBRANCH 20 33
ENDBRANCH 19 23
ENDBRANCH 1 19
TORSDOF 19
ENDMDL
MODEL 26
REMARK VINA RESULT:      -5.9      5.806      7.969
ROOT
ATOM      1  C1  NAG B   1      11.279  10.052  13.5200  0.00  0.00     0.000 C
ATOM      2  C2  NAG B   1       9.959  10.079  14.2870  0.00  0.00     0.000 C
ATOM      3  C3  NAG B   1       9.811  11.342  15.1100  0.00  0.00     0.000 C
ATOM      4  C4  NAG B   1      11.022  11.370  16.0370  0.00  0.00     0.000 C
ATOM      5  C5  NAG B   1      12.299  11.476  15.1930  0.00  0.00     0.000 C
ATOM      6  O5  NAG B   1      12.440  10.338  14.3160  0.00  0.00     0.000 O
ATOM      7   O  NAG B   1       8.581  11.356  15.8700  0.00  0.00     0.000 O
ATOM      9  HD  NAG B   1       8.347  10.945  15.1440  0.00  0.00     0.000 HD
ATOM      9   O  NAG B   1      10.936  12.476  16.9190  0.00  0.00     0.000 O
ATOM     11  HD  NAG B   1      10.703  12.065  16.1940  0.00  0.00     0.000 HD
ATOM     11   C  NAG B   1      13.519  11.644  16.1070  0.00  0.00     0.000 C
ATOM     12   O  NAG B   1      14.695  11.107  15.5040  0.00  0.00     0.000 O
ATOM     14  HD  NAG B   1      14.461  10.696  14.7790  0.00  0.00     0.000 HD
ENDROOT
BRANCH 2 16
ATOM     14   N  NAG B   1       8.610   9.983  13.7020  0.00  0.00     0.000 N
ATOM     16  HD  NAG B   1       8.189   9.875  12.9530  0.00  0.00     0.000 HD
ATOM     16   C  NAG B   1       8.030   8.814  13.3800  0.00  0.00     0.000 C
ATOM     17   C  NAG B   1       8.777   7.523  13.5870  0.00  0.00     0.000 C
ATOM     18   O  NAG B   1       6.882   8.771  12.9400  0.00  0.00     0.000 OA
ENDBRANCH 2 16
BRANCH 1 19
ATOM     19  O4  BDP B   2      11.398   8.692  13.1280  0.00  0.00     0.000 O
BRANCH 19 23
ATOM     20  C1  BDP B   2      13.732   9.346   9.8020  0.00  0.00     0.000 C
ATOM     21  C2  BDP B   2      12.241   9.542   9.6260  0.00  0.00     0.000 C
ATOM     22  C3  BDP B   2      11.547   9.691  10.9610  0.00  0.00     0.000 C
ATOM     23  C4  BDP B   2      11.923   8.498  11.8370  0.00  0.00     0.000 C
ATOM     24  C5  BDP B   2      13.433   8.411  11.9480  0.00  0.00     0.000 C
ATOM     25  O5  BDP B   2      13.994   8.244  10.6600  0.00  0.00     0.000 O
ATOM     26   O  BDP B   2      11.987  10.678   8.8290  0.00  0.00     0.000 O
ATOM     28  HD  BDP B   2      12.840  10.587   8.7070  0.00  0.00     0.000 HD
ATOM     28   O  BDP B   2      10.129   9.779  10.7500  0.00  0.00     0.000 O
ATOM     30  HD  BDP B   2      10.982   9.688  10.6280  0.00  0.00     0.000 HD
BRANCH 24 30
ATOM     30   C  BDP B   2      13.869   7.260  12.7820  0.00  0.00     0.000 C
ATOM     31   O  BDP B   2      14.421   7.520  13.8760  0.00  0.00     0.000 OA
ATOM     32   O  BDP B   2      13.669   6.091  12.3440  0.00  0.00     0.000 OA
ENDBRANCH 24 30
BRANCH 20 33
ATOM     33  O3  NAG B   3      14.190   9.041   8.5070  0.00  0.00     0.000 O
BRANCH 33 36
ATOM     34  C1  NAG B   3      17.384  10.439   7.0940  0.00  0.00     0.000 C
ATOM     35  C2  NAG B   3      15.904  10.356   7.4130  0.00  0.00     0.000 C
ATOM     36  C3  NAG B   3      15.605   9.211   8.3920  0.00  0.00     0.000 C
ATOM     37  C4  NAG B   3      16.217   7.918   7.8600  0.00  0.00     0.000 C
ATOM     38  C5  NAG B   3      17.682   8.138   7.4920  0.00  0.00     0.000 C
ATOM     39  O5  NAG B   3      17.792   9.191   6.5500  0.00  0.00     0.000 O
ATOM     40   O  NAG B   3      16.123   6.885   8.8530  0.00  0.00     0.000 O
ATOM     42  HD  NAG B   3      16.976   6.840   8.7090  0.00  0.00     0.000 HD
ATOM     42   C  NAG B   3      18.340   6.930   6.8290  0.00  0.00     0.000 C
ATOM     43   O  NAG B   3      17.726   6.690   5.5560  0.00  0.00     0.000 O
ATOM     45  HD  NAG B   3      18.579   6.645   5.4120  0.00  0.00     0.000 HD
BRANCH 35 47
ATOM     45   N  NAG B   3      14.931  11.264   6.8160  0.00  0.00     0.000 N
ATOM     47  HD  NAG B   3      14.853  10.452   6.5240  0.00  0.00     0.000 HD
ATOM     47   C  NAG B   3      14.346  12.233   7.4920  0.00  0.00     0.000 C
ATOM     48   C  NAG B   3      13.355  13.063   6.7320  0.00  0.00     0.000 C
ATOM     49   O  NAG B   3      14.578  12.428   8.6830  0.00  0.00     0.000 OA
ENDBRANCH 35 47
BRANCH 34 50
ATOM     50  O4  BDP B   4      17.459  11.451   6.1120  0.00  0.00     0.000 O
BRANCH 50 54
ATOM     51  C1  BDP B   4      19.641  14.620   4.7900  0.00  0.00     0.000 C
ATOM     52  C2  BDP B   4      20.203  13.258   4.3970  0.00  0.00     0.000 C
ATOM     53  C3  BDP B   4      19.141  12.223   4.6080  0.00  0.00     0.000 C
ATOM     54  C4  BDP B   4      18.626  12.290   6.0740  0.00  0.00     0.000 C
ATOM     55  C5  BDP B   4      18.261  13.706   6.4960  0.00  0.00     0.000 C
ATOM     56  O5  BDP B   4      19.312  14.610   6.1670  0.00  0.00     0.000 O
ATOM     57   O  BDP B   4      20.591  13.261   3.0400  0.00  0.00     0.000 O
ATOM     59  HD  BDP B   4      21.454  13.326   3.0600  0.00  0.00     0.000 HD
ATOM     59   O  BDP B   4      19.764  10.937   4.4130  0.00  0.00     0.000 O
ATOM     61  HD  BDP B   4      20.628  11.001   4.4330  0.00  0.00     0.000 HD
BRANCH 55 61
ATOM     61   C  BDP B   4      18.027  13.738   7.9960  0.00  0.00     0.000 C
ATOM     62   O  BDP B   4      17.066  14.426   8.4300  0.00  0.00     0.000 OA
ATOM     63   O  BDP B   4      18.807  13.069   8.7400  0.00  0.00     0.000 OA
ENDBRANCH 55 61
BRANCH 51 64
ATOM     64  O3  NAG B   5      20.663  15.598   4.5160  0.00  0.00     0.000 O
BRANCH 64 67
ATOM     65  C1  NAG B   5      19.390  18.952   3.6610  0.00  0.00     0.000 C
ATOM     66  C2  NAG B   5      19.661  17.464   3.5180  0.00  0.00     0.000 C
ATOM     67  C3  NAG B   5      20.247  16.917   4.8140  0.00  0.00     0.000 C
ATOM     68  C4  NAG B   5      21.459  17.745   5.2630  0.00  0.00     0.000 C
ATOM     69  C5  NAG B   5      21.118  19.227   5.2860  0.00  0.00     0.000 C
ATOM     70  O5  NAG B   5      20.576  19.624   4.0180  0.00  0.00     0.000 O
ATOM     71   O  NAG B   5      21.867  17.294   6.5370  0.00  0.00     0.000 O
ATOM     73  HD  NAG B   5      22.652  17.383   6.1830  0.00  0.00     0.000 HD
ATOM     73   C  NAG B   5      22.308  20.144   5.6020  0.00  0.00     0.000 C
ATOM     74   O  NAG B   5      23.294  20.034   4.5550  0.00  0.00     0.000 O
ATOM     76  HD  NAG B   5      24.080  20.123   4.2020  0.00  0.00     0.000 HD
BRANCH 66 78
ATOM     76   N  NAG B   5      18.351  16.961   3.0600  0.00  0.00     0.000 N
ATOM     78  HD  NAG B   5      19.178  16.908   2.8080  0.00  0.00     0.000 HD
ATOM     78   C  NAG B   5      18.151  16.027   2.1170  0.00  0.00     0.000 C
ATOM     79   C  NAG B   5      16.698  15.712   1.8840  0.00  0.00     0.000 C
ATOM     80   O  NAG B   5      19.105  15.464   1.4700  0.00  0.00     0.000 OA
ENDBRANCH 66 78
BRANCH 65 81
ATOM     81  O4  BDP B   6      18.882  19.481   2.4300  0.00  0.00     0.000 O
BRANCH 81 85
ATOM     82  C1  BDP B   6      16.284  22.643   1.1590  0.00  0.00     0.000 C
ATOM     83  C2  BDP B   6      17.787  22.898   1.0990  0.00  0.00     0.000 C
ATOM     84  C3  BDP B   6      18.613  21.611   1.1740  0.00  0.00     0.000 C
ATOM     85  C4  BDP B   6      18.207  20.739   2.3640  0.00  0.00     0.000 C
ATOM     86  C5  BDP B   6      16.668  20.583   2.3360  0.00  0.00     0.000 C
ATOM     87  O5  BDP B   6      15.988  21.879   2.3190  0.00  0.00     0.000 O
ATOM     88   O  BDP B   6      18.015  23.538  -0.1540  0.00  0.00     0.000 O
ATOM     90  HD  BDP B   6      18.573  23.530  -0.8160  0.00  0.00     0.000 HD
ATOM     90   O  BDP B   6      20.004  21.935   1.2270  0.00  0.00     0.000 O
ATOM     92  HD  BDP B   6      20.562  21.927   0.5650  0.00  0.00     0.000 HD
BRANCH 86 92
ATOM     92   C  BDP B   6      16.178  19.937   3.6100  0.00  0.00     0.000 C
ATOM     93   O  BDP B   6      15.966  18.687   3.6330  0.00  0.00     0.000 OA
ATOM     94   O  BDP B   6      16.019  20.685   4.6230  0.00  0.00     0.000 OA
ENDBRANCH 86 92
BRANCH 82 95
ATOM     95  O3  NAG B   7      15.613  23.913   1.2820  0.00  0.00     0.000 O
BRANCH 95 98
ATOM     96  C1  NAG B   7      12.907  25.896  -0.1610  0.00  0.00     0.000 C
ATOM     97  C2  NAG B   7      14.144  25.637   0.6880  0.00  0.00     0.000 C
ATOM     98  C3  NAG B   7      14.418  24.142   0.5380  0.00  0.00     0.000 C
ATOM     99  C4  NAG B   7      13.218  23.342   1.0400  0.00  0.00     0.000 C
ATOM    100  C5  NAG B   7      11.932  23.793   0.3460  0.00  0.00     0.000 C
ATOM    101  O5  NAG B   7      11.818  25.203   0.4600  0.00  0.00     0.000 O
BRANCH 97 104
ATOM    102   N  NAG B   7      15.525  26.102   0.4950  0.00  0.00     0.000 N
ATOM    104  HD  NAG B   7      16.380  26.209   0.5820  0.00  0.00     0.000 HD
ATOM    104   O  NAG B   7      17.232  27.590   0.4460  0.00  0.00     0.000 OA
ATOM    105   C  NAG B   7      16.015  27.354   0.5780  0.00  0.00     0.000 C
ATOM    106   C  NAG B   7      15.078  28.481   0.8480  0.00  0.00     0.000 C
ENDBRANCH 97 104
ATOM    107   O  NAG B   7       9.651  23.307   0.0890  0.00  0.00     0.000 O
ATOM    109  HD  NAG B   7      10.370  23.569  -0.3170  0.00  0.00     0.000 HD
ATOM    109   O  NAG B   7       9.651  23.307   0.0890  0.00  0.00     0.000 O
ATOM    111  HD  NAG B   7      10.370  23.569  -0.3170  0.00  0.00     0.000 HD
ENDBRANCH 95 98
ENDBRANCH 82 95
ENDBRANCH 81 85
ENDBRANCH 65 81
ENDBRANCH 64 67
ENDBRANCH 51 64
ENDBRANCH 50 54
ENDBRANCH 34 50
ENDBRANCH 33 36
ENDBRANCH 20 33
ENDBRANCH 19 23
ENDBRANCH 1 19
TORSDOF 19
ENDMDL
MODEL 27
REMARK VINA RESULT:      -5.8      7.911     12.586
ROOT
ATOM      1  C1  NAG B   1      17.934   6.136   4.4870  0.00  0.00     0.000 C
ATOM      2  C2  NAG B   1      18.543   6.310   3.0980  0.00  0.00     0.000 C
ATOM      3  C3  NAG B   1      17.829   5.471   2.0590  0.00  0.00     0.000 C
ATOM      4  C4  NAG B   1      17.925   4.033   2.5600  0.00  0.00     0.000 C
ATOM      5  C5  NAG B   1      17.176   3.914   3.8930  0.00  0.00     0.000 C
ATOM      6  O5  NAG B   1      17.761   4.770   4.8970  0.00  0.00     0.000 O
ATOM      7   O  NAG B   1      18.425   5.601   0.7480  0.00  0.00     0.000 O
ATOM      9  HD  NAG B   1      18.526   6.395   1.0790  0.00  0.00     0.000 HD
ATOM      9   O  NAG B   1      17.358   3.147   1.6090  0.00  0.00     0.000 O
ATOM     11  HD  NAG B   1      17.459   3.941   1.9400  0.00  0.00     0.000 HD
ATOM     11   C  NAG B   1      17.143   2.449   4.3460  0.00  0.00     0.000 C
ATOM     12   O  NAG B   1      17.083   2.347   5.7670  0.00  0.00     0.000 O
ATOM     14  HD  NAG B   1      17.184   3.141   6.0980  0.00  0.00     0.000 HD
ENDROOT
BRANCH 2 16
ATOM     14   N  NAG B   1      18.585   7.686   2.5710  0.00  0.00     0.000 N
ATOM     16  HD  NAG B   1      18.576   8.518   2.8130  0.00  0.00     0.000 HD
ATOM     16   C  NAG B   1      19.700   8.437   2.5650  0.00  0.00     0.000 C
ATOM     17   C  NAG B   1      20.979   7.889   3.1410  0.00  0.00     0.000 C
ATOM     18   O  NAG B   1      19.708   9.564   2.0710  0.00  0.00     0.000 OA
ENDBRANCH 2 16
BRANCH 1 19
ATOM     19  O4  BDP B   2      18.926   6.680   5.3460  0.00  0.00     0.000 O
BRANCH 19 23
ATOM     20  C1  BDP B   2      16.346   7.505   8.4460  0.00  0.00     0.000 C
ATOM     21  C2  BDP B   2      16.523   8.595   7.4100  0.00  0.00     0.000 C
ATOM     22  C3  BDP B   2      17.133   8.049   6.1380  0.00  0.00     0.000 C
ATOM     23  C4  BDP B   2      18.420   7.312   6.4980  0.00  0.00     0.000 C
ATOM     24  C5  BDP B   2      18.117   6.242   7.5290  0.00  0.00     0.000 C
ATOM     25  O5  BDP B   2      17.579   6.844   8.6920  0.00  0.00     0.000 O
ATOM     26   O  BDP B   2      15.282   9.201   7.1200  0.00  0.00     0.000 O
ATOM     28  HD  BDP B   2      15.072   8.740   7.8220  0.00  0.00     0.000 HD
ATOM     28   O  BDP B   2      17.369   9.131   5.2240  0.00  0.00     0.000 O
ATOM     30  HD  BDP B   2      17.158   8.669   5.9260  0.00  0.00     0.000 HD
BRANCH 24 30
ATOM     30   C  BDP B   2      19.334   5.491   7.9340  0.00  0.00     0.000 C
ATOM     31   O  BDP B   2      20.302   6.157   8.3700  0.00  0.00     0.000 OA
ATOM     32   O  BDP B   2      19.333   4.233   7.8100  0.00  0.00     0.000 OA
ENDBRANCH 24 30
BRANCH 20 33
ATOM     33  O3  NAG B   3      15.954   8.198   9.6060  0.00  0.00     0.000 O
BRANCH 33 36
ATOM     34  C1  NAG B   3      13.490   7.297  12.3010  0.00  0.00     0.000 C
ATOM     35  C2  NAG B   3      14.099   8.085  11.1570  0.00  0.00     0.000 C
ATOM     36  C3  NAG B   3      15.290   7.340  10.5360  0.00  0.00     0.000 C
ATOM     37  C4  NAG B   3      16.273   6.951  11.6380  0.00  0.00     0.000 C
ATOM     38  C5  NAG B   3      15.540   6.241  12.7740  0.00  0.00     0.000 C
ATOM     39  O5  NAG B   3      14.502   7.069  13.2710  0.00  0.00     0.000 O
ATOM     40   O  NAG B   3      17.287   6.083  11.1080  0.00  0.00     0.000 O
ATOM     42  HD  NAG B   3      17.023   5.579  11.7610  0.00  0.00     0.000 HD
ATOM     42   C  NAG B   3      16.424   5.931  13.9790  0.00  0.00     0.000 C
ATOM     43   O  NAG B   3      16.848   7.156  14.5910  0.00  0.00     0.000 O
ATOM     45  HD  NAG B   3      16.584   6.652  15.2440  0.00  0.00     0.000 HD
BRANCH 35 47
ATOM     45   N  NAG B   3      13.798   9.396  10.5960  0.00  0.00     0.000 N
ATOM     47  HD  NAG B   3      14.640   9.292  10.7680  0.00  0.00     0.000 HD
ATOM     47   C  NAG B   3      12.901   9.582   9.6480  0.00  0.00     0.000 C
ATOM     48   C  NAG B   3      12.729  10.993   9.1690  0.00  0.00     0.000 C
ATOM     49   O  NAG B   3      12.261   8.650   9.1650  0.00  0.00     0.000 OA
ENDBRANCH 35 47
BRANCH 34 50
ATOM     50  O4  BDP B   4      12.502   8.165  12.8160  0.00  0.00     0.000 O
BRANCH 50 54
ATOM     51  C1  BDP B   4      10.284   8.961  16.1330  0.00  0.00     0.000 C
ATOM     52  C2  BDP B   4      11.740   8.609  16.4160  0.00  0.00     0.000 C
ATOM     53  C3  BDP B   4      12.515   8.710  15.1380  0.00  0.00     0.000 C
ATOM     54  C4  BDP B   4      11.854   7.816  14.0510  0.00  0.00     0.000 C
ATOM     55  C5  BDP B   4      10.354   8.057  13.9360  0.00  0.00     0.000 C
ATOM     56  O5  BDP B   4       9.744   8.020  15.2220  0.00  0.00     0.000 O
ATOM     57   O  BDP B   4      12.284   9.501  17.3650  0.00  0.00     0.000 O
ATOM     59  HD  BDP B   4      12.298   9.051  18.1050  0.00  0.00     0.000 HD
ATOM     59   O  BDP B   4      13.832   8.186  15.4040  0.00  0.00     0.000 O
ATOM     61  HD  BDP B   4      13.847   7.736  16.1440  0.00  0.00     0.000 HD
BRANCH 55 61
ATOM     61   C  BDP B   4       9.740   6.979  13.0610  0.00  0.00     0.000 C
ATOM     62   O  BDP B   4       9.978   5.777  13.3500  0.00  0.00     0.000 OA
ATOM     63   O  BDP B   4       9.015   7.339  12.0830  0.00  0.00     0.000 OA
ENDBRANCH 55 61
BRANCH 51 64
ATOM     64  O3  NAG B   5       9.581   8.917  17.3900  0.00  0.00     0.000 O
BRANCH 64 67
ATOM     65  C1  NAG B   5       7.310  11.625  18.4400  0.00  0.00     0.000 C
ATOM     66  C2  NAG B   5       8.617  10.884  18.2140  0.00  0.00     0.000 C
ATOM     67  C3  NAG B   5       8.370   9.646  17.3610  0.00  0.00     0.000 C
ATOM     68  C4  NAG B   5       7.243   8.787  17.9510  0.00  0.00     0.000 C
ATOM     69  C5  NAG B   5       6.010   9.633  18.2280  0.00  0.00     0.000 C
ATOM     70  O5  NAG B   5       6.366  10.765  19.0360  0.00  0.00     0.000 O
ATOM     71   O  NAG B   5       6.953   7.742  17.0480  0.00  0.00     0.000 O
ATOM     73  HD  NAG B   5       6.918   7.281  17.7800  0.00  0.00     0.000 HD
ATOM     73   C  NAG B   5       4.874   8.883  18.9370  0.00  0.00     0.000 C
ATOM     74   O  NAG B   5       5.312   8.471  20.2490  0.00  0.00     0.000 O
ATOM     76  HD  NAG B   5       5.277   8.010  20.9820  0.00  0.00     0.000 HD
BRANCH 66 78
ATOM     76   N  NAG B   5       9.859  11.494  18.7260  0.00  0.00     0.000 N
ATOM     78  HD  NAG B   5       9.512  11.307  17.9550  0.00  0.00     0.000 HD
ATOM     78   C  NAG B   5      10.775  12.151  17.9960  0.00  0.00     0.000 C
ATOM     79   C  NAG B   5      11.926  12.676  18.8100  0.00  0.00     0.000 C
ATOM     80   O  NAG B   5      10.681  12.307  16.7260  0.00  0.00     0.000 OA
ENDBRANCH 66 78
BRANCH 65 81
ATOM     81  O4  BDP B   6       7.529  12.765  19.2810  0.00  0.00     0.000 O
BRANCH 81 85
ATOM     82  C1  BDP B   6       6.144  16.784  19.8240  0.00  0.00     0.000 C
ATOM     83  C2  BDP B   6       5.139  15.656  20.0410  0.00  0.00     0.000 C
ATOM     84  C3  BDP B   6       5.808  14.291  20.2270  0.00  0.00     0.000 C
ATOM     85  C4  BDP B   6       6.807  13.987  19.1090  0.00  0.00     0.000 C
ATOM     86  C5  BDP B   6       7.744  15.210  18.9620  0.00  0.00     0.000 C
ATOM     87  O5  BDP B   6       6.994  16.447  18.7370  0.00  0.00     0.000 O
ATOM     88   O  BDP B   6       4.428  16.004  21.2250  0.00  0.00     0.000 O
ATOM     90  HD  BDP B   6       4.118  15.642  21.9480  0.00  0.00     0.000 HD
ATOM     90   O  BDP B   6       4.806  13.274  20.3090  0.00  0.00     0.000 O
ATOM     92  HD  BDP B   6       4.496  12.912  21.0320  0.00  0.00     0.000 HD
BRANCH 86 92
ATOM     92   C  BDP B   6       8.598  15.077  17.7250  0.00  0.00     0.000 C
ATOM     93   O  BDP B   6       9.802  15.474  17.7530  0.00  0.00     0.000 OA
ATOM     94   O  BDP B   6       8.069  14.543  16.7010  0.00  0.00     0.000 OA
ENDBRANCH 86 92
BRANCH 82 95
ATOM     95  O3  NAG B   7       5.418  17.976  19.4650  0.00  0.00     0.000 O
BRANCH 95 98
ATOM     96  C1  NAG B   7       5.336  21.454  20.5770  0.00  0.00     0.000 C
ATOM     97  C2  NAG B   7       4.752  20.114  20.1500  0.00  0.00     0.000 C
ATOM     98  C3  NAG B   7       5.963  19.251  19.8030  0.00  0.00     0.000 C
ATOM     99  C4  NAG B   7       6.756  19.900  18.6720  0.00  0.00     0.000 C
ATOM    100  C5  NAG B   7       7.124  21.343  19.0220  0.00  0.00     0.000 C
ATOM    101  O5  NAG B   7       5.950  22.033  19.4210  0.00  0.00     0.000 O
BRANCH 97 104
ATOM    102   N  NAG B   7       4.038  19.339  21.1750  0.00  0.00     0.000 N
ATOM    104  HD  NAG B   7       3.803  18.705  21.7160  0.00  0.00     0.000 HD
ATOM    104   O  NAG B   7       2.294  18.240  22.1120  0.00  0.00     0.000 OA
ATOM    105   C  NAG B   7       2.749  18.952  21.1950  0.00  0.00     0.000 C
ATOM    106   C  NAG B   7       1.848  19.374  20.0860  0.00  0.00     0.000 C
ENDBRANCH 97 104
ATOM    107   O  NAG B   7       8.364  23.204  18.3120  0.00  0.00     0.000 O
ATOM    109  HD  NAG B   7       8.118  22.737  18.9990  0.00  0.00     0.000 HD
ATOM    109   O  NAG B   7       8.364  23.204  18.3120  0.00  0.00     0.000 O
ATOM    111  HD  NAG B   7       8.118  22.737  18.9990  0.00  0.00     0.000 HD
ENDBRANCH 95 98
ENDBRANCH 82 95
ENDBRANCH 81 85
ENDBRANCH 65 81
ENDBRANCH 64 67
ENDBRANCH 51 64
ENDBRANCH 50 54
ENDBRANCH 34 50
ENDBRANCH 33 36
ENDBRANCH 20 33
ENDBRANCH 19 23
ENDBRANCH 1 19
TORSDOF 19
ENDMDL
MODEL 28
REMARK VINA RESULT:      -5.8      3.017      3.791
ROOT
ATOM      1  C1  NAG B   1      10.369   5.400  16.0110  0.00  0.00     0.000 C
ATOM      2  C2  NAG B   1       9.793   4.337  16.9430  0.00  0.00     0.000 C
ATOM      3  C3  NAG B   1       8.762   4.916  17.8900  0.00  0.00     0.000 C
ATOM      4  C4  NAG B   1       9.482   6.026  18.6490  0.00  0.00     0.000 C
ATOM      5  C5  NAG B   1       9.912   7.115  17.6590  0.00  0.00     0.000 C
ATOM      6  O5  NAG B   1      10.826   6.591  16.6720  0.00  0.00     0.000 O
ATOM      7   O  NAG B   1       8.240   3.922  18.8020  0.00  0.00     0.000 O
ATOM      9  HD  NAG B   1       8.368   3.463  18.0790  0.00  0.00     0.000 HD
ATOM      9   O  NAG B   1       8.624   6.581  19.6320  0.00  0.00     0.000 O
ATOM     11  HD  NAG B   1       8.752   6.122  18.9090  0.00  0.00     0.000 HD
ATOM     11   C  NAG B   1      10.516   8.304  18.4170  0.00  0.00     0.000 C
ATOM     12   O  NAG B   1      11.478   8.992  17.6200  0.00  0.00     0.000 O
ATOM     14  HD  NAG B   1      11.606   8.533  16.8970  0.00  0.00     0.000 HD
ENDROOT
BRANCH 2 16
ATOM     14   N  NAG B   1       9.225   3.207  16.1870  0.00  0.00     0.000 N
ATOM     16  HD  NAG B   1       9.316   2.751  15.4560  0.00  0.00     0.000 HD
ATOM     16   C  NAG B   1       9.768   1.977  16.1840  0.00  0.00     0.000 C
ATOM     17   C  NAG B   1      11.031   1.712  16.9590  0.00  0.00     0.000 C
ATOM     18   O  NAG B   1       9.236   1.046  15.5800  0.00  0.00     0.000 OA
ENDBRANCH 2 16
BRANCH 1 19
ATOM     19  O4  BDP B   2      11.531   4.774  15.4850  0.00  0.00     0.000 O
BRANCH 19 23
ATOM     20  C1  BDP B   2      12.138   7.224  12.2330  0.00  0.00     0.000 C
ATOM     21  C2  BDP B   2      10.992   6.238  12.1290  0.00  0.00     0.000 C
ATOM     22  C3  BDP B   2      10.602   5.706  13.4900  0.00  0.00     0.000 C
ATOM     23  C4  BDP B   2      11.850   5.146  14.1660  0.00  0.00     0.000 C
ATOM     24  C5  BDP B   2      12.918   6.221  14.2230  0.00  0.00     0.000 C
ATOM     25  O5  BDP B   2      13.241   6.638  12.9100  0.00  0.00     0.000 O
ATOM     26   O  BDP B   2       9.875   6.848  11.5190  0.00  0.00     0.000 O
ATOM     28  HD  BDP B   2      10.485   7.443  11.3610  0.00  0.00     0.000 HD
ATOM     28   O  BDP B   2       9.580   4.709  13.3320  0.00  0.00     0.000 O
ATOM     30  HD  BDP B   2      10.189   5.304  13.1750  0.00  0.00     0.000 HD
BRANCH 24 30
ATOM     30   C  BDP B   2      14.169   5.737  14.8620  0.00  0.00     0.000 C
ATOM     31   O  BDP B   2      14.509   6.276  15.9400  0.00  0.00     0.000 OA
ATOM     32   O  BDP B   2      14.823   4.821  14.2860  0.00  0.00     0.000 OA
ENDBRANCH 24 30
BRANCH 20 33
ATOM     33  O3  NAG B   3      12.495   7.473  10.8960  0.00  0.00     0.000 O
BRANCH 33 36
ATOM     34  C1  NAG B   3      13.896  10.891  10.1850  0.00  0.00     0.000 C
ATOM     35  C2  NAG B   3      12.855   9.836  10.5080  0.00  0.00     0.000 C
ATOM     36  C3  NAG B   3      13.509   8.476  10.7970  0.00  0.00     0.000 C
ATOM     37  C4  NAG B   3      14.452   8.114   9.6520  0.00  0.00     0.000 C
ATOM     38  C5  NAG B   3      15.396   9.276   9.3570  0.00  0.00     0.000 C
ATOM     39  O5  NAG B   3      14.648  10.445   9.0650  0.00  0.00     0.000 O
ATOM     40   O  NAG B   3      15.219   6.951   9.9970  0.00  0.00     0.000 O
ATOM     42  HD  NAG B   3      15.877   7.478   9.7990  0.00  0.00     0.000 HD
ATOM     42   C  NAG B   3      16.289   9.052   8.1390  0.00  0.00     0.000 C
ATOM     43   O  NAG B   3      15.481   8.992   6.9570  0.00  0.00     0.000 O
ATOM     45  HD  NAG B   3      16.139   9.519   6.7590  0.00  0.00     0.000 HD
BRANCH 35 47
ATOM     45   N  NAG B   3      12.031  10.255  11.6340  0.00  0.00     0.000 N
ATOM     47  HD  NAG B   3      12.732  10.752  11.5310  0.00  0.00     0.000 HD
ATOM     47   C  NAG B   3      10.714  10.222  11.6110  0.00  0.00     0.000 C
ATOM     48   C  NAG B   3      10.018  10.708  12.8480  0.00  0.00     0.000 C
ATOM     49   O  NAG B   3      10.089   9.841  10.6230  0.00  0.00     0.000 OA
ENDBRANCH 35 47
BRANCH 34 50
ATOM     50  O4  BDP B   4      13.127  12.024   9.8400  0.00  0.00     0.000 O
BRANCH 50 54
ATOM     51  C1  BDP B   4      12.948  16.069  10.2420  0.00  0.00     0.000 C
ATOM     52  C2  BDP B   4      13.647  15.590   8.9740  0.00  0.00     0.000 C
ATOM     53  C3  BDP B   4      13.320  14.144   8.7640  0.00  0.00     0.000 C
ATOM     54  C4  BDP B   4      13.698  13.329  10.0340  0.00  0.00     0.000 C
ATOM     55  C5  BDP B   4      13.145  13.954  11.3080  0.00  0.00     0.000 C
ATOM     56  O5  BDP B   4      13.446  15.345  11.3520  0.00  0.00     0.000 O
ATOM     57   O  BDP B   4      13.206  16.336   7.8600  0.00  0.00     0.000 O
ATOM     59  HD  BDP B   4      13.852  16.891   7.7000  0.00  0.00     0.000 HD
ATOM     59   O  BDP B   4      14.146  13.680   7.6760  0.00  0.00     0.000 O
ATOM     61  HD  BDP B   4      14.792  14.235   7.5160  0.00  0.00     0.000 HD
BRANCH 55 61
ATOM     61   C  BDP B   4      13.767  13.270  12.5120  0.00  0.00     0.000 C
ATOM     62   O  BDP B   4      13.016  12.589  13.2590  0.00  0.00     0.000 OA
ATOM     63   O  BDP B   4      15.012  13.414  12.7080  0.00  0.00     0.000 OA
ENDBRANCH 55 61
BRANCH 51 64
ATOM     64  O3  NAG B   5      13.230  17.475  10.3790  0.00  0.00     0.000 O
BRANCH 64 67
ATOM     65  C1  NAG B   5      10.846  20.121  11.3330  0.00  0.00     0.000 C
ATOM     66  C2  NAG B   5      11.662  19.212  10.4300  0.00  0.00     0.000 C
ATOM     67  C3  NAG B   5      12.334  18.126  11.2590  0.00  0.00     0.000 C
ATOM     68  C4  NAG B   5      13.119  18.733  12.4300  0.00  0.00     0.000 C
ATOM     69  C5  NAG B   5      12.247  19.697  13.2190  0.00  0.00     0.000 C
ATOM     70  O5  NAG B   5      11.671  20.670  12.3350  0.00  0.00     0.000 O
ATOM     71   O  NAG B   5      13.591  17.684  13.2490  0.00  0.00     0.000 O
ATOM     73  HD  NAG B   5      14.305  18.174  13.2570  0.00  0.00     0.000 HD
ATOM     73   C  NAG B   5      12.986  20.450  14.3350  0.00  0.00     0.000 C
ATOM     74   O  NAG B   5      14.002  21.296  13.7570  0.00  0.00     0.000 O
ATOM     76  HD  NAG B   5      14.716  21.786  13.7640  0.00  0.00     0.000 HD
BRANCH 66 78
ATOM     76   N  NAG B   5      10.680  18.771   9.4200  0.00  0.00     0.000 N
ATOM     78  HD  NAG B   5      11.453  19.162   9.4290  0.00  0.00     0.000 HD
ATOM     78   C  NAG B   5      10.885  18.711   8.0950  0.00  0.00     0.000 C
ATOM     79   C  NAG B   5       9.695  18.200   7.3270  0.00  0.00     0.000 C
ATOM     80   O  NAG B   5      11.984  19.063   7.5360  0.00  0.00     0.000 OA
ENDBRANCH 66 78
BRANCH 65 81
ATOM     81  O4  BDP B   6      10.249  21.173  10.5630  0.00  0.00     0.000 O
BRANCH 81 85
ATOM     82  C1  BDP B   6       6.746  23.641  10.5150  0.00  0.00     0.000 C
ATOM     83  C2  BDP B   6       7.797  23.929  11.5840  0.00  0.00     0.000 C
ATOM     84  C3  BDP B   6       9.153  23.291  11.2710  0.00  0.00     0.000 C
ATOM     85  C4  BDP B   6       9.025  21.800  10.9530  0.00  0.00     0.000 C
ATOM     86  C5  BDP B   6       7.913  21.634   9.8900  0.00  0.00     0.000 C
ATOM     87  O5  BDP B   6       6.651  22.237  10.3230  0.00  0.00     0.000 O
ATOM     88   O  BDP B   6       7.932  25.347  11.6120  0.00  0.00     0.000 O
ATOM     90  HD  BDP B   6       8.543  25.958  11.6670  0.00  0.00     0.000 HD
ATOM     90   O  BDP B   6      10.048  23.506  12.3660  0.00  0.00     0.000 O
ATOM     92  HD  BDP B   6      10.659  24.117  12.4210  0.00  0.00     0.000 HD
BRANCH 86 92
ATOM     92   C  BDP B   6       7.570  20.176   9.7050  0.00  0.00     0.000 C
ATOM     93   O  BDP B   6       7.184  19.765   8.5690  0.00  0.00     0.000 OA
ATOM     94   O  BDP B   6       7.708  19.410  10.7080  0.00  0.00     0.000 OA
ENDBRANCH 86 92
BRANCH 82 95
ATOM     95  O3  NAG B   7       5.471  24.110  10.9950  0.00  0.00     0.000 O
BRANCH 95 98
ATOM     96  C1  NAG B   7       2.268  24.858   9.4070  0.00  0.00     0.000 C
ATOM     97  C2  NAG B   7       3.489  25.129  10.2760  0.00  0.00     0.000 C
ATOM     98  C3  NAG B   7       4.297  23.834  10.2330  0.00  0.00     0.000 C
ATOM     99  C4  NAG B   7       3.461  22.682  10.7870  0.00  0.00     0.000 C
ATOM    100  C5  NAG B   7       2.120  22.581  10.0580  0.00  0.00     0.000 C
ATOM    101  O5  NAG B   7       1.492  23.854  10.0710  0.00  0.00     0.000 O
BRANCH 97 104
ATOM    102   N  NAG B   7       4.425  26.159   9.8040  0.00  0.00     0.000 N
ATOM    104  HD  NAG B   7       5.142  26.561   9.5310  0.00  0.00     0.000 HD
ATOM    104   O  NAG B   7       5.648  28.062   9.9060  0.00  0.00     0.000 OA
ATOM    105   C  NAG B   7       4.790  27.308  10.4040  0.00  0.00     0.000 C
ATOM    106   C  NAG B   7       4.161  27.677  11.7040  0.00  0.00     0.000 C
ENDBRANCH 97 104
ATOM    107   O  NAG B   7       0.186  21.274   9.8290  0.00  0.00     0.000 O
ATOM    109  HD  NAG B   7       0.769  21.755   9.4070  0.00  0.00     0.000 HD
ATOM    109   O  NAG B   7       0.186  21.274   9.8290  0.00  0.00     0.000 O
ATOM    111  HD  NAG B   7       0.769  21.755   9.4070  0.00  0.00     0.000 HD
ENDBRANCH 95 98
ENDBRANCH 82 95
ENDBRANCH 81 85
ENDBRANCH 65 81
ENDBRANCH 64 67
ENDBRANCH 51 64
ENDBRANCH 50 54
ENDBRANCH 34 50
ENDBRANCH 33 36
ENDBRANCH 20 33
ENDBRANCH 19 23
ENDBRANCH 1 19
TORSDOF 19
ENDMDL
MODEL 29
REMARK VINA RESULT:      -5.8      5.415     15.790
ROOT
ATOM      1  C1  NAG B   1      17.714  17.431   4.2010  0.00  0.00     0.000 C
ATOM      2  C2  NAG B   1      18.429  16.865   2.9770  0.00  0.00     0.000 C
ATOM      3  C3  NAG B   1      19.687  16.111   3.3560  0.00  0.00     0.000 C
ATOM      4  C4  NAG B   1      20.547  17.112   4.1210  0.00  0.00     0.000 C
ATOM      5  C5  NAG B   1      19.815  17.529   5.4020  0.00  0.00     0.000 C
ATOM      6  O5  NAG B   1      18.558  18.171   5.0980  0.00  0.00     0.000 O
ATOM      7   O  NAG B   1      20.390  15.605   2.1990  0.00  0.00     0.000 O
ATOM      9  HD  NAG B   1      19.561  15.536   1.9580  0.00  0.00     0.000 HD
ATOM      9   O  NAG B   1      21.797  16.529   4.4510  0.00  0.00     0.000 O
ATOM     11  HD  NAG B   1      20.968  16.460   4.2110  0.00  0.00     0.000 HD
ATOM     11   C  NAG B   1      20.719  18.429   6.2530  0.00  0.00     0.000 C
ATOM     12   O  NAG B   1      19.952  19.336   7.0430  0.00  0.00     0.000 O
ATOM     14  HD  NAG B   1      19.123  19.267   6.8030  0.00  0.00     0.000 HD
ENDROOT
BRANCH 2 16
ATOM     14   N  NAG B   1      17.736  17.237   1.7310  0.00  0.00     0.000 N
ATOM     16  HD  NAG B   1      17.821  17.241   0.8690  0.00  0.00     0.000 HD
ATOM     16   C  NAG B   1      17.094  16.348   0.9530  0.00  0.00     0.000 C
ATOM     17   C  NAG B   1      17.085  14.890   1.3280  0.00  0.00     0.000 C
ATOM     18   O  NAG B   1      16.484  16.705  -0.0550  0.00  0.00     0.000 OA
ENDBRANCH 2 16
BRANCH 1 19
ATOM     19  O4  BDP B   2      16.813  18.376   3.6410  0.00  0.00     0.000 O
BRANCH 19 23
ATOM     20  C1  BDP B   2      14.112  18.191   6.7420  0.00  0.00     0.000 C
ATOM     21  C2  BDP B   2      13.883  17.232   5.5920  0.00  0.00     0.000 C
ATOM     22  C3  BDP B   2      15.126  17.089   4.7420  0.00  0.00     0.000 C
ATOM     23  C4  BDP B   2      15.582  18.482   4.3160  0.00  0.00     0.000 C
ATOM     24  C5  BDP B   2      15.789  19.344   5.5450  0.00  0.00     0.000 C
ATOM     25  O5  BDP B   2      14.573  19.447   6.2620  0.00  0.00     0.000 O
ATOM     26   O  BDP B   2      13.492  15.967   6.0800  0.00  0.00     0.000 O
ATOM     28  HD  BDP B   2      13.421  16.443   6.8000  0.00  0.00     0.000 HD
ATOM     28   O  BDP B   2      14.834  16.248   3.6160  0.00  0.00     0.000 O
ATOM     30  HD  BDP B   2      14.763  16.723   4.3360  0.00  0.00     0.000 HD
BRANCH 24 30
ATOM     30   C  BDP B   2      16.224  20.722   5.1990  0.00  0.00     0.000 C
ATOM     31   O  BDP B   2      17.281  21.140   5.7260  0.00  0.00     0.000 OA
ATOM     32   O  BDP B   2      15.509  21.397   4.4050  0.00  0.00     0.000 OA
ENDBRANCH 24 30
BRANCH 20 33
ATOM     33  O3  NAG B   3      12.835  18.354   7.3090  0.00  0.00     0.000 O
BRANCH 33 36
ATOM     34  C1  NAG B   3      12.356  18.578  11.0330  0.00  0.00     0.000 C
ATOM     35  C2  NAG B   3      12.505  17.930   9.6700  0.00  0.00     0.000 C
ATOM     36  C3  NAG B   3      12.903  18.961   8.6020  0.00  0.00     0.000 C
ATOM     37  C4  NAG B   3      11.932  20.138   8.6470  0.00  0.00     0.000 C
ATOM     38  C5  NAG B   3      11.794  20.655  10.0770  0.00  0.00     0.000 C
ATOM     39  O5  NAG B   3      11.379  19.604  10.9330  0.00  0.00     0.000 O
ATOM     40   O  NAG B   3      12.403  21.196   7.7990  0.00  0.00     0.000 O
ATOM     42  HD  NAG B   3      12.315  21.653   8.5300  0.00  0.00     0.000 HD
ATOM     42   C  NAG B   3      10.742  21.750  10.2380  0.00  0.00     0.000 C
ATOM     43   O  NAG B   3       9.443  21.209   9.9700  0.00  0.00     0.000 O
ATOM     45  HD  NAG B   3       9.355  21.666  10.7000  0.00  0.00     0.000 HD
BRANCH 35 47
ATOM     45   N  NAG B   3      12.265  16.511   9.4420  0.00  0.00     0.000 N
ATOM     47  HD  NAG B   3      11.670  17.015   9.0640  0.00  0.00     0.000 HD
ATOM     47   C  NAG B   3      13.235  15.643   9.2400  0.00  0.00     0.000 C
ATOM     48   C  NAG B   3      12.813  14.223   9.0010  0.00  0.00     0.000 C
ATOM     49   O  NAG B   3      14.417  15.980   9.2200  0.00  0.00     0.000 OA
ENDBRANCH 35 47
BRANCH 34 50
ATOM     50  O4  BDP B   4      11.885  17.529  11.8520  0.00  0.00     0.000 O
BRANCH 50 54
ATOM     51  C1  BDP B   4      11.935  16.044  15.6400  0.00  0.00     0.000 C
ATOM     52  C2  BDP B   4      11.621  17.533  15.5490  0.00  0.00     0.000 C
ATOM     53  C3  BDP B   4      11.267  17.863  14.1320  0.00  0.00     0.000 C
ATOM     54  C4  BDP B   4      12.413  17.404  13.1840  0.00  0.00     0.000 C
ATOM     55  C5  BDP B   4      12.836  15.965  13.4420  0.00  0.00     0.000 C
ATOM     56  O5  BDP B   4      13.062  15.753  14.8330  0.00  0.00     0.000 O
ATOM     57   O  BDP B   4      10.534  17.857  16.3900  0.00  0.00     0.000 O
ATOM     59  HD  BDP B   4      10.897  18.237  17.0790  0.00  0.00     0.000 HD
ATOM     59   O  BDP B   4      11.168  19.299  14.0470  0.00  0.00     0.000 O
ATOM     61  HD  BDP B   4      11.531  19.679  14.7350  0.00  0.00     0.000 HD
BRANCH 55 61
ATOM     61   C  BDP B   4      14.117  15.675  12.6790  0.00  0.00     0.000 C
ATOM     62   O  BDP B   4      14.303  14.503  12.2600  0.00  0.00     0.000 OA
ATOM     63   O  BDP B   4      14.937  16.627  12.4990  0.00  0.00     0.000 OA
ENDBRANCH 55 61
BRANCH 51 64
ATOM     64  O3  NAG B   5      12.207  15.748  17.0230  0.00  0.00     0.000 O
BRANCH 64 67
ATOM     65  C1  NAG B   5      10.948  12.776  18.8050  0.00  0.00     0.000 C
ATOM     66  C2  NAG B   5      10.967  14.192  18.2550  0.00  0.00     0.000 C
ATOM     67  C3  NAG B   5      12.146  14.364  17.3060  0.00  0.00     0.000 C
ATOM     68  C4  NAG B   5      13.456  13.920  17.9700  0.00  0.00     0.000 C
ATOM     69  C5  NAG B   5      13.311  12.530  18.5700  0.00  0.00     0.000 C
ATOM     70  O5  NAG B   5      12.172  12.491  19.4420  0.00  0.00     0.000 O
ATOM     71   O  NAG B   5      14.486  13.955  17.0050  0.00  0.00     0.000 O
ATOM     73  HD  NAG B   5      14.929  14.297  17.6660  0.00  0.00     0.000 HD
ATOM     73   C  NAG B   5      14.534  12.054  19.3660  0.00  0.00     0.000 C
ATOM     74   O  NAG B   5      14.725  12.907  20.5140  0.00  0.00     0.000 O
ATOM     76  HD  NAG B   5      15.168  13.249  21.1750  0.00  0.00     0.000 HD
BRANCH 66 78
ATOM     76   N  NAG B   5       9.621  14.353  17.6710  0.00  0.00     0.000 N
ATOM     78  HD  NAG B   5      10.110  14.753  18.2630  0.00  0.00     0.000 HD
ATOM     78   C  NAG B   5       8.816  15.416  17.8230  0.00  0.00     0.000 C
ATOM     79   C  NAG B   5       7.511  15.291  17.0850  0.00  0.00     0.000 C
ATOM     80   O  NAG B   5       9.127  16.437  18.5350  0.00  0.00     0.000 OA
ENDBRANCH 66 78
BRANCH 65 81
ATOM     81  O4  BDP B   6       9.867  12.622  19.7340  0.00  0.00     0.000 O
BRANCH 81 85
ATOM     82  C1  BDP B   6       6.550   9.914  19.5740  0.00  0.00     0.000 C
ATOM     83  C2  BDP B   6       7.219  10.131  20.9290  0.00  0.00     0.000 C
ATOM     84  C3  BDP B   6       8.094  11.387  20.9660  0.00  0.00     0.000 C
ATOM     85  C4  BDP B   6       9.087  11.427  19.8020  0.00  0.00     0.000 C
ATOM     86  C5  BDP B   6       8.300  11.161  18.4960  0.00  0.00     0.000 C
ATOM     87  O5  BDP B   6       7.545   9.908  18.5600  0.00  0.00     0.000 O
ATOM     88   O  BDP B   6       6.151  10.267  21.8620  0.00  0.00     0.000 O
ATOM     90  HD  BDP B   6       5.920  10.744  22.5470  0.00  0.00     0.000 HD
ATOM     90   O  BDP B   6       8.774  11.461  22.2210  0.00  0.00     0.000 O
ATOM     92  HD  BDP B   6       8.543  11.938  22.9060  0.00  0.00     0.000 HD
BRANCH 86 92
ATOM     92   C  BDP B   6       9.248  10.950  17.3400  0.00  0.00     0.000 C
ATOM     93   O  BDP B   6      10.041   9.961  17.3550  0.00  0.00     0.000 OA
ATOM     94   O  BDP B   6       9.190  11.777  16.3770  0.00  0.00     0.000 OA
ENDBRANCH 86 92
BRANCH 82 95
ATOM     95  O3  NAG B   7       5.919   8.618  19.5820  0.00  0.00     0.000 O
BRANCH 95 98
ATOM     96  C1  NAG B   7       2.959   6.824  18.4180  0.00  0.00     0.000 C
ATOM     97  C2  NAG B   7       4.383   6.973  18.9370  0.00  0.00     0.000 C
ATOM     98  C3  NAG B   7       4.608   8.480  19.0370  0.00  0.00     0.000 C
ATOM     99  C4  NAG B   7       4.444   9.122  17.6610  0.00  0.00     0.000 C
ATOM    100  C5  NAG B   7       3.094   8.754  17.0440  0.00  0.00     0.000 C
ATOM    101  O5  NAG B   7       2.940   7.343  17.0830  0.00  0.00     0.000 O
BRANCH 97 104
ATOM    102   N  NAG B   7       4.665   6.487  20.2940  0.00  0.00     0.000 N
ATOM    104  HD  NAG B   7       4.910   6.450  21.1240  0.00  0.00     0.000 HD
ATOM    104   O  NAG B   7       5.675   5.231  21.8860  0.00  0.00     0.000 OA
ATOM    105   C  NAG B   7       5.489   5.495  20.6810  0.00  0.00     0.000 C
ATOM    106   C  NAG B   7       6.209   4.703  19.6430  0.00  0.00     0.000 C
ENDBRANCH 97 104
ATOM    107   O  NAG B   7       1.660   9.182  15.2370  0.00  0.00     0.000 O
ATOM    109  HD  NAG B   7       1.701   9.030  16.0890  0.00  0.00     0.000 HD
ATOM    109   O  NAG B   7       1.660   9.182  15.2370  0.00  0.00     0.000 O
ATOM    111  HD  NAG B   7       1.701   9.030  16.0890  0.00  0.00     0.000 HD
ENDBRANCH 95 98
ENDBRANCH 82 95
ENDBRANCH 81 85
ENDBRANCH 65 81
ENDBRANCH 64 67
ENDBRANCH 51 64
ENDBRANCH 50 54
ENDBRANCH 34 50
ENDBRANCH 33 36
ENDBRANCH 20 33
ENDBRANCH 19 23
ENDBRANCH 1 19
TORSDOF 19
ENDMDL
MODEL 30
REMARK VINA RESULT:      -5.8      3.603      6.123
ROOT
ATOM      1  C1  NAG B   1       7.699  10.706  18.1990  0.00  0.00     0.000 C
ATOM      2  C2  NAG B   1       6.474  11.278  18.9070  0.00  0.00     0.000 C
ATOM      3  C3  NAG B   1       6.594  12.773  19.1230  0.00  0.00     0.000 C
ATOM      4  C4  NAG B   1       7.874  12.967  19.9290  0.00  0.00     0.000 C
ATOM      5  C5  NAG B   1       9.070  12.489  19.0960  0.00  0.00     0.000 C
ATOM      6  O5  NAG B   1       8.957  11.085  18.7800  0.00  0.00     0.000 O
ATOM      7   O  NAG B   1       5.454  13.316  19.8270  0.00  0.00     0.000 O
ATOM      9  HD  NAG B   1       5.096  12.690  19.3470  0.00  0.00     0.000 HD
ATOM      9   O  NAG B   1       8.038  14.335  20.2630  0.00  0.00     0.000 O
ATOM     11  HD  NAG B   1       7.680  13.710  19.7830  0.00  0.00     0.000 HD
ATOM     11   C  NAG B   1      10.379  12.801  19.8330  0.00  0.00     0.000 C
ATOM     12   O  NAG B   1      11.401  11.865  19.4930  0.00  0.00     0.000 O
ATOM     14  HD  NAG B   1      11.043  11.240  19.0130  0.00  0.00     0.000 HD
ENDROOT
BRANCH 2 16
ATOM     14   N  NAG B   1       5.207  11.000  18.2070  0.00  0.00     0.000 N
ATOM     16  HD  NAG B   1       4.823  10.435  17.6750  0.00  0.00     0.000 HD
ATOM     16   C  NAG B   1       4.301  10.113  18.6520  0.00  0.00     0.000 C
ATOM     17   C  NAG B   1       4.572   9.328  19.9080  0.00  0.00     0.000 C
ATOM     18   O  NAG B   1       3.231   9.944  18.0670  0.00  0.00     0.000 OA
ENDBRANCH 2 16
BRANCH 1 19
ATOM     19  O4  BDP B   2       7.574   9.307  18.4160  0.00  0.00     0.000 O
BRANCH 19 23
ATOM     20  C1  BDP B   2       9.990   8.198  15.2740  0.00  0.00     0.000 C
ATOM     21  C2  BDP B   2       8.520   8.386  14.9590  0.00  0.00     0.000 C
ATOM     22  C3  BDP B   2       7.825   9.179  16.0420  0.00  0.00     0.000 C
ATOM     23  C4  BDP B   2       8.097   8.505  17.3840  0.00  0.00     0.000 C
ATOM     24  C5  BDP B   2       9.594   8.383  17.5930  0.00  0.00     0.000 C
ATOM     25  O5  BDP B   2      10.155   7.604  16.5540  0.00  0.00     0.000 O
ATOM     26   O  BDP B   2       8.365   9.039  13.7180  0.00  0.00     0.000 O
ATOM     28  HD  BDP B   2       9.209   8.848  13.6900  0.00  0.00     0.000 HD
ATOM     28   O  BDP B   2       6.421   9.251  15.7490  0.00  0.00     0.000 O
ATOM     30  HD  BDP B   2       7.265   9.059  15.7220  0.00  0.00     0.000 HD
BRANCH 24 30
ATOM     30   C  BDP B   2       9.929   7.722  18.8820  0.00  0.00     0.000 C
ATOM     31   O  BDP B   2      10.644   8.363  19.6870  0.00  0.00     0.000 OA
ATOM     32   O  BDP B   2       9.487   6.557  19.0930  0.00  0.00     0.000 OA
ENDBRANCH 24 30
BRANCH 20 33
ATOM     33  O3  NAG B   3      10.437   7.301  14.2870  0.00  0.00     0.000 O
BRANCH 33 36
ATOM     34  C1  NAG B   3      13.757   7.498  12.5290  0.00  0.00     0.000 C
ATOM     35  C2  NAG B   3      12.269   7.690  12.7520  0.00  0.00     0.000 C
ATOM     36  C3  NAG B   3      11.863   7.299  14.1810  0.00  0.00     0.000 C
ATOM     37  C4  NAG B   3      12.379   5.894  14.4870  0.00  0.00     0.000 C
ATOM     38  C5  NAG B   3      13.863   5.790  14.1460  0.00  0.00     0.000 C
ATOM     39  O5  NAG B   3      14.073   6.137  12.7880  0.00  0.00     0.000 O
ATOM     40   O  NAG B   3      12.185   5.592  15.8770  0.00  0.00     0.000 O
ATOM     42  HD  NAG B   3      13.034   5.426  15.8320  0.00  0.00     0.000 HD
ATOM     42   C  NAG B   3      14.433   4.382  14.2970  0.00  0.00     0.000 C
ATOM     43   O  NAG B   3      13.825   3.513  13.3350  0.00  0.00     0.000 O
ATOM     45  HD  NAG B   3      14.674   3.347  13.2890  0.00  0.00     0.000 HD
BRANCH 35 47
ATOM     45   N  NAG B   3      11.895   9.067  12.4550  0.00  0.00     0.000 N
ATOM     47  HD  NAG B   3      12.753   8.953  12.4790  0.00  0.00     0.000 HD
ATOM     47   C  NAG B   3      10.866   9.381  11.6930  0.00  0.00     0.000 C
ATOM     48   C  NAG B   3      10.631  10.846  11.4710  0.00  0.00     0.000 C
ATOM     49   O  NAG B   3      10.155   8.525  11.1720  0.00  0.00     0.000 OA
ENDBRANCH 35 47
BRANCH 34 50
ATOM     50  O4  BDP B   4      13.930   7.791  11.1580  0.00  0.00     0.000 O
BRANCH 50 54
ATOM     51  C1  BDP B   4      15.833  10.792   9.1770  0.00  0.00     0.000 C
ATOM     52  C2  BDP B   4      16.152   9.393   8.6620  0.00  0.00     0.000 C
ATOM     53  C3  BDP B   4      15.132   8.439   9.2030  0.00  0.00     0.000 C
ATOM     54  C4  BDP B   4      15.088   8.541  10.7550  0.00  0.00     0.000 C
ATOM     55  C5  BDP B   4      14.969   9.980  11.2380  0.00  0.00     0.000 C
ATOM     56  O5  BDP B   4      15.934  10.804  10.5900  0.00  0.00     0.000 O
ATOM     57   O  BDP B   4      16.112   9.370   7.2510  0.00  0.00     0.000 O
ATOM     59  HD  BDP B   4      16.943   9.371   7.0090  0.00  0.00     0.000 HD
ATOM     59   O  BDP B   4      15.574   7.111   8.8570  0.00  0.00     0.000 O
ATOM     61  HD  BDP B   4      16.406   7.111   8.6150  0.00  0.00     0.000 HD
BRANCH 55 61
ATOM     61   C  BDP B   4      15.200  10.026  12.7370  0.00  0.00     0.000 C
ATOM     62   O  BDP B   4      14.325  10.580  13.4530  0.00  0.00     0.000 OA
ATOM     63   O  BDP B   4      16.260   9.503  13.1980  0.00  0.00     0.000 OA
ENDBRANCH 55 61
BRANCH 51 64
ATOM     64  O3  NAG B   5      16.791  11.693   8.5890  0.00  0.00     0.000 O
BRANCH 64 67
ATOM     65  C1  NAG B   5      15.698  15.214   8.5290  0.00  0.00     0.000 C
ATOM     66  C2  NAG B   5      15.706  13.730   8.2020  0.00  0.00     0.000 C
ATOM     67  C3  NAG B   5      16.694  13.005   9.1070  0.00  0.00     0.000 C
ATOM     68  C4  NAG B   5      18.074  13.675   9.0640  0.00  0.00     0.000 C
ATOM     69  C5  NAG B   5      17.954  15.170   9.3110  0.00  0.00     0.000 C
ATOM     70  O5  NAG B   5      16.999  15.740   8.4030  0.00  0.00     0.000 O
ATOM     71   O  NAG B   5      18.903  13.062  10.0280  0.00  0.00     0.000 O
ATOM     73  HD  NAG B   5      19.484  13.118   9.3880  0.00  0.00     0.000 HD
ATOM     73   C  NAG B   5      19.271  15.944   9.1610  0.00  0.00     0.000 C
ATOM     74   O  NAG B   5      19.731  15.856   7.7960  0.00  0.00     0.000 O
ATOM     76  HD  NAG B   5      20.312  15.912   7.1560  0.00  0.00     0.000 HD
BRANCH 66 78
ATOM     76   N  NAG B   5      14.744  13.227   7.2030  0.00  0.00     0.000 N
ATOM     78  HD  NAG B   5      14.880  13.144   8.0540  0.00  0.00     0.000 HD
ATOM     78   C  NAG B   5      13.597  12.580   7.4670  0.00  0.00     0.000 C
ATOM     79   C  NAG B   5      12.820  12.209   6.2330  0.00  0.00     0.000 C
ATOM     80   O  NAG B   5      13.206  12.299   8.6550  0.00  0.00     0.000 OA
ENDBRANCH 66 78
BRANCH 65 81
ATOM     81  O4  BDP B   6      14.804  15.908   7.6490  0.00  0.00     0.000 O
BRANCH 81 85
ATOM     82  C1  BDP B   6      12.011  19.157   7.7070  0.00  0.00     0.000 C
ATOM     83  C2  BDP B   6      13.495  19.504   7.6150  0.00  0.00     0.000 C
ATOM     84  C3  BDP B   6      14.359  18.312   7.1940  0.00  0.00     0.000 C
ATOM     85  C4  BDP B   6      14.092  17.078   8.0570  0.00  0.00     0.000 C
ATOM     86  C5  BDP B   6      12.562  16.851   8.1020  0.00  0.00     0.000 C
ATOM     87  O5  BDP B   6      11.847  18.040   8.5690  0.00  0.00     0.000 O
ATOM     88   O  BDP B   6      13.585  20.530   6.6310  0.00  0.00     0.000 O
ATOM     90  HD  BDP B   6      14.079  20.771   5.9610  0.00  0.00     0.000 HD
ATOM     90   O  BDP B   6      15.740  18.681   7.2410  0.00  0.00     0.000 O
ATOM     92  HD  BDP B   6      16.233  18.922   6.5710  0.00  0.00     0.000 HD
BRANCH 86 92
ATOM     92   C  BDP B   6      12.212  15.797   9.1240  0.00  0.00     0.000 C
ATOM     93   O  BDP B   6      11.457  14.833   8.7940  0.00  0.00     0.000 OA
ATOM     94   O  BDP B   6      12.718  15.914  10.2830  0.00  0.00     0.000 OA
ENDBRANCH 86 92
BRANCH 82 95
ATOM     95  O3  NAG B   7      11.320  20.276   8.2960  0.00  0.00     0.000 O
BRANCH 95 98
ATOM     96  C1  NAG B   7       8.130  21.910   7.5900  0.00  0.00     0.000 C
ATOM     97  C2  NAG B   7       9.636  21.827   7.8010  0.00  0.00     0.000 C
ATOM     98  C3  NAG B   7       9.902  20.366   8.1610  0.00  0.00     0.000 C
ATOM     99  C4  NAG B   7       9.139  19.997   9.4300  0.00  0.00     0.000 C
ATOM    100  C5  NAG B   7       7.651  20.322   9.2870  0.00  0.00     0.000 C
ATOM    101  O5  NAG B   7       7.513  21.668   8.8590  0.00  0.00     0.000 O
BRANCH 97 104
ATOM    102   N  NAG B   7      10.441  22.126   6.6080  0.00  0.00     0.000 N
ATOM    104  HD  NAG B   7      10.964  22.044   5.9230  0.00  0.00     0.000 HD
ATOM    104   O  NAG B   7      12.106  23.084   5.4090  0.00  0.00     0.000 OA
ATOM    105   C  NAG B   7      11.475  22.978   6.4790  0.00  0.00     0.000 C
ATOM    106   C  NAG B   7      11.884  23.804   7.6500  0.00  0.00     0.000 C
ENDBRANCH 97 104
ATOM    107   O  NAG B   7       5.558  20.098  10.3230  0.00  0.00     0.000 O
ATOM    109  HD  NAG B   7       5.979  20.081   9.5660  0.00  0.00     0.000 HD
ATOM    109   O  NAG B   7       5.558  20.098  10.3230  0.00  0.00     0.000 O
ATOM    111  HD  NAG B   7       5.979  20.081   9.5660  0.00  0.00     0.000 HD
ENDBRANCH 95 98
ENDBRANCH 82 95
ENDBRANCH 81 85
ENDBRANCH 65 81
ENDBRANCH 64 67
ENDBRANCH 51 64
ENDBRANCH 50 54
ENDBRANCH 34 50
ENDBRANCH 33 36
ENDBRANCH 20 33
ENDBRANCH 19 23
ENDBRANCH 1 19
TORSDOF 19
ENDMDL
MODEL 31
REMARK VINA RESULT:      -5.8      5.253      7.082
ROOT
ATOM      1  C1  NAG B   1       9.756  10.178  15.9290  0.00  0.00     0.000 C
ATOM      2  C2  NAG B   1       8.648  10.208  16.9790  0.00  0.00     0.000 C
ATOM      3  C3  NAG B   1       8.706  11.464  17.8240  0.00  0.00     0.000 C
ATOM      4  C4  NAG B   1      10.098  11.473  18.4470  0.00  0.00     0.000 C
ATOM      5  C5  NAG B   1      11.147  11.578  17.3330  0.00  0.00     0.000 C
ATOM      6  O5  NAG B   1      11.072  10.447  16.4390  0.00  0.00     0.000 O
ATOM      7   O  NAG B   1       7.683  11.481  18.8460  0.00  0.00     0.000 O
ATOM      9  HD  NAG B   1       7.285  11.079  18.1900  0.00  0.00     0.000 HD
ATOM      9   O  NAG B   1      10.228  12.572  19.3340  0.00  0.00     0.000 O
ATOM     11  HD  NAG B   1       9.830  12.170  18.6790  0.00  0.00     0.000 HD
ATOM     11   C  NAG B   1      12.546  11.727  17.9440  0.00  0.00     0.000 C
ATOM     12   O  NAG B   1      13.547  11.186  17.0830  0.00  0.00     0.000 O
ATOM     14  HD  NAG B   1      13.149  10.784  16.4270  0.00  0.00     0.000 HD
ENDROOT
BRANCH 2 16
ATOM     14   N  NAG B   1       7.425   9.934  16.2040  0.00  0.00     0.000 N
ATOM     16  HD  NAG B   1       7.091   9.403  15.6080  0.00  0.00     0.000 HD
ATOM     16   C  NAG B   1       6.550   8.967  16.5300  0.00  0.00     0.000 C
ATOM     17   C  NAG B   1       6.814   8.085  17.7210  0.00  0.00     0.000 C
ATOM     18   O  NAG B   1       5.513   8.801  15.8870  0.00  0.00     0.000 OA
ENDBRANCH 2 16
BRANCH 1 19
ATOM     19  O4  BDP B   2       9.768   8.820  15.5100  0.00  0.00     0.000 O
BRANCH 19 23
ATOM     20  C1  BDP B   2      11.952   9.550  12.0980  0.00  0.00     0.000 C
ATOM     21  C2  BDP B   2      10.446   9.527  11.9410  0.00  0.00     0.000 C
ATOM     22  C3  BDP B   2       9.753   9.673  13.2770  0.00  0.00     0.000 C
ATOM     23  C4  BDP B   2      10.301   8.610  14.2240  0.00  0.00     0.000 C
ATOM     24  C5  BDP B   2      11.809   8.739  14.3100  0.00  0.00     0.000 C
ATOM     25  O5  BDP B   2      12.373   8.559  13.0250  0.00  0.00     0.000 O
ATOM     26   O  BDP B   2      10.028  10.558  11.0720  0.00  0.00     0.000 O
ATOM     28  HD  BDP B   2      10.883  10.576  10.9390  0.00  0.00     0.000 HD
ATOM     28   O  BDP B   2       8.334   9.551  13.0900  0.00  0.00     0.000 O
ATOM     30  HD  BDP B   2       9.190   9.570  12.9560  0.00  0.00     0.000 HD
BRANCH 24 30
ATOM     30   C  BDP B   2      12.410   7.721  15.2110  0.00  0.00     0.000 C
ATOM     31   O  BDP B   2      12.250   6.517  14.9050  0.00  0.00     0.000 OA
ATOM     32   O  BDP B   2      13.037   8.119  16.2340  0.00  0.00     0.000 OA
ENDBRANCH 24 30
BRANCH 20 33
ATOM     33  O3  NAG B   3      12.433   9.220  10.8180  0.00  0.00     0.000 O
BRANCH 33 36
ATOM     34  C1  NAG B   3      15.649  10.539   9.3800  0.00  0.00     0.000 C
ATOM     35  C2  NAG B   3      14.162  10.467   9.6700  0.00  0.00     0.000 C
ATOM     36  C3  NAG B   3      13.849   9.393  10.7240  0.00  0.00     0.000 C
ATOM     37  C4  NAG B   3      14.482   8.070  10.3000  0.00  0.00     0.000 C
ATOM     38  C5  NAG B   3      15.954   8.275   9.9520  0.00  0.00     0.000 C
ATOM     39  O5  NAG B   3      16.078   9.259   8.9380  0.00  0.00     0.000 O
ATOM     40   O  NAG B   3      14.372   7.111  11.3640  0.00  0.00     0.000 O
ATOM     42  HD  NAG B   3      15.228   7.063  11.2420  0.00  0.00     0.000 HD
ATOM     42   C  NAG B   3      16.635   7.029   9.3930  0.00  0.00     0.000 C
ATOM     43   O  NAG B   3      16.053   6.691   8.1270  0.00  0.00     0.000 O
ATOM     45  HD  NAG B   3      16.909   6.644   8.0060  0.00  0.00     0.000 HD
BRANCH 35 47
ATOM     45   N  NAG B   3      13.708  11.803  10.0350  0.00  0.00     0.000 N
ATOM     47  HD  NAG B   3      14.567  11.759   9.9350  0.00  0.00     0.000 HD
ATOM     47   C  NAG B   3      12.591  12.331   9.5780  0.00  0.00     0.000 C
ATOM     48   C  NAG B   3      12.281  13.725  10.0370  0.00  0.00     0.000 C
ATOM     49   O  NAG B   3      11.857  11.727   8.7980  0.00  0.00     0.000 OA
ENDBRANCH 35 47
BRANCH 34 50
ATOM     50  O4  BDP B   4      15.740  11.478   8.3300  0.00  0.00     0.000 O
BRANCH 50 54
ATOM     51  C1  BDP B   4      18.153  14.230   6.5530  0.00  0.00     0.000 C
ATOM     52  C2  BDP B   4      18.477  12.783   6.1990  0.00  0.00     0.000 C
ATOM     53  C3  BDP B   4      17.319  11.921   6.5980  0.00  0.00     0.000 C
ATOM     54  C4  BDP B   4      16.996  12.140   8.1040  0.00  0.00     0.000 C
ATOM     55  C5  BDP B   4      16.876  13.616   8.4610  0.00  0.00     0.000 C
ATOM     56  O5  BDP B   4      17.992  14.343   7.9550  0.00  0.00     0.000 O
ATOM     57   O  BDP B   4      18.698  12.656   4.8100  0.00  0.00     0.000 O
ATOM     59  HD  BDP B   4      19.558  12.599   4.7300  0.00  0.00     0.000 HD
ATOM     59   O  BDP B   4      17.737  10.551   6.4280  0.00  0.00     0.000 O
ATOM     61  HD  BDP B   4      18.598  10.494   6.3480  0.00  0.00     0.000 HD
BRANCH 55 61
ATOM     61   C  BDP B   4      16.829  13.762   9.9720  0.00  0.00     0.000 C
ATOM     62   O  BDP B   4      17.910  13.665  10.6090  0.00  0.00     0.000 OA
ATOM     63   O  BDP B   4      15.704  13.977  10.5190  0.00  0.00     0.000 OA
ENDBRANCH 55 61
BRANCH 51 64
ATOM     64  O3  NAG B   5      19.256  15.038   6.0990  0.00  0.00     0.000 O
BRANCH 64 67
ATOM     65  C1  NAG B   5      18.715  18.499   4.9500  0.00  0.00     0.000 C
ATOM     66  C2  NAG B   5      18.748  16.982   4.8980  0.00  0.00     0.000 C
ATOM     67  C3  NAG B   5      19.031  16.421   6.2860  0.00  0.00     0.000 C
ATOM     68  C4  NAG B   5      20.283  17.065   6.8950  0.00  0.00     0.000 C
ATOM     69  C5  NAG B   5      20.200  18.581   6.8190  0.00  0.00     0.000 C
ATOM     70  O5  NAG B   5      19.931  18.988   5.4690  0.00  0.00     0.000 O
ATOM     71   O  NAG B   5      20.412  16.627   8.2310  0.00  0.00     0.000 O
ATOM     73  HD  NAG B   5      21.246  16.566   8.0040  0.00  0.00     0.000 HD
ATOM     73   C  NAG B   5      21.467  19.309   7.2900  0.00  0.00     0.000 C
ATOM     74   O  NAG B   5      22.567  18.980   6.4160  0.00  0.00     0.000 O
ATOM     76  HD  NAG B   5      23.400  18.920   6.1890  0.00  0.00     0.000 HD
BRANCH 66 78
ATOM     76   N  NAG B   5      17.466  16.700   4.2240  0.00  0.00     0.000 N
ATOM     78  HD  NAG B   5      18.294  16.461   4.1430  0.00  0.00     0.000 HD
ATOM     78   C  NAG B   5      17.245  15.732   3.3210  0.00  0.00     0.000 C
ATOM     79   C  NAG B   5      15.824  15.685   2.8270  0.00  0.00     0.000 C
ATOM     80   O  NAG B   5      18.158  14.931   2.9110  0.00  0.00     0.000 OA
ENDBRANCH 66 78
BRANCH 65 81
ATOM     81  O4  BDP B   6      18.496  19.033   3.6380  0.00  0.00     0.000 O
BRANCH 81 85
ATOM     82  C1  BDP B   6      16.126  22.172   1.9370  0.00  0.00     0.000 C
ATOM     83  C2  BDP B   6      17.638  22.376   1.9840  0.00  0.00     0.000 C
ATOM     84  C3  BDP B   6      18.407  21.072   2.2170  0.00  0.00     0.000 C
ATOM     85  C4  BDP B   6      17.875  20.303   3.4280  0.00  0.00     0.000 C
ATOM     86  C5  BDP B   6      16.338  20.192   3.2840  0.00  0.00     0.000 C
ATOM     87  O5  BDP B   6      15.710  21.504   3.1190  0.00  0.00     0.000 O
ATOM     88   O  BDP B   6      17.988  22.915   0.7120  0.00  0.00     0.000 O
ATOM     90  HD  BDP B   6      18.597  22.841   0.1010  0.00  0.00     0.000 HD
ATOM     90   O  BDP B   6      19.800  21.357   2.3630  0.00  0.00     0.000 O
ATOM     92  HD  BDP B   6      20.409  21.284   1.7510  0.00  0.00     0.000 HD
BRANCH 86 92
ATOM     92   C  BDP B   6      15.724  19.656   4.5540  0.00  0.00     0.000 C
ATOM     93   O  BDP B   6      15.857  20.307   5.6350  0.00  0.00     0.000 OA
ATOM     94   O  BDP B   6      15.071  18.569   4.4760  0.00  0.00     0.000 OA
ENDBRANCH 86 92
BRANCH 82 95
ATOM     95  O3  NAG B   7      15.494  23.467   1.9140  0.00  0.00     0.000 O
BRANCH 95 98
ATOM     96  C1  NAG B   7      13.266  25.480  -0.1650  0.00  0.00     0.000 C
ATOM     97  C2  NAG B   7      14.355  25.226   0.8690  0.00  0.00     0.000 C
ATOM     98  C3  NAG B   7      14.431  23.706   0.9920  0.00  0.00     0.000 C
ATOM     99  C4  NAG B   7      13.084  23.154   1.4520  0.00  0.00     0.000 C
ATOM    100  C5  NAG B   7      11.957  23.629   0.5330  0.00  0.00     0.000 C
ATOM    101  O5  NAG B   7      12.030  25.041   0.4080  0.00  0.00     0.000 O
BRANCH 97 104
ATOM    102   N  NAG B   7      15.772  25.528   0.6240  0.00  0.00     0.000 N
ATOM    104  HD  NAG B   7      16.637  25.488   0.6260  0.00  0.00     0.000 HD
ATOM    104   O  NAG B   7      17.693  26.724   0.7300  0.00  0.00     0.000 OA
ATOM    105   C  NAG B   7      16.469  26.633   0.9510  0.00  0.00     0.000 C
ATOM    106   C  NAG B   7      15.761  27.768   1.6070  0.00  0.00     0.000 C
ENDBRANCH 97 104
ATOM    107   O  NAG B   7       9.673  23.382   0.0590  0.00  0.00     0.000 O
ATOM    109  HD  NAG B   7      10.461  23.482  -0.2860  0.00  0.00     0.000 HD
ATOM    109   O  NAG B   7       9.673  23.382   0.0590  0.00  0.00     0.000 O
ATOM    111  HD  NAG B   7      10.461  23.482  -0.2860  0.00  0.00     0.000 HD
ENDBRANCH 95 98
ENDBRANCH 82 95
ENDBRANCH 81 85
ENDBRANCH 65 81
ENDBRANCH 64 67
ENDBRANCH 51 64
ENDBRANCH 50 54
ENDBRANCH 34 50
ENDBRANCH 33 36
ENDBRANCH 20 33
ENDBRANCH 19 23
ENDBRANCH 1 19
TORSDOF 19
ENDMDL
MODEL 32
REMARK VINA RESULT:      -5.8      3.204      5.348
ROOT
ATOM      1  C1  NAG B   1       7.184   4.889  21.1010  0.00  0.00     0.000 C
ATOM      2  C2  NAG B   1       7.148   5.443  22.5230  0.00  0.00     0.000 C
ATOM      3  C3  NAG B   1       5.779   5.292  23.1530  0.00  0.00     0.000 C
ATOM      4  C4  NAG B   1       4.817   6.021  22.2200  0.00  0.00     0.000 C
ATOM      5  C5  NAG B   1       4.814   5.322  20.8550  0.00  0.00     0.000 C
ATOM      6  O5  NAG B   1       6.125   5.354  20.2500  0.00  0.00     0.000 O
ATOM      7   O  NAG B   1       5.727   5.851  24.4860  0.00  0.00     0.000 O
ATOM      9  HD  NAG B   1       6.534   5.538  24.4460  0.00  0.00     0.000 HD
ATOM      9   O  NAG B   1       3.509   6.015  22.7660  0.00  0.00     0.000 O
ATOM     11  HD  NAG B   1       4.315   5.702  22.7260  0.00  0.00     0.000 HD
ATOM     11   C  NAG B   1       3.754   5.954  19.9450  0.00  0.00     0.000 C
ATOM     12   O  NAG B   1       4.118   5.845  18.5700  0.00  0.00     0.000 O
ATOM     14  HD  NAG B   1       4.925   5.531  18.5300  0.00  0.00     0.000 HD
ENDROOT
BRANCH 2 16
ATOM     14   N  NAG B   1       8.344   6.114  23.0640  0.00  0.00     0.000 N
ATOM     16  HD  NAG B   1       8.663   6.481  23.7810  0.00  0.00     0.000 HD
ATOM     16   C  NAG B   1       9.251   5.489  23.8350  0.00  0.00     0.000 C
ATOM     17   C  NAG B   1       9.054   4.043  24.2050  0.00  0.00     0.000 C
ATOM     18   O  NAG B   1      10.262   6.069  24.2280  0.00  0.00     0.000 OA
ENDBRANCH 2 16
BRANCH 1 19
ATOM     19  O4  BDP B   2       8.383   5.437  20.5700  0.00  0.00     0.000 O
BRANCH 19 23
ATOM     20  C1  BDP B   2       9.453   7.427  17.1300  0.00  0.00     0.000 C
ATOM     21  C2  BDP B   2       8.482   8.142  18.0460  0.00  0.00     0.000 C
ATOM     22  C3  BDP B   2       8.489   7.536  19.4320  0.00  0.00     0.000 C
ATOM     23  C4  BDP B   2       8.241   6.036  19.3040  0.00  0.00     0.000 C
ATOM     24  C5  BDP B   2       9.277   5.431  18.3760  0.00  0.00     0.000 C
ATOM     25  O5  BDP B   2       9.179   6.034  17.1000  0.00  0.00     0.000 O
ATOM     26   O  BDP B   2       8.802   9.514  18.1250  0.00  0.00     0.000 O
ATOM     28  HD  BDP B   2       9.305   9.273  17.4620  0.00  0.00     0.000 HD
ATOM     28   O  BDP B   2       7.489   8.182  20.2350  0.00  0.00     0.000 O
ATOM     30  HD  BDP B   2       7.992   7.941  19.5730  0.00  0.00     0.000 HD
BRANCH 24 30
ATOM     30   C  BDP B   2       9.085   3.968  18.1990  0.00  0.00     0.000 C
ATOM     31   O  BDP B   2       7.951   3.576  17.8390  0.00  0.00     0.000 OA
ATOM     32   O  BDP B   2      10.065   3.201  18.4250  0.00  0.00     0.000 OA
ENDBRANCH 24 30
BRANCH 20 33
ATOM     33  O3  NAG B   3       9.192   7.977  15.8610  0.00  0.00     0.000 O
BRANCH 33 36
ATOM     34  C1  NAG B   3      11.657   9.275  13.3350  0.00  0.00     0.000 C
ATOM     35  C2  NAG B   3      10.577   9.320  14.3980  0.00  0.00     0.000 C
ATOM     36  C3  NAG B   3      10.345   7.933  15.0180  0.00  0.00     0.000 C
ATOM     37  C4  NAG B   3      10.104   6.916  13.9040  0.00  0.00     0.000 C
ATOM     38  C5  NAG B   3      11.202   7.017  12.8490  0.00  0.00     0.000 C
ATOM     39  O5  NAG B   3      11.264   8.339  12.3410  0.00  0.00     0.000 O
ATOM     40   O  NAG B   3      10.086   5.587  14.4490  0.00  0.00     0.000 O
ATOM     42  HD  NAG B   3      10.690   5.463  13.8410  0.00  0.00     0.000 HD
ATOM     42   C  NAG B   3      10.972   6.126  11.6310  0.00  0.00     0.000 C
ATOM     43   O  NAG B   3       9.809   6.573  10.9240  0.00  0.00     0.000 O
ATOM     45  HD  NAG B   3      10.414   6.449  10.3160  0.00  0.00     0.000 HD
BRANCH 35 47
ATOM     45   N  NAG B   3       9.876  10.554  14.7280  0.00  0.00     0.000 N
ATOM     47  HD  NAG B   3       9.371   9.983  14.3170  0.00  0.00     0.000 HD
ATOM     47   C  NAG B   3      10.072  11.212  15.8530  0.00  0.00     0.000 C
ATOM     48   C  NAG B   3       9.253  12.454  16.0440  0.00  0.00     0.000 C
ATOM     49   O  NAG B   3      10.861  10.817  16.7090  0.00  0.00     0.000 OA
ENDBRANCH 35 47
BRANCH 34 50
ATOM     50  O4  BDP B   4      11.658  10.584  12.8040  0.00  0.00     0.000 O
BRANCH 50 54
ATOM     51  C1  BDP B   4      14.001  13.493  11.1920  0.00  0.00     0.000 C
ATOM     52  C2  BDP B   4      14.105  12.140  10.4970  0.00  0.00     0.000 C
ATOM     53  C3  BDP B   4      12.950  11.290  10.9280  0.00  0.00     0.000 C
ATOM     54  C4  BDP B   4      12.918  11.196  12.4810  0.00  0.00     0.000 C
ATOM     55  C5  BDP B   4      13.018  12.562  13.1460  0.00  0.00     0.000 C
ATOM     56  O5  BDP B   4      14.099  13.307  12.5920  0.00  0.00     0.000 O
ATOM     57   O  BDP B   4      14.066  12.306   9.0950  0.00  0.00     0.000 O
ATOM     59  HD  BDP B   4      14.889  12.212   8.8410  0.00  0.00     0.000 HD
ATOM     59   O  BDP B   4      13.186   9.966  10.4070  0.00  0.00     0.000 O
ATOM     61  HD  BDP B   4      14.009   9.871  10.1540  0.00  0.00     0.000 HD
BRANCH 55 61
ATOM     61   C  BDP B   4      13.249  12.378  14.6350  0.00  0.00     0.000 C
ATOM     62   O  BDP B   4      12.801  13.259  15.4150  0.00  0.00     0.000 OA
ATOM     63   O  BDP B   4      13.879  11.348  15.0220  0.00  0.00     0.000 OA
ENDBRANCH 55 61
BRANCH 51 64
ATOM     64  O3  NAG B   5      15.087  14.307  10.7070  0.00  0.00     0.000 O
BRANCH 64 67
ATOM     65  C1  NAG B   5      14.556  17.819   9.7190  0.00  0.00     0.000 C
ATOM     66  C2  NAG B   5      14.564  16.304   9.6050  0.00  0.00     0.000 C
ATOM     67  C3  NAG B   5      14.888  15.684  10.9580  0.00  0.00     0.000 C
ATOM     68  C4  NAG B   5      16.172  16.286  11.5470  0.00  0.00     0.000 C
ATOM     69  C5  NAG B   5      16.108  17.805  11.5340  0.00  0.00     0.000 C
ATOM     70  O5  NAG B   5      15.797  18.270  10.2120  0.00  0.00     0.000 O
ATOM     71   O  NAG B   5      16.342  15.793  12.8580  0.00  0.00     0.000 O
ATOM     73  HD  NAG B   5      17.165  15.731  12.5990  0.00  0.00     0.000 HD
ATOM     73   C  NAG B   5      17.401  18.497  11.9880  0.00  0.00     0.000 C
ATOM     74   O  NAG B   5      18.464  18.189  11.0620  0.00  0.00     0.000 O
ATOM     76  HD  NAG B   5      19.288  18.127  10.8020  0.00  0.00     0.000 HD
BRANCH 66 78
ATOM     76   N  NAG B   5      14.186  15.668   8.3280  0.00  0.00     0.000 N
ATOM     78  HD  NAG B   5      13.857  15.741   9.1260  0.00  0.00     0.000 HD
ATOM     78   C  NAG B   5      12.988  15.140   8.0340  0.00  0.00     0.000 C
ATOM     79   C  NAG B   5      12.905  14.580   6.6400  0.00  0.00     0.000 C
ATOM     80   O  NAG B   5      12.011  15.107   8.8650  0.00  0.00     0.000 OA
ENDBRANCH 66 78
BRANCH 65 81
ATOM     81  O4  BDP B   6      14.298  18.408   8.4380  0.00  0.00     0.000 O
BRANCH 81 85
ATOM     82  C1  BDP B   6      12.255  21.748   6.6950  0.00  0.00     0.000 C
ATOM     83  C2  BDP B   6      13.519  22.036   7.5010  0.00  0.00     0.000 C
ATOM     84  C3  BDP B   6      14.379  20.789   7.7240  0.00  0.00     0.000 C
ATOM     85  C4  BDP B   6      13.565  19.627   8.2960  0.00  0.00     0.000 C
ATOM     86  C5  BDP B   6      12.300  19.457   7.4200  0.00  0.00     0.000 C
ATOM     87  O5  BDP B   6      11.532  20.699   7.3230  0.00  0.00     0.000 O
ATOM     88   O  BDP B   6      14.250  22.989   6.7330  0.00  0.00     0.000 O
ATOM     90  HD  BDP B   6      15.061  23.166   6.4860  0.00  0.00     0.000 HD
ATOM     90   O  BDP B   6      15.480  21.113   8.5780  0.00  0.00     0.000 O
ATOM     92  HD  BDP B   6      16.291  21.290   8.3310  0.00  0.00     0.000 HD
BRANCH 86 92
ATOM     92   C  BDP B   6      11.338  18.488   8.0630  0.00  0.00     0.000 C
ATOM     93   O  BDP B   6      10.719  17.650   7.3400  0.00  0.00     0.000 OA
ATOM     94   O  BDP B   6      11.206  18.543   9.3260  0.00  0.00     0.000 OA
ENDBRANCH 86 92
BRANCH 82 95
ATOM     95  O3  NAG B   7      11.427  22.927   6.7120  0.00  0.00     0.000 O
BRANCH 95 98
ATOM     96  C1  NAG B   7       9.911  25.273   4.3580  0.00  0.00     0.000 C
ATOM     97  C2  NAG B   7      10.559  24.833   5.6640  0.00  0.00     0.000 C
ATOM     98  C3  NAG B   7      10.762  23.327   5.5150  0.00  0.00     0.000 C
ATOM     99  C4  NAG B   7       9.416  22.641   5.3010  0.00  0.00     0.000 C
ATOM    100  C5  NAG B   7       8.663  23.268   4.1260  0.00  0.00     0.000 C
ATOM    101  O5  NAG B   7       8.611  24.674   4.3110  0.00  0.00     0.000 O
BRANCH 97 104
ATOM    102   N  NAG B   7      11.886  25.410   5.9230  0.00  0.00     0.000 N
ATOM    104  HD  NAG B   7      12.740  25.500   6.0380  0.00  0.00     0.000 HD
ATOM    104   O  NAG B   7      13.509  26.441   7.1210  0.00  0.00     0.000 OA
ATOM    105   C  NAG B   7      12.327  26.055   7.0200  0.00  0.00     0.000 C
ATOM    106   C  NAG B   7      11.382  26.300   8.1460  0.00  0.00     0.000 C
ENDBRANCH 97 104
ATOM    107   O  NAG B   7       6.765  23.053   2.7650  0.00  0.00     0.000 O
ATOM    109  HD  NAG B   7       7.607  23.254   2.7790  0.00  0.00     0.000 HD
ATOM    109   O  NAG B   7       6.765  23.053   2.7650  0.00  0.00     0.000 O
ATOM    111  HD  NAG B   7       7.607  23.254   2.7790  0.00  0.00     0.000 HD
ENDBRANCH 95 98
ENDBRANCH 82 95
ENDBRANCH 81 85
ENDBRANCH 65 81
ENDBRANCH 64 67
ENDBRANCH 51 64
ENDBRANCH 50 54
ENDBRANCH 34 50
ENDBRANCH 33 36
ENDBRANCH 20 33
ENDBRANCH 19 23
ENDBRANCH 1 19
TORSDOF 19
ENDMDL
MODEL 33
REMARK VINA RESULT:      -5.8      3.078      5.106
ROOT
ATOM      1  C1  NAG B   1       7.304   5.015  20.8680  0.00  0.00     0.000 C
ATOM      2  C2  NAG B   1       6.818   3.589  21.1110  0.00  0.00     0.000 C
ATOM      3  C3  NAG B   1       5.872   3.508  22.2920  0.00  0.00     0.000 C
ATOM      4  C4  NAG B   1       6.652   4.066  23.4780  0.00  0.00     0.000 C
ATOM      5  C5  NAG B   1       6.986   5.539  23.2110  0.00  0.00     0.000 C
ATOM      6  O5  NAG B   1       7.811   5.681  22.0350  0.00  0.00     0.000 O
ATOM      7   O  NAG B   1       5.439   2.153  22.5520  0.00  0.00     0.000 O
ATOM      9  HD  NAG B   1       5.503   2.166  21.6880  0.00  0.00     0.000 HD
ATOM      9   O  NAG B   1       5.882   3.956  24.6630  0.00  0.00     0.000 O
ATOM     11  HD  NAG B   1       5.947   3.969  23.8000  0.00  0.00     0.000 HD
ATOM     11   C  NAG B   1       7.649   6.158  24.4480  0.00  0.00     0.000 C
ATOM     12   O  NAG B   1       8.534   7.217  24.0870  0.00  0.00     0.000 O
ATOM     14  HD  NAG B   1       8.599   7.230  23.2230  0.00  0.00     0.000 HD
ENDROOT
BRANCH 2 16
ATOM     14   N  NAG B   1       6.251   3.088  19.8460  0.00  0.00     0.000 N
ATOM     16  HD  NAG B   1       6.370   3.092  18.9880  0.00  0.00     0.000 HD
ATOM     16   C  NAG B   1       6.737   2.017  19.1960  0.00  0.00     0.000 C
ATOM     17   C  NAG B   1       7.934   1.286  19.7420  0.00  0.00     0.000 C
ATOM     18   O  NAG B   1       6.206   1.599  18.1670  0.00  0.00     0.000 OA
ENDBRANCH 2 16
BRANCH 1 19
ATOM     19  O4  BDP B   2       8.418   4.835  20.0050  0.00  0.00     0.000 O
BRANCH 19 23
ATOM     20  C1  BDP B   2       9.356   7.168  16.7450  0.00  0.00     0.000 C
ATOM     21  C2  BDP B   2       8.142   7.589  17.5480  0.00  0.00     0.000 C
ATOM     22  C3  BDP B   2       8.139   6.945  18.9150  0.00  0.00     0.000 C
ATOM     23  C4  BDP B   2       8.280   5.436  18.7390  0.00  0.00     0.000 C
ATOM     24  C5  BDP B   2       9.530   5.137  17.9350  0.00  0.00     0.000 C
ATOM     25  O5  BDP B   2       9.435   5.752  16.6640  0.00  0.00     0.000 O
ATOM     26   O  BDP B   2       8.108   8.993  17.6830  0.00  0.00     0.000 O
ATOM     28  HD  BDP B   2       8.726   8.908  17.0820  0.00  0.00     0.000 HD
ATOM     28   O  BDP B   2       6.927   7.297  19.6010  0.00  0.00     0.000 O
ATOM     30  HD  BDP B   2       7.545   7.212  19.0010  0.00  0.00     0.000 HD
BRANCH 24 30
ATOM     30   C  BDP B   2       9.722   3.679  17.7160  0.00  0.00     0.000 C
ATOM     31   O  BDP B   2      10.611   3.109  18.3910  0.00  0.00     0.000 OA
ATOM     32   O  BDP B   2       8.992   3.098  16.8640  0.00  0.00     0.000 OA
ENDBRANCH 24 30
BRANCH 20 33
ATOM     33  O3  NAG B   3       9.115   7.691  15.4620  0.00  0.00     0.000 O
BRANCH 33 36
ATOM     34  C1  NAG B   3      11.648   9.185  13.1170  0.00  0.00     0.000 C
ATOM     35  C2  NAG B   3      10.521   9.145  14.1310  0.00  0.00     0.000 C
ATOM     36  C3  NAG B   3      10.305   7.723  14.6710  0.00  0.00     0.000 C
ATOM     37  C4  NAG B   3      10.146   6.756  13.5010  0.00  0.00     0.000 C
ATOM     38  C5  NAG B   3      11.286   6.941  12.5030  0.00  0.00     0.000 C
ATOM     39  O5  NAG B   3      11.329   8.288  12.0630  0.00  0.00     0.000 O
ATOM     40   O  NAG B   3      10.146   5.402  13.9790  0.00  0.00     0.000 O
ATOM     42  HD  NAG B   3      10.780   5.326  13.3950  0.00  0.00     0.000 HD
ATOM     42   C  NAG B   3      11.138   6.104  11.2340  0.00  0.00     0.000 C
ATOM     43   O  NAG B   3       9.995   6.551  10.4960  0.00  0.00     0.000 O
ATOM     45  HD  NAG B   3      10.629   6.475   9.9120  0.00  0.00     0.000 HD
BRANCH 35 47
ATOM     45   N  NAG B   3       9.816  10.376  14.4640  0.00  0.00     0.000 N
ATOM     47  HD  NAG B   3       9.350   9.852  13.9560  0.00  0.00     0.000 HD
ATOM     47   C  NAG B   3       9.892  10.947  15.6500  0.00  0.00     0.000 C
ATOM     48   C  NAG B   3       9.087  12.200  15.8330  0.00  0.00     0.000 C
ATOM     49   O  NAG B   3      10.563  10.468  16.5620  0.00  0.00     0.000 OA
ENDBRANCH 35 47
BRANCH 34 50
ATOM     50  O4  BDP B   4      11.631  10.518  12.6500  0.00  0.00     0.000 O
BRANCH 50 54
ATOM     51  C1  BDP B   4      13.925  13.532  11.1650  0.00  0.00     0.000 C
ATOM     52  C2  BDP B   4      14.004  12.230  10.3760  0.00  0.00     0.000 C
ATOM     53  C3  BDP B   4      12.863  11.351  10.7850  0.00  0.00     0.000 C
ATOM     54  C4  BDP B   4      12.881  11.151  12.3280  0.00  0.00     0.000 C
ATOM     55  C5  BDP B   4      13.004  12.469  13.0810  0.00  0.00     0.000 C
ATOM     56  O5  BDP B   4      14.068  13.251  12.5460  0.00  0.00     0.000 O
ATOM     57   O  BDP B   4      13.920  12.490   8.9910  0.00  0.00     0.000 O
ATOM     59  HD  BDP B   4      14.734  12.415   8.7050  0.00  0.00     0.000 HD
ATOM     59   O  BDP B   4      13.080  10.065  10.1680  0.00  0.00     0.000 O
ATOM     61  HD  BDP B   4      13.894   9.989   9.8820  0.00  0.00     0.000 HD
BRANCH 55 61
ATOM     61   C  BDP B   4      13.283  12.184  14.5460  0.00  0.00     0.000 C
ATOM     62   O  BDP B   4      14.114  11.280  14.8250  0.00  0.00     0.000 OA
ATOM     63   O  BDP B   4      12.668  12.870  15.4190  0.00  0.00     0.000 OA
ENDBRANCH 55 61
BRANCH 51 64
ATOM     64  O3  NAG B   5      14.995  14.377  10.7020  0.00  0.00     0.000 O
BRANCH 64 67
ATOM     65  C1  NAG B   5      14.476  17.905   9.7620  0.00  0.00     0.000 C
ATOM     66  C2  NAG B   5      14.513  16.393   9.6150  0.00  0.00     0.000 C
ATOM     67  C3  NAG B   5      14.763  15.746  10.9710  0.00  0.00     0.000 C
ATOM     68  C4  NAG B   5      15.999  16.351  11.6510  0.00  0.00     0.000 C
ATOM     69  C5  NAG B   5      15.914  17.869  11.6680  0.00  0.00     0.000 C
ATOM     70  O5  NAG B   5      15.678  18.360  10.3410  0.00  0.00     0.000 O
ATOM     71   O  NAG B   5      16.096  15.829  12.9590  0.00  0.00     0.000 O
ATOM     73  HD  NAG B   5      16.935  15.783  12.7480  0.00  0.00     0.000 HD
ATOM     73   C  NAG B   5      17.168  18.566  12.2150  0.00  0.00     0.000 C
ATOM     74   O  NAG B   5      18.290  18.293  11.3500  0.00  0.00     0.000 O
ATOM     76  HD  NAG B   5      19.128  18.247  11.1390  0.00  0.00     0.000 HD
BRANCH 66 78
ATOM     76   N  NAG B   5      14.206  15.826   8.2880  0.00  0.00     0.000 N
ATOM     78  HD  NAG B   5      13.854  15.822   9.0790  0.00  0.00     0.000 HD
ATOM     78   C  NAG B   5      13.051  15.246   7.9250  0.00  0.00     0.000 C
ATOM     79   C  NAG B   5      13.036  14.781   6.4940  0.00  0.00     0.000 C
ATOM     80   O  NAG B   5      12.059  15.093   8.7240  0.00  0.00     0.000 OA
ENDBRANCH 66 78
BRANCH 65 81
ATOM     81  O4  BDP B   6      14.288  18.520   8.4820  0.00  0.00     0.000 O
BRANCH 81 85
ATOM     82  C1  BDP B   6      12.222  21.821   6.6920  0.00  0.00     0.000 C
ATOM     83  C2  BDP B   6      13.485  22.129   7.4920  0.00  0.00     0.000 C
ATOM     84  C3  BDP B   6      14.353  20.891   7.7330  0.00  0.00     0.000 C
ATOM     85  C4  BDP B   6      13.547  19.732   8.3220  0.00  0.00     0.000 C
ATOM     86  C5  BDP B   6      12.283  19.541   7.4500  0.00  0.00     0.000 C
ATOM     87  O5  BDP B   6      11.507  20.777   7.3360  0.00  0.00     0.000 O
ATOM     88   O  BDP B   6      14.209  23.075   6.7110  0.00  0.00     0.000 O
ATOM     90  HD  BDP B   6      15.019  23.254   6.4610  0.00  0.00     0.000 HD
ATOM     90   O  BDP B   6      15.452  21.234   8.5820  0.00  0.00     0.000 O
ATOM     92  HD  BDP B   6      16.262  21.413   8.3320  0.00  0.00     0.000 HD
BRANCH 86 92
ATOM     92   C  BDP B   6      11.327  18.575   8.1080  0.00  0.00     0.000 C
ATOM     93   O  BDP B   6      11.157  18.623   9.3640  0.00  0.00     0.000 OA
ATOM     94   O  BDP B   6      10.708  17.760   7.3560  0.00  0.00     0.000 OA
ENDBRANCH 86 92
BRANCH 82 95
ATOM     95  O3  NAG B   7      11.387  22.996   6.6920  0.00  0.00     0.000 O
BRANCH 95 98
ATOM     96  C1  NAG B   7       9.834  25.288   4.3100  0.00  0.00     0.000 C
ATOM     97  C2  NAG B   7      10.492  24.875   5.6200  0.00  0.00     0.000 C
ATOM     98  C3  NAG B   7      10.713  23.370   5.4910  0.00  0.00     0.000 C
ATOM     99  C4  NAG B   7       9.375  22.664   5.2920  0.00  0.00     0.000 C
ATOM    100  C5  NAG B   7       8.611  23.264   4.1110  0.00  0.00     0.000 C
ATOM    101  O5  NAG B   7       8.541  24.672   4.2760  0.00  0.00     0.000 O
BRANCH 97 104
ATOM    102   N  NAG B   7      11.516  25.448   6.5050  0.00  0.00     0.000 N
ATOM    104  HD  NAG B   7      11.915  25.935   7.0990  0.00  0.00     0.000 HD
ATOM    104   O  NAG B   7      13.426  26.540   7.0430  0.00  0.00     0.000 OA
ATOM    105   C  NAG B   7      12.679  26.044   6.1780  0.00  0.00     0.000 C
ATOM    106   C  NAG B   7      13.072  26.124   4.7420  0.00  0.00     0.000 C
ENDBRANCH 97 104
ATOM    107   O  NAG B   7       6.711  23.006   2.7600  0.00  0.00     0.000 O
ATOM    109  HD  NAG B   7       7.550  23.218   2.7680  0.00  0.00     0.000 HD
ATOM    109   O  NAG B   7       6.711  23.006   2.7600  0.00  0.00     0.000 O
ATOM    111  HD  NAG B   7       7.550  23.218   2.7680  0.00  0.00     0.000 HD
ENDBRANCH 95 98
ENDBRANCH 82 95
ENDBRANCH 81 85
ENDBRANCH 65 81
ENDBRANCH 64 67
ENDBRANCH 51 64
ENDBRANCH 50 54
ENDBRANCH 34 50
ENDBRANCH 33 36
ENDBRANCH 20 33
ENDBRANCH 19 23
ENDBRANCH 1 19
TORSDOF 19
ENDMDL
MODEL 34
REMARK VINA RESULT:      -5.7      1.945      3.125
ROOT
ATOM      1  C1  NAG B   1      11.137   6.327  14.6360  0.00  0.00     0.000 C
ATOM      2  C2  NAG B   1      10.553   5.495  15.7750  0.00  0.00     0.000 C
ATOM      3  C3  NAG B   1       9.695   6.331  16.7030  0.00  0.00     0.000 C
ATOM      4  C4  NAG B   1      10.606   7.447  17.2060  0.00  0.00     0.000 C
ATOM      5  C5  NAG B   1      11.042   8.314  16.0180  0.00  0.00     0.000 C
ATOM      6  O5  NAG B   1      11.785   7.539  15.0530  0.00  0.00     0.000 O
ATOM      7   O  NAG B   1       9.170   5.558  17.8050  0.00  0.00     0.000 O
ATOM      9  HD  NAG B   1       9.170   4.983  17.1580  0.00  0.00     0.000 HD
ATOM      9   O  NAG B   1       9.921   8.244  18.1570  0.00  0.00     0.000 O
ATOM     11  HD  NAG B   1       9.922   7.669  17.5090  0.00  0.00     0.000 HD
ATOM     11   C  NAG B   1      11.847   9.520  16.5180  0.00  0.00     0.000 C
ATOM     12   O  NAG B   1      12.787   9.957  15.5390  0.00  0.00     0.000 O
ATOM     14  HD  NAG B   1      12.788   9.383  14.8910  0.00  0.00     0.000 HD
ENDROOT
BRANCH 2 16
ATOM     14   N  NAG B   1       9.954   4.346  15.0720  0.00  0.00     0.000 N
ATOM     16  HD  NAG B   1      10.120   3.739  14.4770  0.00  0.00     0.000 HD
ATOM     16   C  NAG B   1      10.195   3.069  15.4140  0.00  0.00     0.000 C
ATOM     17   C  NAG B   1      11.138   2.759  16.5460  0.00  0.00     0.000 C
ATOM     18   O  NAG B   1       9.638   2.137  14.8350  0.00  0.00     0.000 OA
ENDBRANCH 2 16
BRANCH 1 19
ATOM     19  O4  BDP B   2      12.163   5.492  14.1190  0.00  0.00     0.000 O
BRANCH 19 23
ATOM     20  C1  BDP B   2      13.352   7.792  10.9190  0.00  0.00     0.000 C
ATOM     21  C2  BDP B   2      12.003   7.114  10.7960  0.00  0.00     0.000 C
ATOM     22  C3  BDP B   2      11.492   6.662  12.1460  0.00  0.00     0.000 C
ATOM     23  C4  BDP B   2      12.567   5.804  12.8070  0.00  0.00     0.000 C
ATOM     24  C5  BDP B   2      13.861   6.589  12.8850  0.00  0.00     0.000 C
ATOM     25  O5  BDP B   2      14.280   6.944  11.5800  0.00  0.00     0.000 O
ATOM     26   O  BDP B   2      11.068   7.988  10.2010  0.00  0.00     0.000 O
ATOM     28  HD  BDP B   2      11.804   8.421  10.0550  0.00  0.00     0.000 HD
ATOM     28   O  BDP B   2      10.261   5.944  11.9690  0.00  0.00     0.000 O
ATOM     30  HD  BDP B   2      10.996   6.378  11.8230  0.00  0.00     0.000 HD
BRANCH 24 30
ATOM     30   C  BDP B   2      14.958   5.804  13.5110  0.00  0.00     0.000 C
ATOM     31   O  BDP B   2      15.274   4.722  12.9640  0.00  0.00     0.000 OA
ATOM     32   O  BDP B   2      15.502   6.260  14.5560  0.00  0.00     0.000 OA
ENDBRANCH 24 30
BRANCH 20 33
ATOM     33  O3  NAG B   3      13.763   7.977   9.5870  0.00  0.00     0.000 O
BRANCH 33 36
ATOM     34  C1  NAG B   3      15.736  11.093   8.8500  0.00  0.00     0.000 C
ATOM     35  C2  NAG B   3      14.525  10.235   9.1590  0.00  0.00     0.000 C
ATOM     36  C3  NAG B   3      14.933   8.794   9.5020  0.00  0.00     0.000 C
ATOM     37  C4  NAG B   3      15.838   8.249   8.4000  0.00  0.00     0.000 C
ATOM     38  C5  NAG B   3      16.972   9.230   8.1130  0.00  0.00     0.000 C
ATOM     39  O5  NAG B   3      16.439  10.498   7.7690  0.00  0.00     0.000 O
ATOM     40   O  NAG B   3      16.389   6.984   8.7980  0.00  0.00     0.000 O
ATOM     42  HD  NAG B   3      17.132   7.389   8.6120  0.00  0.00     0.000 HD
ATOM     42   C  NAG B   3      17.853   8.827   6.9330  0.00  0.00     0.000 C
ATOM     43   O  NAG B   3      17.084   8.868   5.7250  0.00  0.00     0.000 O
ATOM     45  HD  NAG B   3      17.826   9.273   5.5390  0.00  0.00     0.000 HD
BRANCH 35 47
ATOM     45   N  NAG B   3      13.746  10.811  10.2480  0.00  0.00     0.000 N
ATOM     47  HD  NAG B   3      14.525  11.180  10.1630  0.00  0.00     0.000 HD
ATOM     47   C  NAG B   3      12.444  11.002  10.1760  0.00  0.00     0.000 C
ATOM     48   C  NAG B   3      11.799  11.625  11.3790  0.00  0.00     0.000 C
ATOM     49   O  NAG B   3      11.798  10.712   9.1710  0.00  0.00     0.000 OA
ENDBRANCH 35 47
BRANCH 34 50
ATOM     50  O4  BDP B   4      15.179  12.329   8.4540  0.00  0.00     0.000 O
BRANCH 50 54
ATOM     51  C1  BDP B   4      15.633  16.369   8.6080  0.00  0.00     0.000 C
ATOM     52  C2  BDP B   4      16.559  15.666   7.6220  0.00  0.00     0.000 C
ATOM     53  C3  BDP B   4      16.047  14.278   7.3890  0.00  0.00     0.000 C
ATOM     54  C4  BDP B   4      15.899  13.537   8.7490  0.00  0.00     0.000 C
ATOM     55  C5  BDP B   4      15.135  14.360   9.7770  0.00  0.00     0.000 C
ATOM     56  O5  BDP B   4      15.660  15.683   9.8460  0.00  0.00     0.000 O
ATOM     57   O  BDP B   4      16.592  16.365   6.3960  0.00  0.00     0.000 O
ATOM     59  HD  BDP B   4      17.346  16.790   6.4070  0.00  0.00     0.000 HD
ATOM     59   O  BDP B   4      17.046  13.587   6.6120  0.00  0.00     0.000 O
ATOM     61  HD  BDP B   4      17.801  14.012   6.6230  0.00  0.00     0.000 HD
BRANCH 55 61
ATOM     61   C  BDP B   4      15.260  13.701  11.1390  0.00  0.00     0.000 C
ATOM     62   O  BDP B   4      16.397  13.293  11.4950  0.00  0.00     0.000 OA
ATOM     63   O  BDP B   4      14.217  13.595  11.8530  0.00  0.00     0.000 OA
ENDBRANCH 55 61
BRANCH 51 64
ATOM     64  O3  NAG B   5      16.115  17.718   8.7600  0.00  0.00     0.000 O
BRANCH 64 67
ATOM     65  C1  NAG B   5      13.658  20.461   8.5880  0.00  0.00     0.000 C
ATOM     66  C2  NAG B   5      14.557  19.337   8.1040  0.00  0.00     0.000 C
ATOM     67  C3  NAG B   5      15.138  18.588   9.2970  0.00  0.00     0.000 C
ATOM     68  C4  NAG B   5      15.804  19.556  10.2850  0.00  0.00     0.000 C
ATOM     69  C5  NAG B   5      14.861  20.695  10.6380  0.00  0.00     0.000 C
ATOM     70  O5  NAG B   5      14.381  21.322   9.4390  0.00  0.00     0.000 O
ATOM     71   O  NAG B   5      16.187  18.834  11.4360  0.00  0.00     0.000 O
ATOM     73  HD  NAG B   5      16.899  19.321  11.3560  0.00  0.00     0.000 HD
ATOM     73   C  NAG B   5      15.487  21.782  11.5230  0.00  0.00     0.000 C
ATOM     74   O  NAG B   5      16.559  22.431  10.8070  0.00  0.00     0.000 O
ATOM     76  HD  NAG B   5      17.270  22.918  10.7270  0.00  0.00     0.000 HD
BRANCH 66 78
ATOM     76   N  NAG B   5      13.782  18.394   7.2740  0.00  0.00     0.000 N
ATOM     78  HD  NAG B   5      14.391  18.998   7.1530  0.00  0.00     0.000 HD
ATOM     78   C  NAG B   5      14.017  18.101   5.9860  0.00  0.00     0.000 C
ATOM     79   C  NAG B   5      13.063  17.085   5.4190  0.00  0.00     0.000 C
ATOM     80   O  NAG B   5      14.958  18.641   5.3010  0.00  0.00     0.000 OA
ENDBRANCH 66 78
BRANCH 65 81
ATOM     81  O4  BDP B   6      13.146  21.198   7.4710  0.00  0.00     0.000 O
BRANCH 81 85
ATOM     82  C1  BDP B   6       9.110  21.915   6.2220  0.00  0.00     0.000 C
ATOM     83  C2  BDP B   6      10.057  23.110   6.2650  0.00  0.00     0.000 C
ATOM     84  C3  BDP B   6      11.531  22.699   6.3180  0.00  0.00     0.000 C
ATOM     85  C4  BDP B   6      11.803  21.687   7.4340  0.00  0.00     0.000 C
ATOM     86  C5  BDP B   6      10.764  20.548   7.3060  0.00  0.00     0.000 C
ATOM     87  O5  BDP B   6       9.392  21.058   7.3190  0.00  0.00     0.000 O
ATOM     88   O  BDP B   6       9.808  23.836   5.0640  0.00  0.00     0.000 O
ATOM     90  HD  BDP B   6      10.234  24.255   4.4370  0.00  0.00     0.000 HD
ATOM     90   O  BDP B   6      12.348  23.863   6.4720  0.00  0.00     0.000 O
ATOM     92  HD  BDP B   6      12.774  24.281   5.8450  0.00  0.00     0.000 HD
BRANCH 86 92
ATOM     92   C  BDP B   6      10.822  19.641   8.5110  0.00  0.00     0.000 C
ATOM     93   O  BDP B   6      10.610  20.121   9.6650  0.00  0.00     0.000 OA
ATOM     94   O  BDP B   6      11.063  18.411   8.3070  0.00  0.00     0.000 OA
ENDBRANCH 86 92
BRANCH 82 95
ATOM     95  O3  NAG B   7       7.761  22.399   6.3740  0.00  0.00     0.000 O
BRANCH 95 98
ATOM     96  C1  NAG B   7       4.643  21.547   4.6730  0.00  0.00     0.000 C
ATOM     97  C2  NAG B   7       5.769  22.458   5.1430  0.00  0.00     0.000 C
ATOM     98  C3  NAG B   7       6.673  21.561   5.9860  0.00  0.00     0.000 C
ATOM     99  C4  NAG B   7       5.887  20.991   7.1640  0.00  0.00     0.000 C
ATOM    100  C5  NAG B   7       4.617  20.287   6.6830  0.00  0.00     0.000 C
ATOM    101  O5  NAG B   7       3.896  21.166   5.8340  0.00  0.00     0.000 O
BRANCH 97 104
ATOM    102   N  NAG B   7       6.691  23.005   4.1380  0.00  0.00     0.000 N
ATOM    104  HD  NAG B   7       7.412  23.221   3.7100  0.00  0.00     0.000 HD
ATOM    104   O  NAG B   7       7.723  24.607   2.9150  0.00  0.00     0.000 OA
ATOM    105   C  NAG B   7       6.851  24.282   3.7440  0.00  0.00     0.000 C
ATOM    106   C  NAG B   7       5.970  25.335   4.3260  0.00  0.00     0.000 C
ENDBRANCH 97 104
ATOM    107   O  NAG B   7       2.811  18.961   7.3780  0.00  0.00     0.000 O
ATOM    109  HD  NAG B   7       3.387  19.098   6.7460  0.00  0.00     0.000 HD
ATOM    109   O  NAG B   7       2.811  18.961   7.3780  0.00  0.00     0.000 O
ATOM    111  HD  NAG B   7       3.387  19.098   6.7460  0.00  0.00     0.000 HD
ENDBRANCH 95 98
ENDBRANCH 82 95
ENDBRANCH 81 85
ENDBRANCH 65 81
ENDBRANCH 64 67
ENDBRANCH 51 64
ENDBRANCH 50 54
ENDBRANCH 34 50
ENDBRANCH 33 36
ENDBRANCH 20 33
ENDBRANCH 19 23
ENDBRANCH 1 19
TORSDOF 19
ENDMDL
MODEL 35
REMARK VINA RESULT:      -5.7      2.686      3.542
ROOT
ATOM      1  C1  NAG B   1      10.545   3.303  15.3170  0.00  0.00     0.000 C
ATOM      2  C2  NAG B   1      10.898   1.882  15.7500  0.00  0.00     0.000 C
ATOM      3  C3  NAG B   1       9.717   1.174  16.3800  0.00  0.00     0.000 C
ATOM      4  C4  NAG B   1       9.294   2.050  17.5540  0.00  0.00     0.000 C
ATOM      5  C5  NAG B   1       8.829   3.412  17.0230  0.00  0.00     0.000 C
ATOM      6  O5  NAG B   1       9.896   4.092  16.3270  0.00  0.00     0.000 O
ATOM      7   O  NAG B   1      10.055  -0.159  16.8270  0.00  0.00     0.000 O
ATOM      9  HD  NAG B   1      10.539  -0.073  16.1140  0.00  0.00     0.000 HD
ATOM      9   O  NAG B   1       8.240   1.430  18.2720  0.00  0.00     0.000 O
ATOM     11  HD  NAG B   1       8.724   1.516  17.5590  0.00  0.00     0.000 HD
ATOM     11   C  NAG B   1       8.271   4.260  18.1730  0.00  0.00     0.000 C
ATOM     12   O  NAG B   1       8.442   5.653  17.9190  0.00  0.00     0.000 O
ATOM     14  HD  NAG B   1       8.926   5.739  17.2060  0.00  0.00     0.000 HD
ENDROOT
BRANCH 2 16
ATOM     14   N  NAG B   1      11.456   1.157  14.5940  0.00  0.00     0.000 N
ATOM     16  HD  NAG B   1      11.957   1.256  13.8950  0.00  0.00     0.000 HD
ATOM     16   C  NAG B   1      12.717   0.694  14.5560  0.00  0.00     0.000 C
ATOM     17   C  NAG B   1      13.640   0.931  15.7220  0.00  0.00     0.000 C
ATOM     18   O  NAG B   1      13.132   0.049  13.5930  0.00  0.00     0.000 OA
ENDBRANCH 2 16
BRANCH 1 19
ATOM     19  O4  BDP B   2      11.815   3.903  15.1080  0.00  0.00     0.000 O
BRANCH 19 23
ATOM     20  C1  BDP B   2      12.432   6.788  12.2370  0.00  0.00     0.000 C
ATOM     21  C2  BDP B   2      11.092   6.083  12.2060  0.00  0.00     0.000 C
ATOM     22  C3  BDP B   2      10.814   5.376  13.5130  0.00  0.00     0.000 C
ATOM     23  C4  BDP B   2      11.995   4.463  13.8290  0.00  0.00     0.000 C
ATOM     24  C5  BDP B   2      13.273   5.278  13.8440  0.00  0.00     0.000 C
ATOM     25  O5  BDP B   2      13.468   5.877  12.5780  0.00  0.00     0.000 O
ATOM     26   O  BDP B   2      10.059   7.006  11.9350  0.00  0.00     0.000 O
ATOM     28  HD  BDP B   2      10.754   7.491  11.7570  0.00  0.00     0.000 HD
ATOM     28   O  BDP B   2       9.581   4.646  13.4040  0.00  0.00     0.000 O
ATOM     30  HD  BDP B   2      10.277   5.131  13.2260  0.00  0.00     0.000 HD
BRANCH 24 30
ATOM     30   C  BDP B   2      14.468   4.444  14.1360  0.00  0.00     0.000 C
ATOM     31   O  BDP B   2      15.012   3.861  13.1690  0.00  0.00     0.000 OA
ATOM     32   O  BDP B   2      14.866   4.360  15.3330  0.00  0.00     0.000 OA
ENDBRANCH 24 30
BRANCH 20 33
ATOM     33  O3  NAG B   3      12.617   7.225  10.9130  0.00  0.00     0.000 O
BRANCH 33 36
ATOM     34  C1  NAG B   3      14.051  10.645  10.2820  0.00  0.00     0.000 C
ATOM     35  C2  NAG B   3      13.003   9.594  10.5960  0.00  0.00     0.000 C
ATOM     36  C3  NAG B   3      13.644   8.216  10.8220  0.00  0.00     0.000 C
ATOM     37  C4  NAG B   3      14.552   7.881   9.6410  0.00  0.00     0.000 C
ATOM     38  C5  NAG B   3      15.506   9.039   9.3610  0.00  0.00     0.000 C
ATOM     39  O5  NAG B   3      14.768  10.227   9.1290  0.00  0.00     0.000 O
ATOM     40   O  NAG B   3      15.310   6.695   9.9270  0.00  0.00     0.000 O
ATOM     42  HD  NAG B   3      15.971   7.220   9.7290  0.00  0.00     0.000 HD
ATOM     42   C  NAG B   3      16.364   8.844   8.1140  0.00  0.00     0.000 C
ATOM     43   O  NAG B   3      15.525   8.835   6.9520  0.00  0.00     0.000 O
ATOM     45  HD  NAG B   3      16.185   9.360   6.7550  0.00  0.00     0.000 HD
BRANCH 35 47
ATOM     45   N  NAG B   3      12.215  10.000  11.7520  0.00  0.00     0.000 N
ATOM     47  HD  NAG B   3      12.915  10.496  11.6350  0.00  0.00     0.000 HD
ATOM     47   C  NAG B   3      10.897   9.973  11.7660  0.00  0.00     0.000 C
ATOM     48   C  NAG B   3      10.240  10.444  13.0300  0.00  0.00     0.000 C
ATOM     49   O  NAG B   3      10.242   9.609  10.7920  0.00  0.00     0.000 OA
ENDBRANCH 35 47
BRANCH 34 50
ATOM     50  O4  BDP B   4      13.291  11.800   9.9960  0.00  0.00     0.000 O
BRANCH 50 54
ATOM     51  C1  BDP B   4      13.274  15.863  10.2050  0.00  0.00     0.000 C
ATOM     52  C2  BDP B   4      13.987  15.297   8.9830  0.00  0.00     0.000 C
ATOM     53  C3  BDP B   4      13.604  13.857   8.8290  0.00  0.00     0.000 C
ATOM     54  C4  BDP B   4      13.911  13.088  10.1470  0.00  0.00     0.000 C
ATOM     55  C5  BDP B   4      13.350  13.795  11.3730  0.00  0.00     0.000 C
ATOM     56  O5  BDP B   4      13.709  15.173  11.3620  0.00  0.00     0.000 O
ATOM     57   O  BDP B   4      13.610  16.007   7.8220  0.00  0.00     0.000 O
ATOM     59  HD  BDP B   4      14.283  16.526   7.6560  0.00  0.00     0.000 HD
ATOM     59   O  BDP B   4      14.441  13.309   7.7900  0.00  0.00     0.000 O
ATOM     61  HD  BDP B   4      15.114  13.828   7.6240  0.00  0.00     0.000 HD
BRANCH 55 61
ATOM     61   C  BDP B   4      13.908  13.143  12.6260  0.00  0.00     0.000 C
ATOM     62   O  BDP B   4      13.162  12.356  13.2650  0.00  0.00     0.000 OA
ATOM     63   O  BDP B   4      15.098  13.420  12.9670  0.00  0.00     0.000 OA
ENDBRANCH 55 61
BRANCH 51 64
ATOM     64  O3  NAG B   5      13.611  17.262  10.2860  0.00  0.00     0.000 O
BRANCH 64 67
ATOM     65  C1  NAG B   5      11.272  20.049  10.8780  0.00  0.00     0.000 C
ATOM     66  C2  NAG B   5      12.115  19.052  10.1020  0.00  0.00     0.000 C
ATOM     67  C3  NAG B   5      12.680  18.002  11.0510  0.00  0.00     0.000 C
ATOM     68  C4  NAG B   5      13.400  18.661  12.2350  0.00  0.00     0.000 C
ATOM     69  C5  NAG B   5      12.513  19.708  12.8900  0.00  0.00     0.000 C
ATOM     70  O5  NAG B   5      12.043  20.637  11.9020  0.00  0.00     0.000 O
ATOM     71   O  NAG B   5      13.769  17.656  13.1550  0.00  0.00     0.000 O
ATOM     73  HD  NAG B   5      14.500  18.119  13.1840  0.00  0.00     0.000 HD
ATOM     73   C  NAG B   5      13.197  20.509  14.0060  0.00  0.00     0.000 C
ATOM     74   O  NAG B   5      14.285  21.277  13.4520  0.00  0.00     0.000 O
ATOM     76  HD  NAG B   5      15.016  21.741  13.4810  0.00  0.00     0.000 HD
BRANCH 66 78
ATOM     76   N  NAG B   5      11.207  18.535   9.0600  0.00  0.00     0.000 N
ATOM     78  HD  NAG B   5      11.967  18.949   9.0950  0.00  0.00     0.000 HD
ATOM     78   C  NAG B   5      11.492  18.418   7.7530  0.00  0.00     0.000 C
ATOM     79   C  NAG B   5      10.364  17.837   6.9440  0.00  0.00     0.000 C
ATOM     80   O  NAG B   5      12.612  18.776   7.2430  0.00  0.00     0.000 OA
ENDBRANCH 66 78
BRANCH 65 81
ATOM     81  O4  BDP B   6      10.776  21.066   9.9980  0.00  0.00     0.000 O
BRANCH 81 85
ATOM     82  C1  BDP B   6       7.399  23.674   9.5990  0.00  0.00     0.000 C
ATOM     83  C2  BDP B   6       8.538  24.128  10.5080  0.00  0.00     0.000 C
ATOM     84  C3  BDP B   6       9.836  23.353  10.2680  0.00  0.00     0.000 C
ATOM     85  C4  BDP B   6       9.614  21.840  10.3080  0.00  0.00     0.000 C
ATOM     86  C5  BDP B   6       8.421  21.510   9.3800  0.00  0.00     0.000 C
ATOM     87  O5  BDP B   6       7.224  22.272   9.7390  0.00  0.00     0.000 O
ATOM     88   O  BDP B   6       8.741  25.505  10.2040  0.00  0.00     0.000 O
ATOM     90  HD  BDP B   6       9.383  26.074  10.0810  0.00  0.00     0.000 HD
ATOM     90   O  BDP B   6      10.818  23.752  11.2280  0.00  0.00     0.000 O
ATOM     92  HD  BDP B   6      11.459  24.320  11.1050  0.00  0.00     0.000 HD
BRANCH 86 92
ATOM     92   C  BDP B   6       7.997  20.071   9.5540  0.00  0.00     0.000 C
ATOM     93   O  BDP B   6       8.073  19.275   8.5700  0.00  0.00     0.000 OA
ATOM     94   O  BDP B   6       7.597  19.713  10.7050  0.00  0.00     0.000 OA
ENDBRANCH 86 92
BRANCH 82 95
ATOM     95  O3  NAG B   7       6.186  24.318  10.0360  0.00  0.00     0.000 O
BRANCH 95 98
ATOM     96  C1  NAG B   7       3.431  26.086   8.4160  0.00  0.00     0.000 C
ATOM     97  C2  NAG B   7       4.524  25.861   9.4530  0.00  0.00     0.000 C
ATOM     98  C3  NAG B   7       5.121  24.499   9.1040  0.00  0.00     0.000 C
ATOM     99  C4  NAG B   7       4.041  23.423   9.1870  0.00  0.00     0.000 C
ATOM    100  C5  NAG B   7       2.835  23.791   8.3230  0.00  0.00     0.000 C
ATOM    101  O5  NAG B   7       2.415  25.106   8.6550  0.00  0.00     0.000 O
BRANCH 97 104
ATOM    102   N  NAG B   7       5.692  26.753   9.4350  0.00  0.00     0.000 N
ATOM    104  HD  NAG B   7       6.506  27.047   9.4120  0.00  0.00     0.000 HD
ATOM    104   O  NAG B   7       7.136  28.305  10.2300  0.00  0.00     0.000 OA
ATOM    105   C  NAG B   7       6.079  27.656  10.3550  0.00  0.00     0.000 C
ATOM    106   C  NAG B   7       5.228  27.874  11.5590  0.00  0.00     0.000 C
ENDBRANCH 97 104
ATOM    107   O  NAG B   7       0.786  23.000   7.4980  0.00  0.00     0.000 O
ATOM    109  HD  NAG B   7       1.496  23.458   7.3090  0.00  0.00     0.000 HD
ATOM    109   O  NAG B   7       0.786  23.000   7.4980  0.00  0.00     0.000 O
ATOM    111  HD  NAG B   7       1.496  23.458   7.3090  0.00  0.00     0.000 HD
ENDBRANCH 95 98
ENDBRANCH 82 95
ENDBRANCH 81 85
ENDBRANCH 65 81
ENDBRANCH 64 67
ENDBRANCH 51 64
ENDBRANCH 50 54
ENDBRANCH 34 50
ENDBRANCH 33 36
ENDBRANCH 20 33
ENDBRANCH 19 23
ENDBRANCH 1 19
TORSDOF 19
ENDMDL
MODEL 36
REMARK VINA RESULT:      -5.7      4.458     11.405
ROOT
ATOM      1  C1  NAG B   1       4.736   6.289  25.3660  0.00  0.00     0.000 C
ATOM      2  C2  NAG B   1       3.684   6.732  26.3790  0.00  0.00     0.000 C
ATOM      3  C3  NAG B   1       4.017   8.080  26.9850  0.00  0.00     0.000 C
ATOM      4  C4  NAG B   1       5.397   7.916  27.6140  0.00  0.00     0.000 C
ATOM      5  C5  NAG B   1       6.417   7.603  26.5120  0.00  0.00     0.000 C
ATOM      6  O5  NAG B   1       6.091   6.370  25.8360  0.00  0.00     0.000 O
ATOM      7   O  NAG B   1       3.045   8.487  27.9750  0.00  0.00     0.000 O
ATOM      9  HD  NAG B   1       2.557   8.065  27.3980  0.00  0.00     0.000 HD
ATOM      9   O  NAG B   1       5.769   9.105  28.2900  0.00  0.00     0.000 O
ATOM     11  HD  NAG B   1       5.282   8.682  27.7130  0.00  0.00     0.000 HD
ATOM     11   C  NAG B   1       7.832   7.569  27.1030  0.00  0.00     0.000 C
ATOM     12   O  NAG B   1       8.680   6.691  26.3660  0.00  0.00     0.000 O
ATOM     14  HD  NAG B   1       8.193   6.268  25.7890  0.00  0.00     0.000 HD
ENDROOT
BRANCH 2 16
ATOM     14   N  NAG B   1       2.629   5.720  26.5670  0.00  0.00     0.000 N
ATOM     16  HD  NAG B   1       1.948   5.518  27.0620  0.00  0.00     0.000 HD
ATOM     16   C  NAG B   1       1.367   5.886  26.1350  0.00  0.00     0.000 C
ATOM     17   C  NAG B   1       0.970   7.165  25.4460  0.00  0.00     0.000 C
ATOM     18   O  NAG B   1       0.525   4.998  26.2660  0.00  0.00     0.000 OA
ENDBRANCH 2 16
BRANCH 1 19
ATOM     19  O4  BDP B   2       4.462   4.905  25.1980  0.00  0.00     0.000 O
BRANCH 19 23
ATOM     20  C1  BDP B   2       6.081   4.582  21.4270  0.00  0.00     0.000 C
ATOM     21  C2  BDP B   2       4.645   5.058  21.5050  0.00  0.00     0.000 C
ATOM     22  C3  BDP B   2       4.300   5.535  22.8980  0.00  0.00     0.000 C
ATOM     23  C4  BDP B   2       4.647   4.426  23.8870  0.00  0.00     0.000 C
ATOM     24  C5  BDP B   2       6.104   4.043  23.7250  0.00  0.00     0.000 C
ATOM     25  O5  BDP B   2       6.329   3.582  22.4060  0.00  0.00     0.000 O
ATOM     26   O  BDP B   2       4.424   6.099  20.5780  0.00  0.00     0.000 O
ATOM     28  HD  BDP B   2       5.199   5.816  20.3150  0.00  0.00     0.000 HD
ATOM     28   O  BDP B   2       2.909   5.887  22.9470  0.00  0.00     0.000 O
ATOM     30  HD  BDP B   2       3.684   5.604  22.6840  0.00  0.00     0.000 HD
BRANCH 24 30
ATOM     30   C  BDP B   2       6.506   2.955  24.6560  0.00  0.00     0.000 C
ATOM     31   O  BDP B   2       6.314   1.776  24.2780  0.00  0.00     0.000 OA
ATOM     32   O  BDP B   2       7.008   3.273  25.7710  0.00  0.00     0.000 OA
ENDBRANCH 24 30
BRANCH 20 33
ATOM     33  O3  NAG B   3       6.180   4.009  20.1460  0.00  0.00     0.000 O
BRANCH 33 36
ATOM     34  C1  NAG B   3       9.423   3.959  18.2400  0.00  0.00     0.000 C
ATOM     35  C2  NAG B   3       8.089   4.485  18.7340  0.00  0.00     0.000 C
ATOM     36  C3  NAG B   3       7.518   3.600  19.8530  0.00  0.00     0.000 C
ATOM     37  C4  NAG B   3       7.499   2.146  19.3870  0.00  0.00     0.000 C
ATOM     38  C5  NAG B   3       8.865   1.750  18.8320  0.00  0.00     0.000 C
ATOM     39  O5  NAG B   3       9.234   2.628  17.7820  0.00  0.00     0.000 O
ATOM     40   O  NAG B   3       7.161   1.283  20.4840  0.00  0.00     0.000 O
ATOM     42  HD  NAG B   3       7.899   0.898  20.2470  0.00  0.00     0.000 HD
ATOM     42   C  NAG B   3       8.902   0.351  18.2230  0.00  0.00     0.000 C
ATOM     43   O  NAG B   3       8.064   0.312  17.0610  0.00  0.00     0.000 O
ATOM     45  HD  NAG B   3       8.803  -0.073  16.8250  0.00  0.00     0.000 HD
BRANCH 35 47
ATOM     45   N  NAG B   3       7.348   5.637  18.2360  0.00  0.00     0.000 N
ATOM     47  HD  NAG B   3       6.898   4.899  18.1740  0.00  0.00     0.000 HD
ATOM     47   C  NAG B   3       7.405   6.826  18.8020  0.00  0.00     0.000 C
ATOM     48   C  NAG B   3       6.563   7.898  18.1750  0.00  0.00     0.000 C
ATOM     49   O  NAG B   3       8.086   7.039  19.8020  0.00  0.00     0.000 OA
ENDBRANCH 35 47
BRANCH 34 50
ATOM     50  O4  BDP B   4       9.738   4.811  17.1580  0.00  0.00     0.000 O
BRANCH 50 54
ATOM     51  C1  BDP B   4      12.399   5.520  14.1640  0.00  0.00     0.000 C
ATOM     52  C2  BDP B   4      11.467   4.340  13.9140  0.00  0.00     0.000 C
ATOM     53  C3  BDP B   4      10.325   4.419  14.8800  0.00  0.00     0.000 C
ATOM     54  C4  BDP B   4      10.871   4.489  16.3350  0.00  0.00     0.000 C
ATOM     55  C5  BDP B   4      11.950   5.552  16.4980  0.00  0.00     0.000 C
ATOM     56  O5  BDP B   4      12.931   5.427  15.4730  0.00  0.00     0.000 O
ATOM     57   O  BDP B   4      10.967   4.381  12.5950  0.00  0.00     0.000 O
ATOM     59  HD  BDP B   4      11.423   3.781  12.1690  0.00  0.00     0.000 HD
ATOM     59   O  BDP B   4       9.576   3.193  14.7460  0.00  0.00     0.000 O
ATOM     61  HD  BDP B   4      10.032   2.593  14.3210  0.00  0.00     0.000 HD
BRANCH 55 61
ATOM     61   C  BDP B   4      12.617   5.385  17.8510  0.00  0.00     0.000 C
ATOM     62   O  BDP B   4      12.347   6.224  18.7500  0.00  0.00     0.000 OA
ATOM     63   O  BDP B   4      13.412   4.410  18.0130  0.00  0.00     0.000 OA
ENDBRANCH 55 61
BRANCH 51 64
ATOM     64  O3  NAG B   5      13.449   5.451  13.1790  0.00  0.00     0.000 O
BRANCH 64 67
ATOM     65  C1  NAG B   5      14.486   8.547  11.4680  0.00  0.00     0.000 C
ATOM     66  C2  NAG B   5      13.626   7.344  11.8150  0.00  0.00     0.000 C
ATOM     67  C3  NAG B   5      14.168   6.663  13.0650  0.00  0.00     0.000 C
ATOM     68  C4  NAG B   5      15.665   6.357  12.9210  0.00  0.00     0.000 C
ATOM     69  C5  NAG B   5      16.428   7.597  12.4820  0.00  0.00     0.000 C
ATOM     70  O5  NAG B   5      15.827   8.148  11.3010  0.00  0.00     0.000 O
ATOM     71   O  NAG B   5      16.147   5.870  14.1550  0.00  0.00     0.000 O
ATOM     73  HD  NAG B   5      16.562   5.315  13.6360  0.00  0.00     0.000 HD
ATOM     73   C  NAG B   5      17.915   7.354  12.1890  0.00  0.00     0.000 C
ATOM     74   O  NAG B   5      18.047   6.455  11.0690  0.00  0.00     0.000 O
ATOM     76  HD  NAG B   5      18.462   5.900  10.5500  0.00  0.00     0.000 HD
BRANCH 66 78
ATOM     76   N  NAG B   5      12.243   7.811  12.0290  0.00  0.00     0.000 N
ATOM     78  HD  NAG B   5      12.670   7.330  11.4490  0.00  0.00     0.000 HD
ATOM     78   C  NAG B   5      11.154   7.380  11.3740  0.00  0.00     0.000 C
ATOM     79   C  NAG B   5       9.879   8.035  11.8320  0.00  0.00     0.000 C
ATOM     80   O  NAG B   5      11.197   6.501  10.4410  0.00  0.00     0.000 OA
ENDBRANCH 66 78
BRANCH 65 81
ATOM     81  O4  BDP B   6      14.008   9.165  10.2650  0.00  0.00     0.000 O
BRANCH 81 85
ATOM     82  C1  BDP B   6      13.981  12.967   8.2900  0.00  0.00     0.000 C
ATOM     83  C2  BDP B   6      15.331  12.279   8.4770  0.00  0.00     0.000 C
ATOM     84  C3  BDP B   6      15.198  10.789   8.8060  0.00  0.00     0.000 C
ATOM     85  C4  BDP B   6      14.242  10.545   9.9740  0.00  0.00     0.000 C
ATOM     86  C5  BDP B   6      12.932  11.317   9.6870  0.00  0.00     0.000 C
ATOM     87  O5  BDP B   6      13.179  12.738   9.4400  0.00  0.00     0.000 O
ATOM     88   O  BDP B   6      16.012  12.434   7.2350  0.00  0.00     0.000 O
ATOM     90  HD  BDP B   6      16.509  11.986   6.6860  0.00  0.00     0.000 HD
ATOM     90   O  BDP B   6      16.491  10.242   9.0780  0.00  0.00     0.000 O
ATOM     92  HD  BDP B   6      16.988   9.793   8.5290  0.00  0.00     0.000 HD
BRANCH 86 92
ATOM     92   C  BDP B   6      12.037  11.313  10.9030  0.00  0.00     0.000 C
ATOM     93   O  BDP B   6      12.542  11.505  12.0500  0.00  0.00     0.000 OA
ATOM     94   O  BDP B   6      10.793  11.138  10.7150  0.00  0.00     0.000 OA
ENDBRANCH 86 92
BRANCH 82 95
ATOM     95  O3  NAG B   7      14.207  14.387   8.1840  0.00  0.00     0.000 O
BRANCH 95 98
ATOM     96  C1  NAG B   7      13.365  17.025   5.8030  0.00  0.00     0.000 C
ATOM     97  C2  NAG B   7      14.262  16.234   6.7460  0.00  0.00     0.000 C
ATOM     98  C3  NAG B   7      13.352  15.166   7.3490  0.00  0.00     0.000 C
ATOM     99  C4  NAG B   7      12.199  15.830   8.0990  0.00  0.00     0.000 C
ATOM    100  C5  NAG B   7      11.456  16.815   7.1960  0.00  0.00     0.000 C
ATOM    101  O5  NAG B   7      12.397  17.703   6.6110  0.00  0.00     0.000 O
BRANCH 97 104
ATOM    102   N  NAG B   7      15.362  15.471   6.1400  0.00  0.00     0.000 N
ATOM    104  HD  NAG B   7      15.883  14.822   5.9010  0.00  0.00     0.000 HD
ATOM    104   O  NAG B   7      17.507  14.837   5.7870  0.00  0.00     0.000 OA
ATOM    105   C  NAG B   7      16.688  15.604   6.3300  0.00  0.00     0.000 C
ATOM    106   C  NAG B   7      17.186  16.687   7.2250  0.00  0.00     0.000 C
ENDBRANCH 97 104
ATOM    107   O  NAG B   7       9.575  18.211   7.0640  0.00  0.00     0.000 O
ATOM    109  HD  NAG B   7      10.080  17.659   6.6270  0.00  0.00     0.000 HD
ATOM    109   O  NAG B   7       9.575  18.211   7.0640  0.00  0.00     0.000 O
ATOM    111  HD  NAG B   7      10.080  17.659   6.6270  0.00  0.00     0.000 HD
ENDBRANCH 95 98
ENDBRANCH 82 95
ENDBRANCH 81 85
ENDBRANCH 65 81
ENDBRANCH 64 67
ENDBRANCH 51 64
ENDBRANCH 50 54
ENDBRANCH 34 50
ENDBRANCH 33 36
ENDBRANCH 20 33
ENDBRANCH 19 23
ENDBRANCH 1 19
TORSDOF 19
ENDMDL
MODEL 37
REMARK VINA RESULT:      -5.7      6.303      8.927
ROOT
ATOM      1  C1  NAG B   1      20.835   4.737   4.7480  0.00  0.00     0.000 C
ATOM      2  C2  NAG B   1      20.169   3.365   4.7010  0.00  0.00     0.000 C
ATOM      3  C3  NAG B   1      20.504   2.618   3.4260  0.00  0.00     0.000 C
ATOM      4  C4  NAG B   1      20.045   3.525   2.2890  0.00  0.00     0.000 C
ATOM      5  C5  NAG B   1      20.854   4.828   2.3280  0.00  0.00     0.000 C
ATOM      6  O5  NAG B   1      20.644   5.535   3.5690  0.00  0.00     0.000 O
ATOM      7   O  NAG B   1      19.846   1.332   3.3580  0.00  0.00     0.000 O
ATOM      9  HD  NAG B   1      20.013   1.412   4.2040  0.00  0.00     0.000 HD
ATOM      9   O  NAG B   1      20.235   2.879   1.0420  0.00  0.00     0.000 O
ATOM     11  HD  NAG B   1      20.402   2.958   1.8880  0.00  0.00     0.000 HD
ATOM     11   C  NAG B   1      20.505   5.697   1.1130  0.00  0.00     0.000 C
ATOM     12   O  NAG B   1      20.672   7.084   1.4030  0.00  0.00     0.000 O
ATOM     14  HD  NAG B   1      20.839   7.163   2.2490  0.00  0.00     0.000 HD
ENDROOT
BRANCH 2 16
ATOM     14   N  NAG B   1      19.320   3.119   5.8800  0.00  0.00     0.000 N
ATOM     16  HD  NAG B   1      18.731   2.573   6.2040  0.00  0.00     0.000 HD
ATOM     16   C  NAG B   1      19.632   2.230   6.8390  0.00  0.00     0.000 C
ATOM     17   C  NAG B   1      20.888   1.408   6.7210  0.00  0.00     0.000 C
ATOM     18   O  NAG B   1      18.922   2.088   7.8340  0.00  0.00     0.000 OA
ENDBRANCH 2 16
BRANCH 1 19
ATOM     19  O4  BDP B   2      20.132   5.403   5.7890  0.00  0.00     0.000 O
BRANCH 19 23
ATOM     20  C1  BDP B   2      17.936   8.867   6.1290  0.00  0.00     0.000 C
ATOM     21  C2  BDP B   2      17.351   7.784   5.2480  0.00  0.00     0.000 C
ATOM     22  C3  BDP B   2      17.997   6.445   5.5240  0.00  0.00     0.000 C
ATOM     23  C4  BDP B   2      19.510   6.604   5.4000  0.00  0.00     0.000 C
ATOM     24  C5  BDP B   2      19.979   7.703   6.3320  0.00  0.00     0.000 C
ATOM     25  O5  BDP B   2      19.349   8.921   5.9840  0.00  0.00     0.000 O
ATOM     26   O  BDP B   2      15.957   7.690   5.4480  0.00  0.00     0.000 O
ATOM     28  HD  BDP B   2      16.126   8.431   5.8630  0.00  0.00     0.000 HD
ATOM     28   O  BDP B   2      17.479   5.471   4.6030  0.00  0.00     0.000 O
ATOM     30  HD  BDP B   2      17.648   6.212   5.0180  0.00  0.00     0.000 HD
BRANCH 24 30
ATOM     30   C  BDP B   2      21.448   7.918   6.2530  0.00  0.00     0.000 C
ATOM     31   O  BDP B   2      22.096   7.860   7.3230  0.00  0.00     0.000 OA
ATOM     32   O  BDP B   2      21.961   8.154   5.1210  0.00  0.00     0.000 OA
ENDBRANCH 24 30
BRANCH 20 33
ATOM     33  O3  NAG B   3      17.375  10.055   5.6260  0.00  0.00     0.000 O
BRANCH 33 36
ATOM     34  C1  NAG B   3      16.983  13.252   7.5690  0.00  0.00     0.000 C
ATOM     35  C2  NAG B   3      16.593  11.919   6.9600  0.00  0.00     0.000 C
ATOM     36  C3  NAG B   3      17.813  11.200   6.3620  0.00  0.00     0.000 C
ATOM     37  C4  NAG B   3      18.543  12.148   5.4130  0.00  0.00     0.000 C
ATOM     38  C5  NAG B   3      18.808  13.485   6.1010  0.00  0.00     0.000 C
ATOM     39  O5  NAG B   3      17.588  14.044   6.5570  0.00  0.00     0.000 O
ATOM     40   O  NAG B   3      19.790  11.566   5.0030  0.00  0.00     0.000 O
ATOM     42  HD  NAG B   3      20.097  12.320   5.3000  0.00  0.00     0.000 HD
ATOM     42   C  NAG B   3      19.420  14.540   5.1830  0.00  0.00     0.000 C
ATOM     43   O  NAG B   3      18.478  14.890   4.1610  0.00  0.00     0.000 O
ATOM     45  HD  NAG B   3      18.785  15.643   4.4580  0.00  0.00     0.000 HD
BRANCH 35 47
ATOM     45   N  NAG B   3      15.252  11.356   6.8720  0.00  0.00     0.000 N
ATOM     47  HD  NAG B   3      15.614  11.477   6.0950  0.00  0.00     0.000 HD
ATOM     47   C  NAG B   3      14.793  10.462   7.7250  0.00  0.00     0.000 C
ATOM     48   C  NAG B   3      13.397   9.970   7.4790  0.00  0.00     0.000 C
ATOM     49   O  NAG B   3      15.477  10.035   8.6530  0.00  0.00     0.000 OA
ENDBRANCH 35 47
BRANCH 34 50
ATOM     50  O4  BDP B   4      15.747  13.814   7.9600  0.00  0.00     0.000 O
BRANCH 50 54
ATOM     51  C1  BDP B   4      14.251  16.689  10.4200  0.00  0.00     0.000 C
ATOM     52  C2  BDP B   4      15.681  16.938   9.9530  0.00  0.00     0.000 C
ATOM     53  C3  BDP B   4      15.970  16.039   8.7910  0.00  0.00     0.000 C
ATOM     54  C4  BDP B   4      15.687  14.561   9.1870  0.00  0.00     0.000 C
ATOM     55  C5  BDP B   4      14.321  14.386   9.8350  0.00  0.00     0.000 C
ATOM     56  O5  BDP B   4      14.132  15.351  10.8670  0.00  0.00     0.000 O
ATOM     57   O  BDP B   4      15.839  18.283   9.5540  0.00  0.00     0.000 O
ATOM     59  HD  BDP B   4      16.261  18.658  10.2120  0.00  0.00     0.000 HD
ATOM     59   O  BDP B   4      17.378  16.161   8.5040  0.00  0.00     0.000 O
ATOM     61  HD  BDP B   4      17.799  16.536   9.1620  0.00  0.00     0.000 HD
BRANCH 55 61
ATOM     61   C  BDP B   4      14.224  12.993  10.4310  0.00  0.00     0.000 C
ATOM     62   O  BDP B   4      15.255  12.505  10.9630  0.00  0.00     0.000 OA
ATOM     63   O  BDP B   4      13.110  12.389  10.3680  0.00  0.00     0.000 OA
ENDBRANCH 55 61
BRANCH 51 64
ATOM     64  O3  NAG B   5      13.985  17.612  11.4930  0.00  0.00     0.000 O
BRANCH 64 67
ATOM     65  C1  NAG B   5      10.665  19.162  11.0850  0.00  0.00     0.000 C
ATOM     66  C2  NAG B   5      12.091  18.764  10.7440  0.00  0.00     0.000 C
ATOM     67  C3  NAG B   5      12.604  17.753  11.7610  0.00  0.00     0.000 C
ATOM     68  C4  NAG B   5      12.411  18.265  13.1940  0.00  0.00     0.000 C
ATOM     69  C5  NAG B   5      10.978  18.726  13.4120  0.00  0.00     0.000 C
ATOM     70  O5  NAG B   5      10.609  19.672  12.3980  0.00  0.00     0.000 O
ATOM     71   O  NAG B   5      12.758  17.234  14.0930  0.00  0.00     0.000 O
ATOM     73  HD  NAG B   5      13.134  17.892  14.5130  0.00  0.00     0.000 HD
ATOM     73   C  NAG B   5      10.723  19.373  14.7800  0.00  0.00     0.000 C
ATOM     74   O  NAG B   5      11.495  20.587  14.8930  0.00  0.00     0.000 O
ATOM     76  HD  NAG B   5      11.871  21.244  15.3120  0.00  0.00     0.000 HD
BRANCH 66 78
ATOM     76   N  NAG B   5      12.107  18.184   9.3870  0.00  0.00     0.000 N
ATOM     78  HD  NAG B   5      12.394  18.903   9.7760  0.00  0.00     0.000 HD
ATOM     78   C  NAG B   5      12.833  18.626   8.3480  0.00  0.00     0.000 C
ATOM     79   C  NAG B   5      12.648  17.811   7.0970  0.00  0.00     0.000 C
ATOM     80   O  NAG B   5      13.602  19.650   8.4130  0.00  0.00     0.000 OA
ENDBRANCH 66 78
BRANCH 65 81
ATOM     81  O4  BDP B   6      10.193  20.149  10.1590  0.00  0.00     0.000 O
BRANCH 81 85
ATOM     82  C1  BDP B   6       6.575  21.430   8.2550  0.00  0.00     0.000 C
ATOM     83  C2  BDP B   6       6.646  21.533   9.7760  0.00  0.00     0.000 C
ATOM     84  C3  BDP B   6       8.078  21.448  10.3110  0.00  0.00     0.000 C
ATOM     85  C4  BDP B   6       8.822  20.228   9.7640  0.00  0.00     0.000 C
ATOM     86  C5  BDP B   6       8.648  20.215   8.2270  0.00  0.00     0.000 C
ATOM     87  O5  BDP B   6       7.238  20.246   7.8370  0.00  0.00     0.000 O
ATOM     88   O  BDP B   6       6.091  22.806  10.0970  0.00  0.00     0.000 O
ATOM     90  HD  BDP B   6       6.230  23.481  10.6220  0.00  0.00     0.000 HD
ATOM     90   O  BDP B   6       8.055  21.436  11.7410  0.00  0.00     0.000 O
ATOM     92  HD  BDP B   6       8.194  22.111  12.2650  0.00  0.00     0.000 HD
BRANCH 86 92
ATOM     92   C  BDP B   6       9.153  18.915   7.6480  0.00  0.00     0.000 C
ATOM     93   O  BDP B   6       9.549  18.881   6.4440  0.00  0.00     0.000 OA
ATOM     94   O  BDP B   6       9.179  17.903   8.4150  0.00  0.00     0.000 OA
ENDBRANCH 86 92
BRANCH 82 95
ATOM     95  O3  NAG B   7       5.190  21.321   7.8720  0.00  0.00     0.000 O
BRANCH 95 98
ATOM     96  C1  NAG B   7       2.728  22.531   5.4600  0.00  0.00     0.000 C
ATOM     97  C2  NAG B   7       3.279  21.624   6.5530  0.00  0.00     0.000 C
ATOM     98  C3  NAG B   7       4.697  22.130   6.8050  0.00  0.00     0.000 C
ATOM     99  C4  NAG B   7       5.521  22.025   5.5240  0.00  0.00     0.000 C
ATOM    100  C5  NAG B   7       4.823  22.739   4.3650  0.00  0.00     0.000 C
ATOM    101  O5  NAG B   7       3.487  22.270   4.2740  0.00  0.00     0.000 O
BRANCH 97 104
ATOM    102   N  NAG B   7       2.584  21.702   7.8450  0.00  0.00     0.000 N
ATOM    104  HD  NAG B   7       2.408  21.848   8.6800  0.00  0.00     0.000 HD
ATOM    104   O  NAG B   7       1.534  20.919   9.6930  0.00  0.00     0.000 OA
ATOM    105   C  NAG B   7       2.044  20.708   8.5750  0.00  0.00     0.000 C
ATOM    106   C  NAG B   7       2.070  19.318   8.0380  0.00  0.00     0.000 C
ENDBRANCH 97 104
ATOM    107   O  NAG B   7       5.076  23.420   2.1350  0.00  0.00     0.000 O
ATOM    109  HD  NAG B   7       4.765  23.642   2.9120  0.00  0.00     0.000 HD
ATOM    109   O  NAG B   7       5.076  23.420   2.1350  0.00  0.00     0.000 O
ATOM    111  HD  NAG B   7       4.765  23.642   2.9120  0.00  0.00     0.000 HD
ENDBRANCH 95 98
ENDBRANCH 82 95
ENDBRANCH 81 85
ENDBRANCH 65 81
ENDBRANCH 64 67
ENDBRANCH 51 64
ENDBRANCH 50 54
ENDBRANCH 34 50
ENDBRANCH 33 36
ENDBRANCH 20 33
ENDBRANCH 19 23
ENDBRANCH 1 19
TORSDOF 19
ENDMDL
MODEL 38
REMARK VINA RESULT:      -5.7      2.420      3.034
ROOT
ATOM      1  C1  NAG B   1      14.724   3.425  15.2550  0.00  0.00     0.000 C
ATOM      2  C2  NAG B   1      14.980   3.340  16.7570  0.00  0.00     0.000 C
ATOM      3  C3  NAG B   1      15.054   1.905  17.2370  0.00  0.00     0.000 C
ATOM      4  C4  NAG B   1      13.725   1.273  16.8370  0.00  0.00     0.000 C
ATOM      5  C5  NAG B   1      13.605   1.278  15.3070  0.00  0.00     0.000 C
ATOM      6  O5  NAG B   1      13.626   2.626  14.7890  0.00  0.00     0.000 O
ATOM      7   O  NAG B   1      15.257   1.817  18.6650  0.00  0.00     0.000 O
ATOM      9  HD  NAG B   1      15.711   2.524  18.4550  0.00  0.00     0.000 HD
ATOM      9   O  NAG B   1      13.653  -0.058  17.3190  0.00  0.00     0.000 O
ATOM     11  HD  NAG B   1      14.107   0.648  17.1090  0.00  0.00     0.000 HD
ATOM     11   C  NAG B   1      12.340   0.525  14.8790  0.00  0.00     0.000 C
ATOM     12   O  NAG B   1      11.832   1.026  13.6430  0.00  0.00     0.000 O
ATOM     14  HD  NAG B   1      12.286   1.733  13.4330  0.00  0.00     0.000 HD
ENDROOT
BRANCH 2 16
ATOM     14   N  NAG B   1      16.157   4.200  16.9770  0.00  0.00     0.000 N
ATOM     16  HD  NAG B   1      16.490   4.975  16.7820  0.00  0.00     0.000 HD
ATOM     16   C  NAG B   1      16.175   5.207  17.8670  0.00  0.00     0.000 C
ATOM     17   C  NAG B   1      14.944   5.516  18.6780  0.00  0.00     0.000 C
ATOM     18   O  NAG B   1      17.193   5.872  18.0590  0.00  0.00     0.000 OA
ENDBRANCH 2 16
BRANCH 1 19
ATOM     19  O4  BDP B   2      14.330   4.778  15.0690  0.00  0.00     0.000 O
BRANCH 19 23
ATOM     20  C1  BDP B   2      14.320   7.361  11.8650  0.00  0.00     0.000 C
ATOM     21  C2  BDP B   2      13.063   6.541  12.0720  0.00  0.00     0.000 C
ATOM     22  C3  BDP B   2      13.009   5.965  13.4690  0.00  0.00     0.000 C
ATOM     23  C4  BDP B   2      14.305   5.202  13.7270  0.00  0.00     0.000 C
ATOM     24  C5  BDP B   2      15.487   6.124  13.5010  0.00  0.00     0.000 C
ATOM     25  O5  BDP B   2      15.475   6.591  12.1660  0.00  0.00     0.000 O
ATOM     26   O  BDP B   2      11.918   7.332  11.8390  0.00  0.00     0.000 O
ATOM     28  HD  BDP B   2      12.536   7.853  11.5270  0.00  0.00     0.000 HD
ATOM     28   O  BDP B   2      11.853   5.121  13.5880  0.00  0.00     0.000 O
ATOM     30  HD  BDP B   2      12.470   5.643  13.2770  0.00  0.00     0.000 HD
BRANCH 24 30
ATOM     30   C  BDP B   2      16.786   5.438  13.7260  0.00  0.00     0.000 C
ATOM     31   O  BDP B   2      17.475   5.817  14.7020  0.00  0.00     0.000 OA
ATOM     32   O  BDP B   2      17.129   4.522  12.9250  0.00  0.00     0.000 OA
ENDBRANCH 24 30
BRANCH 20 33
ATOM     33  O3  NAG B   3      14.308   7.660  10.4900  0.00  0.00     0.000 O
BRANCH 33 36
ATOM     34  C1  NAG B   3      16.006  10.779   9.2500  0.00  0.00     0.000 C
ATOM     35  C2  NAG B   3      14.913   9.915   9.8490  0.00  0.00     0.000 C
ATOM     36  C3  NAG B   3      15.413   8.488  10.1200  0.00  0.00     0.000 C
ATOM     37  C4  NAG B   3      16.049   7.926   8.8510  0.00  0.00     0.000 C
ATOM     38  C5  NAG B   3      17.069   8.912   8.2880  0.00  0.00     0.000 C
ATOM     39  O5  NAG B   3      16.450  10.164   8.0490  0.00  0.00     0.000 O
ATOM     40   O  NAG B   3      16.699   6.678   9.1380  0.00  0.00     0.000 O
ATOM     42  HD  NAG B   3      17.371   7.087   8.7760  0.00  0.00     0.000 HD
ATOM     42   C  NAG B   3      17.661   8.489   6.9460  0.00  0.00     0.000 C
ATOM     43   O  NAG B   3      16.633   8.491   5.9470  0.00  0.00     0.000 O
ATOM     45  HD  NAG B   3      17.306   8.900   5.5860  0.00  0.00     0.000 HD
BRANCH 35 47
ATOM     45   N  NAG B   3      13.554  10.378  10.0990  0.00  0.00     0.000 N
ATOM     47  HD  NAG B   3      13.590   9.764   9.4890  0.00  0.00     0.000 HD
ATOM     47   C  NAG B   3      13.110  10.684  11.3020  0.00  0.00     0.000 C
ATOM     48   C  NAG B   3      11.679  11.125  11.3860  0.00  0.00     0.000 C
ATOM     49   O  NAG B   3      13.819  10.589  12.3010  0.00  0.00     0.000 OA
ENDBRANCH 35 47
BRANCH 34 50
ATOM     50  O4  BDP B   4      15.351  11.998   8.9650  0.00  0.00     0.000 O
BRANCH 50 54
ATOM     51  C1  BDP B   4      15.814  16.035   8.7700  0.00  0.00     0.000 C
ATOM     52  C2  BDP B   4      16.798  15.244   7.9150  0.00  0.00     0.000 C
ATOM     53  C3  BDP B   4      16.294  13.840   7.7800  0.00  0.00     0.000 C
ATOM     54  C4  BDP B   4      16.057  13.229   9.1910  0.00  0.00     0.000 C
ATOM     55  C5  BDP B   4      15.233  14.144  10.0870  0.00  0.00     0.000 C
ATOM     56  O5  BDP B   4      15.759  15.468  10.0660  0.00  0.00     0.000 O
ATOM     57   O  BDP B   4      16.911  15.825   6.6340  0.00  0.00     0.000 O
ATOM     59  HD  BDP B   4      17.665  16.251   6.6530  0.00  0.00     0.000 HD
ATOM     59   O  BDP B   4      17.338  13.080   7.1360  0.00  0.00     0.000 O
ATOM     61  HD  BDP B   4      18.092  13.505   7.1560  0.00  0.00     0.000 HD
BRANCH 55 61
ATOM     61   C  BDP B   4      15.269  13.615  11.5100  0.00  0.00     0.000 C
ATOM     62   O  BDP B   4      16.291  12.979  11.8790  0.00  0.00     0.000 OA
ATOM     63   O  BDP B   4      14.270  13.841  12.2600  0.00  0.00     0.000 OA
ENDBRANCH 55 61
BRANCH 51 64
ATOM     64  O3  NAG B   5      16.292  17.393   8.8260  0.00  0.00     0.000 O
BRANCH 64 67
ATOM     65  C1  NAG B   5      13.609  19.915   8.6470  0.00  0.00     0.000 C
ATOM     66  C2  NAG B   5      14.513  18.780   8.2000  0.00  0.00     0.000 C
ATOM     67  C3  NAG B   5      15.341  18.282   9.3780  0.00  0.00     0.000 C
ATOM     68  C4  NAG B   5      16.069  19.443  10.0690  0.00  0.00     0.000 C
ATOM     69  C5  NAG B   5      15.099  20.568  10.3940  0.00  0.00     0.000 C
ATOM     70  O5  NAG B   5      14.380  20.950   9.2120  0.00  0.00     0.000 O
ATOM     71   O  NAG B   5      16.694  18.954  11.2370  0.00  0.00     0.000 O
ATOM     73  HD  NAG B   5      17.338  19.461  10.9590  0.00  0.00     0.000 HD
ATOM     73   C  NAG B   5      15.761  21.826  10.9730  0.00  0.00     0.000 C
ATOM     74   O  NAG B   5      16.643  22.405   9.9890  0.00  0.00     0.000 O
ATOM     76  HD  NAG B   5      17.288  22.913   9.7120  0.00  0.00     0.000 HD
BRANCH 66 78
ATOM     76   N  NAG B   5      14.407  18.273   6.8180  0.00  0.00     0.000 N
ATOM     78  HD  NAG B   5      14.230  17.988   7.6160  0.00  0.00     0.000 HD
ATOM     78   C  NAG B   5      13.751  17.169   6.4300  0.00  0.00     0.000 C
ATOM     79   C  NAG B   5      13.809  16.926   4.9470  0.00  0.00     0.000 C
ATOM     80   O  NAG B   5      13.140  16.391   7.2470  0.00  0.00     0.000 OA
ENDBRANCH 66 78
BRANCH 65 81
ATOM     81  O4  BDP B   6      12.861  20.418   7.5320  0.00  0.00     0.000 O
BRANCH 81 85
ATOM     82  C1  BDP B   6       8.834  21.559   6.6150  0.00  0.00     0.000 C
ATOM     83  C2  BDP B   6       9.791  22.656   7.0720  0.00  0.00     0.000 C
ATOM     84  C3  BDP B   6      11.261  22.240   6.9780  0.00  0.00     0.000 C
ATOM     85  C4  BDP B   6      11.523  20.900   7.6690  0.00  0.00     0.000 C
ATOM     86  C5  BDP B   6      10.474  19.886   7.1520  0.00  0.00     0.000 C
ATOM     87  O5  BDP B   6       9.106  20.371   7.3440  0.00  0.00     0.000 O
ATOM     88   O  BDP B   6       9.550  23.758   6.2020  0.00  0.00     0.000 O
ATOM     90  HD  BDP B   6       9.981  24.366   5.7600  0.00  0.00     0.000 HD
ATOM     90   O  BDP B   6      12.088  23.270   7.5270  0.00  0.00     0.000 O
ATOM     92  HD  BDP B   6      12.518  23.878   7.0850  0.00  0.00     0.000 HD
BRANCH 86 92
ATOM     92   C  BDP B   6      10.522  18.615   7.9640  0.00  0.00     0.000 C
ATOM     93   O  BDP B   6      10.313  17.502   7.3930  0.00  0.00     0.000 OA
ATOM     94   O  BDP B   6      10.798  18.718   9.2000  0.00  0.00     0.000 OA
ENDBRANCH 86 92
BRANCH 82 95
ATOM     95  O3  NAG B   7       7.489  21.971   6.9280  0.00  0.00     0.000 O
BRANCH 95 98
ATOM     96  C1  NAG B   7       4.303  20.666   5.7090  0.00  0.00     0.000 C
ATOM     97  C2  NAG B   7       5.406  21.700   5.8930  0.00  0.00     0.000 C
ATOM     98  C3  NAG B   7       6.426  21.026   6.8080  0.00  0.00     0.000 C
ATOM     99  C4  NAG B   7       5.771  20.666   8.1390  0.00  0.00     0.000 C
ATOM    100  C5  NAG B   7       4.512  19.826   7.9190  0.00  0.00     0.000 C
ATOM    101  O5  NAG B   7       3.675  20.489   6.9840  0.00  0.00     0.000 O
BRANCH 97 104
ATOM    102   N  NAG B   7       6.138  22.065   4.6720  0.00  0.00     0.000 N
ATOM    104  HD  NAG B   7       6.765  22.163   4.0830  0.00  0.00     0.000 HD
ATOM    104   O  NAG B   7       7.044  23.450   3.1260  0.00  0.00     0.000 OA
ATOM    105   C  NAG B   7       6.346  23.287   4.1460  0.00  0.00     0.000 C
ATOM    106   C  NAG B   7       5.737  24.475   4.8090  0.00  0.00     0.000 C
ENDBRANCH 97 104
ATOM    107   O  NAG B   7       2.850  18.586   9.0150  0.00  0.00     0.000 O
ATOM    109  HD  NAG B   7       3.365  18.621   8.3200  0.00  0.00     0.000 HD
ATOM    109   O  NAG B   7       2.850  18.586   9.0150  0.00  0.00     0.000 O
ATOM    111  HD  NAG B   7       3.365  18.621   8.3200  0.00  0.00     0.000 HD
ENDBRANCH 95 98
ENDBRANCH 82 95
ENDBRANCH 81 85
ENDBRANCH 65 81
ENDBRANCH 64 67
ENDBRANCH 51 64
ENDBRANCH 50 54
ENDBRANCH 34 50
ENDBRANCH 33 36
ENDBRANCH 20 33
ENDBRANCH 19 23
ENDBRANCH 1 19
TORSDOF 19
ENDMDL
MODEL 39
REMARK VINA RESULT:      -5.6      7.266     10.249
ROOT
ATOM      1  C1  NAG B   1       4.081   8.547  20.0470  0.00  0.00     0.000 C
ATOM      2  C2  NAG B   1       3.584   9.990  20.0300  0.00  0.00     0.000 C
ATOM      3  C3  NAG B   1       2.094  10.071  19.7650  0.00  0.00     0.000 C
ATOM      4  C4  NAG B   1       1.879   9.366  18.4300  0.00  0.00     0.000 C
ATOM      5  C5  NAG B   1       2.278   7.891  18.5690  0.00  0.00     0.000 C
ATOM      6  O5  NAG B   1       3.673   7.761  18.9170  0.00  0.00     0.000 O
ATOM      7   O  NAG B   1       1.623  11.436  19.7090  0.00  0.00     0.000 O
ATOM      9  HD  NAG B   1       2.245  11.478  20.3110  0.00  0.00     0.000 HD
ATOM      9   O  NAG B   1       0.518   9.460  18.0420  0.00  0.00     0.000 O
ATOM     11  HD  NAG B   1       1.140   9.502  18.6440  0.00  0.00     0.000 HD
ATOM     11   C  NAG B   1       1.941   7.133  17.2790  0.00  0.00     0.000 C
ATOM     12   O  NAG B   1       2.822   6.029  17.0820  0.00  0.00     0.000 O
ATOM     14  HD  NAG B   1       3.444   6.071  17.6830  0.00  0.00     0.000 HD
ENDROOT
BRANCH 2 16
ATOM     14   N  NAG B   1       4.153  10.529  21.2780  0.00  0.00     0.000 N
ATOM     16  HD  NAG B   1       4.893  10.605  21.7220  0.00  0.00     0.000 HD
ATOM     16   C  NAG B   1       4.825  11.692  21.3380  0.00  0.00     0.000 C
ATOM     17   C  NAG B   1       5.047  12.496  20.0850  0.00  0.00     0.000 C
ATOM     18   O  NAG B   1       5.243  12.133  22.4080  0.00  0.00     0.000 OA
ENDBRANCH 2 16
BRANCH 1 19
ATOM     19  O4  BDP B   2       5.491   8.690  19.9370  0.00  0.00     0.000 O
BRANCH 19 23
ATOM     20  C1  BDP B   2       8.347   7.750  17.1260  0.00  0.00     0.000 C
ATOM     21  C2  BDP B   2       7.327   8.797  16.7260  0.00  0.00     0.000 C
ATOM     22  C3  BDP B   2       6.614   9.358  17.9360  0.00  0.00     0.000 C
ATOM     23  C4  BDP B   2       6.037   8.195  18.7380  0.00  0.00     0.000 C
ATOM     24  C5  BDP B   2       7.147   7.224  19.0890  0.00  0.00     0.000 C
ATOM     25  O5  BDP B   2       7.736   6.729  17.9020  0.00  0.00     0.000 O
ATOM     26   O  BDP B   2       7.953   9.843  16.0150  0.00  0.00     0.000 O
ATOM     28  HD  BDP B   2       8.591   9.258  16.0270  0.00  0.00     0.000 HD
ATOM     28   O  BDP B   2       5.596  10.273  17.5020  0.00  0.00     0.000 O
ATOM     30  HD  BDP B   2       6.234   9.688  17.5150  0.00  0.00     0.000 HD
BRANCH 24 30
ATOM     30   C  BDP B   2       6.649   6.057  19.8640  0.00  0.00     0.000 C
ATOM     31   O  BDP B   2       5.864   5.273  19.2820  0.00  0.00     0.000 OA
ATOM     32   O  BDP B   2       7.032   5.923  21.0610  0.00  0.00     0.000 OA
ENDBRANCH 24 30
BRANCH 20 33
ATOM     33  O3  NAG B   3       8.775   7.207  15.9010  0.00  0.00     0.000 O
BRANCH 33 36
ATOM     34  C1  NAG B   3      12.315   6.441  14.8840  0.00  0.00     0.000 C
ATOM     35  C2  NAG B   3      11.000   7.196  14.9470  0.00  0.00     0.000 C
ATOM     36  C3  NAG B   3      10.066   6.603  16.0130  0.00  0.00     0.000 C
ATOM     37  C4  NAG B   3       9.930   5.099  15.7860  0.00  0.00     0.000 C
ATOM     38  C5  NAG B   3      11.308   4.457  15.6540  0.00  0.00     0.000 C
ATOM     39  O5  NAG B   3      12.032   5.078  14.6040  0.00  0.00     0.000 O
ATOM     40   O  NAG B   3       9.227   4.499  16.8850  0.00  0.00     0.000 O
ATOM     42  HD  NAG B   3       9.932   3.996  16.9010  0.00  0.00     0.000 HD
ATOM     42   C  NAG B   3      11.266   2.974  15.2950  0.00  0.00     0.000 C
ATOM     43   O  NAG B   3      10.714   2.814  13.9830  0.00  0.00     0.000 O
ATOM     45  HD  NAG B   3      11.419   2.311  13.9980  0.00  0.00     0.000 HD
BRANCH 35 47
ATOM     45   N  NAG B   3      10.702   8.319  14.0680  0.00  0.00     0.000 N
ATOM     47  HD  NAG B   3      10.220   7.621  13.8920  0.00  0.00     0.000 HD
ATOM     47   C  NAG B   3      10.684   9.570  14.4830  0.00  0.00     0.000 C
ATOM     48   C  NAG B   3      10.338  10.603  13.4520  0.00  0.00     0.000 C
ATOM     49   O  NAG B   3      10.912   9.871  15.6520  0.00  0.00     0.000 OA
ENDBRANCH 35 47
BRANCH 34 50
ATOM     50  O4  BDP B   4      12.990   7.037  13.7950  0.00  0.00     0.000 O
BRANCH 50 54
ATOM     51  C1  BDP B   4      16.646   8.043  12.3210  0.00  0.00     0.000 C
ATOM     52  C2  BDP B   4      16.492   6.568  12.6750  0.00  0.00     0.000 C
ATOM     53  C3  BDP B   4      15.034   6.264  12.8390  0.00  0.00     0.000 C
ATOM     54  C4  BDP B   4      14.411   7.230  13.8880  0.00  0.00     0.000 C
ATOM     55  C5  BDP B   4      14.756   8.687  13.6110  0.00  0.00     0.000 C
ATOM     56  O5  BDP B   4      16.156   8.834  13.3880  0.00  0.00     0.000 O
ATOM     57   O  BDP B   4      17.025   5.759  11.6490  0.00  0.00     0.000 O
ATOM     59  HD  BDP B   4      17.788   5.489  11.9570  0.00  0.00     0.000 HD
ATOM     59   O  BDP B   4      14.940   4.922  13.3600  0.00  0.00     0.000 O
ATOM     61  HD  BDP B   4      15.703   4.653  13.6680  0.00  0.00     0.000 HD
BRANCH 55 61
ATOM     61   C  BDP B   4      14.349   9.534  14.8040  0.00  0.00     0.000 C
ATOM     62   O  BDP B   4      14.425   9.016  15.9490  0.00  0.00     0.000 OA
ATOM     63   O  BDP B   4      13.956  10.721  14.5910  0.00  0.00     0.000 OA
ENDBRANCH 55 61
BRANCH 51 64
ATOM     64  O3  NAG B   5      18.050   8.286  12.1070  0.00  0.00     0.000 O
BRANCH 64 67
ATOM     65  C1  NAG B   5      19.188  11.310  10.3320  0.00  0.00     0.000 C
ATOM     66  C2  NAG B   5      18.629   9.911  10.5260  0.00  0.00     0.000 C
ATOM     67  C3  NAG B   5      18.354   9.663  12.0030  0.00  0.00     0.000 C
ATOM     68  C4  NAG B   5      19.592   9.978  12.8540  0.00  0.00     0.000 C
ATOM     69  C5  NAG B   5      20.133  11.360  12.5240  0.00  0.00     0.000 C
ATOM     70  O5  NAG B   5      20.351  11.474  11.1100  0.00  0.00     0.000 O
ATOM     71   O  NAG B   5      19.239   9.880  14.2180  0.00  0.00     0.000 O
ATOM     73  HD  NAG B   5      20.009   9.485  14.2630  0.00  0.00     0.000 HD
ATOM     73   C  NAG B   5      21.447  11.712  13.2360  0.00  0.00     0.000 C
ATOM     74   O  NAG B   5      22.490  10.818  12.7950  0.00  0.00     0.000 O
ATOM     76  HD  NAG B   5      23.260  10.424  12.8400  0.00  0.00     0.000 HD
BRANCH 66 78
ATOM     76   N  NAG B   5      18.345   9.071   9.3460  0.00  0.00     0.000 N
ATOM     78  HD  NAG B   5      17.892   9.482   9.9590  0.00  0.00     0.000 HD
ATOM     78   C  NAG B   5      17.142   8.884   8.7810  0.00  0.00     0.000 C
ATOM     79   C  NAG B   5      17.178   7.984   7.5760  0.00  0.00     0.000 C
ATOM     80   O  NAG B   5      16.064   9.414   9.2310  0.00  0.00     0.000 OA
ENDBRANCH 66 78
BRANCH 65 81
ATOM     81  O4  BDP B   6      19.492  11.532   8.9480  0.00  0.00     0.000 O
BRANCH 81 85
ATOM     82  C1  BDP B   6      19.486  14.668   6.0280  0.00  0.00     0.000 C
ATOM     83  C2  BDP B   6      20.463  14.791   7.1940  0.00  0.00     0.000 C
ATOM     84  C3  BDP B   6      20.678  13.468   7.9330  0.00  0.00     0.000 C
ATOM     85  C4  BDP B   6      19.354  12.816   8.3360  0.00  0.00     0.000 C
ATOM     86  C5  BDP B   6      18.442  12.780   7.0870  0.00  0.00     0.000 C
ATOM     87  O5  BDP B   6      18.268  14.109   6.4990  0.00  0.00     0.000 O
ATOM     88   O  BDP B   6      21.693  15.220   6.6150  0.00  0.00     0.000 O
ATOM     90  HD  BDP B   6      22.544  15.070   6.6700  0.00  0.00     0.000 HD
ATOM     90   O  BDP B   6      21.511  13.686   9.0750  0.00  0.00     0.000 O
ATOM     92  HD  BDP B   6      22.362  13.536   9.1290  0.00  0.00     0.000 HD
BRANCH 86 92
ATOM     92   C  BDP B   6      17.040  12.369   7.4670  0.00  0.00     0.000 C
ATOM     93   O  BDP B   6      16.488  12.894   8.4810  0.00  0.00     0.000 OA
ATOM     94   O  BDP B   6      16.458  11.517   6.7260  0.00  0.00     0.000 OA
ENDBRANCH 86 92
BRANCH 82 95
ATOM     95  O3  NAG B   7      19.203  15.990   5.5310  0.00  0.00     0.000 O
BRANCH 95 98
ATOM     96  C1  NAG B   7      19.501  17.765   2.3530  0.00  0.00     0.000 C
ATOM     97  C2  NAG B   7      19.607  17.582   3.8610  0.00  0.00     0.000 C
ATOM     98  C3  NAG B   7      19.046  16.186   4.1260  0.00  0.00     0.000 C
ATOM     99  C4  NAG B   7      17.596  16.111   3.6540  0.00  0.00     0.000 C
ATOM    100  C5  NAG B   7      17.475  16.542   2.1910  0.00  0.00     0.000 C
ATOM    101  O5  NAG B   7      18.107  17.802   2.0290  0.00  0.00     0.000 O
BRANCH 97 104
ATOM    102   N  NAG B   7      20.967  17.563   4.4160  0.00  0.00     0.000 N
ATOM    104  HD  NAG B   7      21.695  17.306   4.8080  0.00  0.00     0.000 HD
ATOM    104   O  NAG B   7      22.665  18.180   5.7820  0.00  0.00     0.000 OA
ATOM    105   C  NAG B   7      21.503  18.354   5.3650  0.00  0.00     0.000 C
ATOM    106   C  NAG B   7      20.680  19.455   5.9400  0.00  0.00     0.000 C
ENDBRANCH 97 104
ATOM    107   O  NAG B   7      15.991  16.692   0.3800  0.00  0.00     0.000 O
ATOM    109  HD  NAG B   7      16.803  16.507   0.6170  0.00  0.00     0.000 HD
ATOM    109   O  NAG B   7      15.991  16.692   0.3800  0.00  0.00     0.000 O
ATOM    111  HD  NAG B   7      16.803  16.507   0.6170  0.00  0.00     0.000 HD
ENDBRANCH 95 98
ENDBRANCH 82 95
ENDBRANCH 81 85
ENDBRANCH 65 81
ENDBRANCH 64 67
ENDBRANCH 51 64
ENDBRANCH 50 54
ENDBRANCH 34 50
ENDBRANCH 33 36
ENDBRANCH 20 33
ENDBRANCH 19 23
ENDBRANCH 1 19
TORSDOF 19
ENDMDL
MODEL 40
REMARK VINA RESULT:      -5.6      6.686     15.575
ROOT
ATOM      1  C1  NAG B   1      17.689  17.377   4.2120  0.00  0.00     0.000 C
ATOM      2  C2  NAG B   1      18.435  16.774   3.0260  0.00  0.00     0.000 C
ATOM      3  C3  NAG B   1      19.629  15.953   3.4680  0.00  0.00     0.000 C
ATOM      4  C4  NAG B   1      20.501  16.905   4.2800  0.00  0.00     0.000 C
ATOM      5  C5  NAG B   1      19.726  17.362   5.5220  0.00  0.00     0.000 C
ATOM      6  O5  NAG B   1      18.523  18.070   5.1540  0.00  0.00     0.000 O
ATOM      7   O  NAG B   1      20.363  15.410   2.3470  0.00  0.00     0.000 O
ATOM      9  HD  NAG B   1      19.545  15.385   2.0640  0.00  0.00     0.000 HD
ATOM      9   O  NAG B   1      21.698  16.256   4.6720  0.00  0.00     0.000 O
ATOM     11  HD  NAG B   1      20.880  16.231   4.3890  0.00  0.00     0.000 HD
ATOM     11   C  NAG B   1      20.632  18.211   6.4220  0.00  0.00     0.000 C
ATOM     12   O  NAG B   1      19.875  19.159   7.1730  0.00  0.00     0.000 O
ATOM     14  HD  NAG B   1      19.057  19.134   6.8900  0.00  0.00     0.000 HD
ENDROOT
BRANCH 2 16
ATOM     14   N  NAG B   1      17.864  17.174   1.7270  0.00  0.00     0.000 N
ATOM     16  HD  NAG B   1      18.003  17.139   0.8730  0.00  0.00     0.000 HD
ATOM     16   C  NAG B   1      17.182  16.330   0.9330  0.00  0.00     0.000 C
ATOM     17   C  NAG B   1      16.995  14.894   1.3460  0.00  0.00     0.000 C
ATOM     18   O  NAG B   1      16.677  16.714  -0.1220  0.00  0.00     0.000 OA
ENDBRANCH 2 16
BRANCH 1 19
ATOM     19  O4  BDP B   2      16.870  18.370   3.6090  0.00  0.00     0.000 O
BRANCH 19 23
ATOM     20  C1  BDP B   2      14.064  18.471   6.6180  0.00  0.00     0.000 C
ATOM     21  C2  BDP B   2      13.842  17.447   5.5240  0.00  0.00     0.000 C
ATOM     22  C3  BDP B   2      15.106  17.210   4.7300  0.00  0.00     0.000 C
ATOM     23  C4  BDP B   2      15.622  18.557   4.2320  0.00  0.00     0.000 C
ATOM     24  C5  BDP B   2      15.816  19.491   5.4100  0.00  0.00     0.000 C
ATOM     25  O5  BDP B   2      14.581  19.677   6.0750  0.00  0.00     0.000 O
ATOM     26   O  BDP B   2      13.393  16.229   6.0780  0.00  0.00     0.000 O
ATOM     28  HD  BDP B   2      13.314  16.752   6.7640  0.00  0.00     0.000 HD
ATOM     28   O  BDP B   2      14.824  16.307   3.6500  0.00  0.00     0.000 O
ATOM     30  HD  BDP B   2      14.745  16.830   4.3350  0.00  0.00     0.000 HD
BRANCH 24 30
ATOM     30   C  BDP B   2      16.309  20.830   4.9920  0.00  0.00     0.000 C
ATOM     31   O  BDP B   2      15.600  21.476   4.1870  0.00  0.00     0.000 OA
ATOM     32   O  BDP B   2      17.410  21.238   5.4590  0.00  0.00     0.000 OA
ENDBRANCH 24 30
BRANCH 20 33
ATOM     33  O3  NAG B   3      12.774  18.709   7.1280  0.00  0.00     0.000 O
BRANCH 33 36
ATOM     34  C1  NAG B   3      12.157  19.488  10.7560  0.00  0.00     0.000 C
ATOM     35  C2  NAG B   3      12.335  18.644   9.5080  0.00  0.00     0.000 C
ATOM     36  C3  NAG B   3      12.815  19.495   8.3220  0.00  0.00     0.000 C
ATOM     37  C4  NAG B   3      11.888  20.697   8.1550  0.00  0.00     0.000 C
ATOM     38  C5  NAG B   3      11.714  21.420   9.4870  0.00  0.00     0.000 C
ATOM     39  O5  NAG B   3      11.225  20.519  10.4660  0.00  0.00     0.000 O
ATOM     40   O  NAG B   3      12.433  21.605   7.1850  0.00  0.00     0.000 O
ATOM     42  HD  NAG B   3      12.334  22.166   7.8380  0.00  0.00     0.000 HD
ATOM     42   C  NAG B   3      10.700  22.560   9.4420  0.00  0.00     0.000 C
ATOM     43   O  NAG B   3       9.392  22.029   9.1960  0.00  0.00     0.000 O
ATOM     45  HD  NAG B   3       9.293  22.589   9.8490  0.00  0.00     0.000 HD
BRANCH 35 47
ATOM     45   N  NAG B   3      12.051  17.217   9.4200  0.00  0.00     0.000 N
ATOM     47  HD  NAG B   3      11.534  17.692   8.9130  0.00  0.00     0.000 HD
ATOM     47   C  NAG B   3      12.993  16.296   9.4450  0.00  0.00     0.000 C
ATOM     48   C  NAG B   3      12.530  14.874   9.3230  0.00  0.00     0.000 C
ATOM     49   O  NAG B   3      14.184  16.585   9.5360  0.00  0.00     0.000 OA
ENDBRANCH 35 47
BRANCH 34 50
ATOM     50  O4  BDP B   4      11.614  18.584  11.6960  0.00  0.00     0.000 O
BRANCH 50 54
ATOM     51  C1  BDP B   4      11.367  17.744  15.6690  0.00  0.00     0.000 C
ATOM     52  C2  BDP B   4      11.120  19.206  15.3160  0.00  0.00     0.000 C
ATOM     53  C3  BDP B   4      10.869  19.308  13.8430  0.00  0.00     0.000 C
ATOM     54  C4  BDP B   4      12.052  18.665  13.0630  0.00  0.00     0.000 C
ATOM     55  C5  BDP B   4      12.400  17.276  13.5800  0.00  0.00     0.000 C
ATOM     56  O5  BDP B   4      12.529  17.291  14.9990  0.00  0.00     0.000 O
ATOM     57   O  BDP B   4       9.997  19.697  16.0170  0.00  0.00     0.000 O
ATOM     59  HD  BDP B   4      10.331  20.174  16.6580  0.00  0.00     0.000 HD
ATOM     59   O  BDP B   4      10.834  20.713  13.5190  0.00  0.00     0.000 O
ATOM     61  HD  BDP B   4      11.168  21.190  14.1600  0.00  0.00     0.000 HD
BRANCH 55 61
ATOM     61   C  BDP B   4      13.713  16.827  12.9640  0.00  0.00     0.000 C
ATOM     62   O  BDP B   4      14.579  17.705  12.7140  0.00  0.00     0.000 OA
ATOM     63   O  BDP B   4      13.876  15.590  12.7330  0.00  0.00     0.000 OA
ENDBRANCH 55 61
BRANCH 51 64
ATOM     64  O3  NAG B   5      11.540  17.673  17.0970  0.00  0.00     0.000 O
BRANCH 64 67
ATOM     65  C1  NAG B   5      10.100  15.025  19.2210  0.00  0.00     0.000 C
ATOM     66  C2  NAG B   5      10.182  16.334  18.4550  0.00  0.00     0.000 C
ATOM     67  C3  NAG B   5      11.438  16.352  17.5930  0.00  0.00     0.000 C
ATOM     68  C4  NAG B   5      12.684  16.022  18.4260  0.00  0.00     0.000 C
ATOM     69  C5  NAG B   5      12.472  14.747  19.2280  0.00  0.00     0.000 C
ATOM     70  O5  NAG B   5      11.264  14.848  19.9960  0.00  0.00     0.000 O
ATOM     71   O  NAG B   5      13.790  15.902  17.5580  0.00  0.00     0.000 O
ATOM     73  HD  NAG B   5      14.181  16.347  18.1900  0.00  0.00     0.000 HD
ATOM     73   C  NAG B   5      13.619  14.407  20.1890  0.00  0.00     0.000 C
ATOM     74   O  NAG B   5      13.725  15.433  21.1980  0.00  0.00     0.000 O
ATOM     76  HD  NAG B   5      14.116  15.878  21.8300  0.00  0.00     0.000 HD
BRANCH 66 78
ATOM     76   N  NAG B   5       8.948  17.124  18.6270  0.00  0.00     0.000 N
ATOM     78  HD  NAG B   5       9.436  16.839  17.9700  0.00  0.00     0.000 HD
ATOM     78   C  NAG B   5       8.091  17.470  17.6530  0.00  0.00     0.000 C
ATOM     79   C  NAG B   5       6.911  18.264  18.1470  0.00  0.00     0.000 C
ATOM     80   O  NAG B   5       8.265  17.163  16.4210  0.00  0.00     0.000 OA
ENDBRANCH 66 78
BRANCH 65 81
ATOM     81  O4  BDP B   6       8.945  15.022  20.0690  0.00  0.00     0.000 O
BRANCH 81 85
ATOM     82  C1  BDP B   6       5.505  12.466  20.1230  0.00  0.00     0.000 C
ATOM     83  C2  BDP B   6       6.215  12.722  21.4490  0.00  0.00     0.000 C
ATOM     84  C3  BDP B   6       7.147  13.935  21.4020  0.00  0.00     0.000 C
ATOM     85  C4  BDP B   6       8.113  13.869  20.2160  0.00  0.00     0.000 C
ATOM     86  C5  BDP B   6       7.284  13.573  18.9440  0.00  0.00     0.000 C
ATOM     87  O5  BDP B   6       6.474  12.362  19.0890  0.00  0.00     0.000 O
ATOM     88   O  BDP B   6       5.177  12.955  22.3970  0.00  0.00     0.000 O
ATOM     90  HD  BDP B   6       4.984  13.476  23.0610  0.00  0.00     0.000 HD
ATOM     90   O  BDP B   6       7.859  14.042  22.6370  0.00  0.00     0.000 O
ATOM     92  HD  BDP B   6       7.666  14.564  23.3010  0.00  0.00     0.000 HD
BRANCH 86 92
ATOM     92   C  BDP B   6       8.193  13.260  17.7800  0.00  0.00     0.000 C
ATOM     93   O  BDP B   6       8.935  12.232  17.8270  0.00  0.00     0.000 OA
ATOM     94   O  BDP B   6       8.157  14.042  16.7810  0.00  0.00     0.000 OA
ENDBRANCH 86 92
BRANCH 82 95
ATOM     95  O3  NAG B   7       4.816  11.204  20.2120  0.00  0.00     0.000 O
BRANCH 95 98
ATOM     96  C1  NAG B   7       1.449   9.974  19.5120  0.00  0.00     0.000 C
ATOM     97  C2  NAG B   7       2.734  10.138  20.3140  0.00  0.00     0.000 C
ATOM     98  C3  NAG B   7       3.638  10.998  19.4340  0.00  0.00     0.000 C
ATOM     99  C4  NAG B   7       3.895  10.290  18.1060  0.00  0.00     0.000 C
ATOM    100  C5  NAG B   7       2.579   9.909  17.4260  0.00  0.00     0.000 C
ATOM    101  O5  NAG B   7       1.773   9.198  18.3530  0.00  0.00     0.000 O
BRANCH 97 104
ATOM    102   N  NAG B   7       2.662  10.891  21.5730  0.00  0.00     0.000 N
ATOM    104  HD  NAG B   7       2.807  11.475  22.1960  0.00  0.00     0.000 HD
ATOM    104   O  NAG B   7       2.835  11.233  23.8060  0.00  0.00     0.000 OA
ATOM    105   C  NAG B   7       2.874  10.457  22.8300  0.00  0.00     0.000 C
ATOM    106   C  NAG B   7       3.176   9.015  23.0580  0.00  0.00     0.000 C
ENDBRANCH 97 104
ATOM    107   O  NAG B   7       1.651   9.036  15.4570  0.00  0.00     0.000 O
ATOM    109  HD  NAG B   7       1.554   9.624  16.0850  0.00  0.00     0.000 HD
ATOM    109   O  NAG B   7       1.651   9.036  15.4570  0.00  0.00     0.000 O
ATOM    111  HD  NAG B   7       1.554   9.624  16.0850  0.00  0.00     0.000 HD
ENDBRANCH 95 98
ENDBRANCH 82 95
ENDBRANCH 81 85
ENDBRANCH 65 81
ENDBRANCH 64 67
ENDBRANCH 51 64
ENDBRANCH 50 54
ENDBRANCH 34 50
ENDBRANCH 33 36
ENDBRANCH 20 33
ENDBRANCH 19 23
ENDBRANCH 1 19
TORSDOF 19
ENDMDL
MODEL 41
REMARK VINA RESULT:      -5.6      3.661      4.464
ROOT
ATOM      1  C1  NAG B   1      10.299   5.592  16.0830  0.00  0.00     0.000 C
ATOM      2  C2  NAG B   1       9.766   4.558  17.0710  0.00  0.00     0.000 C
ATOM      3  C3  NAG B   1       8.756   5.159  18.0260  0.00  0.00     0.000 C
ATOM      4  C4  NAG B   1       9.482   6.306  18.7210  0.00  0.00     0.000 C
ATOM      5  C5  NAG B   1       9.867   7.363  17.6770  0.00  0.00     0.000 C
ATOM      6  O5  NAG B   1      10.758   6.813  16.6840  0.00  0.00     0.000 O
ATOM      7   O  NAG B   1       8.275   4.194  18.9900  0.00  0.00     0.000 O
ATOM      9  HD  NAG B   1       8.388   3.710  18.2810  0.00  0.00     0.000 HD
ATOM      9   O  NAG B   1       8.646   6.888  19.7070  0.00  0.00     0.000 O
ATOM     11  HD  NAG B   1       8.758   6.403  18.9980  0.00  0.00     0.000 HD
ATOM     11   C  NAG B   1      10.476   8.587  18.3720  0.00  0.00     0.000 C
ATOM     12   O  NAG B   1      11.405   9.257  17.5210  0.00  0.00     0.000 O
ATOM     14  HD  NAG B   1      11.517   8.772  16.8120  0.00  0.00     0.000 HD
ENDROOT
BRANCH 2 16
ATOM     14   N  NAG B   1       9.238   3.410  16.3130  0.00  0.00     0.000 N
ATOM     16  HD  NAG B   1       9.380   2.923  15.6110  0.00  0.00     0.000 HD
ATOM     16   C  NAG B   1       9.752   2.171  16.4030  0.00  0.00     0.000 C
ATOM     17   C  NAG B   1      10.942   1.914  17.2900  0.00  0.00     0.000 C
ATOM     18   O  NAG B   1       9.253   1.227  15.7920  0.00  0.00     0.000 OA
ENDBRANCH 2 16
BRANCH 1 19
ATOM     19  O4  BDP B   2      11.454   4.962  15.5460  0.00  0.00     0.000 O
BRANCH 19 23
ATOM     20  C1  BDP B   2      11.988   7.418  12.2860  0.00  0.00     0.000 C
ATOM     21  C2  BDP B   2      10.883   6.387  12.1790  0.00  0.00     0.000 C
ATOM     22  C3  BDP B   2      10.504   5.847  13.5390  0.00  0.00     0.000 C
ATOM     23  C4  BDP B   2      11.768   5.340  14.2270  0.00  0.00     0.000 C
ATOM     24  C5  BDP B   2      12.792   6.457  14.2860  0.00  0.00     0.000 C
ATOM     25  O5  BDP B   2      13.108   6.880  12.9740  0.00  0.00     0.000 O
ATOM     26   O  BDP B   2       9.748   6.950  11.5570  0.00  0.00     0.000 O
ATOM     28  HD  BDP B   2      10.334   7.567  11.4010  0.00  0.00     0.000 HD
ATOM     28   O  BDP B   2       9.524   4.809  13.3790  0.00  0.00     0.000 O
ATOM     30  HD  BDP B   2      10.110   5.427  13.2230  0.00  0.00     0.000 HD
BRANCH 24 30
ATOM     30   C  BDP B   2      14.057   6.026  14.9370  0.00  0.00     0.000 C
ATOM     31   O  BDP B   2      14.384   6.606  15.9980  0.00  0.00     0.000 OA
ATOM     32   O  BDP B   2      14.734   5.111  14.3880  0.00  0.00     0.000 OA
ENDBRANCH 24 30
BRANCH 20 33
ATOM     33  O3  NAG B   3      12.345   7.675  10.9500  0.00  0.00     0.000 O
BRANCH 33 36
ATOM     34  C1  NAG B   3      13.655  11.142  10.3060  0.00  0.00     0.000 C
ATOM     35  C2  NAG B   3      12.645  10.055  10.6240  0.00  0.00     0.000 C
ATOM     36  C3  NAG B   3      13.335   8.702  10.8550  0.00  0.00     0.000 C
ATOM     37  C4  NAG B   3      14.254   8.395   9.6760  0.00  0.00     0.000 C
ATOM     38  C5  NAG B   3      15.166   9.585   9.3910  0.00  0.00     0.000 C
ATOM     39  O5  NAG B   3      14.386  10.745   9.1550  0.00  0.00     0.000 O
ATOM     40   O  NAG B   3      15.055   7.239   9.9650  0.00  0.00     0.000 O
ATOM     42  HD  NAG B   3      15.696   7.786   9.7660  0.00  0.00     0.000 HD
ATOM     42   C  NAG B   3      16.030   9.417   8.1440  0.00  0.00     0.000 C
ATOM     43   O  NAG B   3      15.192   9.374   6.9830  0.00  0.00     0.000 O
ATOM     45  HD  NAG B   3      15.833   9.921   6.7830  0.00  0.00     0.000 HD
BRANCH 35 47
ATOM     45   N  NAG B   3      11.843  10.418  11.7860  0.00  0.00     0.000 N
ATOM     47  HD  NAG B   3      12.533  10.932  11.6830  0.00  0.00     0.000 HD
ATOM     47   C  NAG B   3      10.526  10.362  11.7940  0.00  0.00     0.000 C
ATOM     48   C  NAG B   3       9.855  10.791  13.0650  0.00  0.00     0.000 C
ATOM     49   O  NAG B   3       9.884  10.006  10.8090  0.00  0.00     0.000 OA
ENDBRANCH 35 47
BRANCH 34 50
ATOM     50  O4  BDP B   4      12.853  12.268  10.0160  0.00  0.00     0.000 O
BRANCH 50 54
ATOM     51  C1  BDP B   4      12.918  16.251   9.1880  0.00  0.00     0.000 C
ATOM     52  C2  BDP B   4      13.298  15.355   8.0150  0.00  0.00     0.000 C
ATOM     53  C3  BDP B   4      12.878  13.952   8.3270  0.00  0.00     0.000 C
ATOM     54  C4  BDP B   4      13.501  13.507   9.6820  0.00  0.00     0.000 C
ATOM     55  C5  BDP B   4      13.270  14.528  10.7880  0.00  0.00     0.000 C
ATOM     56  O5  BDP B   4      13.625  15.834  10.3420  0.00  0.00     0.000 O
ATOM     57   O  BDP B   4      12.647  15.787   6.8390  0.00  0.00     0.000 O
ATOM     59  HD  BDP B   4      13.260  16.202   6.3890  0.00  0.00     0.000 HD
ATOM     59   O  BDP B   4      13.423  13.110   7.2900  0.00  0.00     0.000 O
ATOM     61  HD  BDP B   4      14.037  13.525   6.8410  0.00  0.00     0.000 HD
BRANCH 55 61
ATOM     61   C  BDP B   4      14.120  14.163  11.9920  0.00  0.00     0.000 C
ATOM     62   O  BDP B   4      15.360  14.372  11.9240  0.00  0.00     0.000 OA
ATOM     63   O  BDP B   4      13.543  13.668  13.0070  0.00  0.00     0.000 OA
ENDBRANCH 55 61
BRANCH 51 64
ATOM     64  O3  NAG B   5      13.275  17.600   8.8300  0.00  0.00     0.000 O
BRANCH 64 67
ATOM     65  C1  NAG B   5      11.761  20.681  10.1730  0.00  0.00     0.000 C
ATOM     66  C2  NAG B   5      11.978  19.505   9.2370  0.00  0.00     0.000 C
ATOM     67  C3  NAG B   5      12.976  18.532   9.8510  0.00  0.00     0.000 C
ATOM     68  C4  NAG B   5      14.262  19.255  10.2740  0.00  0.00     0.000 C
ATOM     69  C5  NAG B   5      13.938  20.469  11.1300  0.00  0.00     0.000 C
ATOM     70  O5  NAG B   5      12.992  21.308  10.4510  0.00  0.00     0.000 O
ATOM     71   O  NAG B   5      15.085  18.344  10.9700  0.00  0.00     0.000 O
ATOM     73  HD  NAG B   5      15.701  18.724  10.4960  0.00  0.00     0.000 HD
ATOM     73   C  NAG B   5      15.157  21.329  11.4950  0.00  0.00     0.000 C
ATOM     74   O  NAG B   5      15.726  21.894  10.2970  0.00  0.00     0.000 O
ATOM     76  HD  NAG B   5      16.343  22.275   9.8220  0.00  0.00     0.000 HD
BRANCH 66 78
ATOM     76   N  NAG B   5      10.559  19.352   8.8600  0.00  0.00     0.000 N
ATOM     78  HD  NAG B   5      11.333  19.179   8.5120  0.00  0.00     0.000 HD
ATOM     78   C  NAG B   5      10.091  18.643   7.8200  0.00  0.00     0.000 C
ATOM     79   C  NAG B   5       8.591  18.664   7.7080  0.00  0.00     0.000 C
ATOM     80   O  NAG B   5      10.850  18.017   6.9980  0.00  0.00     0.000 OA
ENDBRANCH 66 78
BRANCH 65 81
ATOM     81  O4  BDP B   6      10.857  21.623   9.5800  0.00  0.00     0.000 O
BRANCH 81 85
ATOM     82  C1  BDP B   6       7.975  24.528  10.8510  0.00  0.00     0.000 C
ATOM     83  C2  BDP B   6       9.384  25.023  10.5370  0.00  0.00     0.000 C
ATOM     84  C3  BDP B   6      10.200  24.018   9.7190  0.00  0.00     0.000 C
ATOM     85  C4  BDP B   6      10.188  22.624  10.3500  0.00  0.00     0.000 C
ATOM     86  C5  BDP B   6       8.717  22.251  10.6520  0.00  0.00     0.000 C
ATOM     87  O5  BDP B   6       8.058  23.259  11.4830  0.00  0.00     0.000 O
ATOM     88   O  BDP B   6       9.208  26.220   9.7830  0.00  0.00     0.000 O
ATOM     90  HD  BDP B   6       9.534  26.626   9.0910  0.00  0.00     0.000 HD
ATOM     90   O  BDP B   6      11.537  24.499   9.5640  0.00  0.00     0.000 O
ATOM     92  HD  BDP B   6      11.863  24.905   8.8720  0.00  0.00     0.000 HD
BRANCH 86 92
ATOM     92   C  BDP B   6       8.650  20.996  11.4880  0.00  0.00     0.000 C
ATOM     93   O  BDP B   6       8.281  19.907  10.9520  0.00  0.00     0.000 OA
ATOM     94   O  BDP B   6       8.994  21.085  12.7080  0.00  0.00     0.000 OA
ENDBRANCH 86 92
BRANCH 82 95
ATOM     95  O3  NAG B   7       7.368  25.447  11.7800  0.00  0.00     0.000 O
BRANCH 95 98
ATOM     96  C1  NAG B   7       4.384  27.538  12.0380  0.00  0.00     0.000 C
ATOM     97  C2  NAG B   7       5.844  27.161  12.2540  0.00  0.00     0.000 C
ATOM     98  C3  NAG B   7       5.987  25.773  11.6340  0.00  0.00     0.000 C
ATOM     99  C4  NAG B   7       5.047  24.793  12.3330  0.00  0.00     0.000 C
ATOM    100  C5  NAG B   7       3.609  25.313  12.3220  0.00  0.00     0.000 C
ATOM    101  O5  NAG B   7       3.596  26.640  12.8270  0.00  0.00     0.000 O
BRANCH 97 104
ATOM    102   N  NAG B   7       6.877  27.940  11.5580  0.00  0.00     0.000 N
ATOM    104  HD  NAG B   7       7.559  28.158  11.0710  0.00  0.00     0.000 HD
ATOM    104   O  NAG B   7       8.664  29.319  11.3610  0.00  0.00     0.000 OA
ATOM    105   C  NAG B   7       7.805  28.766  12.0770  0.00  0.00     0.000 C
ATOM    106   C  NAG B   7       7.814  29.014  13.5470  0.00  0.00     0.000 C
ENDBRANCH 97 104
ATOM    107   O  NAG B   7       1.391  24.752  12.8400  0.00  0.00     0.000 O
ATOM    109  HD  NAG B   7       1.905  25.155  12.2720  0.00  0.00     0.000 HD
ATOM    109   O  NAG B   7       1.391  24.752  12.8400  0.00  0.00     0.000 O
ATOM    111  HD  NAG B   7       1.905  25.155  12.2720  0.00  0.00     0.000 HD
ENDBRANCH 95 98
ENDBRANCH 82 95
ENDBRANCH 81 85
ENDBRANCH 65 81
ENDBRANCH 64 67
ENDBRANCH 51 64
ENDBRANCH 50 54
ENDBRANCH 34 50
ENDBRANCH 33 36
ENDBRANCH 20 33
ENDBRANCH 19 23
ENDBRANCH 1 19
TORSDOF 19
ENDMDL
MODEL 42
REMARK VINA RESULT:      -5.6      6.311     19.802
ROOT
ATOM      1  C1  NAG B   1      13.657  12.647   7.8420  0.00  0.00     0.000 C
ATOM      2  C2  NAG B   1      13.995  14.127   7.6820  0.00  0.00     0.000 C
ATOM      3  C3  NAG B   1      15.139  14.344   6.7130  0.00  0.00     0.000 C
ATOM      4  C4  NAG B   1      16.307  13.538   7.2730  0.00  0.00     0.000 C
ATOM      5  C5  NAG B   1      15.935  12.049   7.2770  0.00  0.00     0.000 C
ATOM      6  O5  NAG B   1      14.786  11.802   8.1140  0.00  0.00     0.000 O
ATOM      7   O  NAG B   1      15.490  15.741   6.5870  0.00  0.00     0.000 O
ATOM      9  HD  NAG B   1      14.632  15.773   6.6970  0.00  0.00     0.000 HD
ATOM      9   O  NAG B   1      17.465  13.742   6.4810  0.00  0.00     0.000 O
ATOM     11  HD  NAG B   1      16.607  13.774   6.5920  0.00  0.00     0.000 HD
ATOM     11   C  NAG B   1      17.144  11.209   7.7070  0.00  0.00     0.000 C
ATOM     12   O  NAG B   1      16.733  10.001   8.3450  0.00  0.00     0.000 O
ATOM     14  HD  NAG B   1      15.875  10.033   8.4560  0.00  0.00     0.000 HD
ENDROOT
BRANCH 2 16
ATOM     14   N  NAG B   1      12.737  14.812   7.3350  0.00  0.00     0.000 N
ATOM     16  HD  NAG B   1      11.893  14.841   7.5260  0.00  0.00     0.000 HD
ATOM     16   C  NAG B   1      12.212  15.804   8.0750  0.00  0.00     0.000 C
ATOM     17   C  NAG B   1      12.901  16.244   9.3400  0.00  0.00     0.000 C
ATOM     18   O  NAG B   1      11.185  16.385   7.7270  0.00  0.00     0.000 OA
ENDBRANCH 2 16
BRANCH 1 19
ATOM     19  O4  BDP B   2      12.857  12.623   9.0160  0.00  0.00     0.000 O
BRANCH 19 23
ATOM     20  C1  BDP B   2      12.768  10.374  12.4620  0.00  0.00     0.000 C
ATOM     21  C2  BDP B   2      13.820  11.462  12.3950  0.00  0.00     0.000 C
ATOM     22  C3  BDP B   2      13.500  12.468  11.3130  0.00  0.00     0.000 C
ATOM     23  C4  BDP B   2      13.291  11.716  10.0010  0.00  0.00     0.000 C
ATOM     24  C5  BDP B   2      12.213  10.667  10.1870  0.00  0.00     0.000 C
ATOM     25  O5  BDP B   2      12.608   9.755  11.1940  0.00  0.00     0.000 O
ATOM     26   O  BDP B   2      13.925  12.119  13.6400  0.00  0.00     0.000 O
ATOM     28  HD  BDP B   2      13.438  11.438  13.8620  0.00  0.00     0.000 HD
ATOM     28   O  BDP B   2      14.569  13.423  11.2230  0.00  0.00     0.000 O
ATOM     30  HD  BDP B   2      14.081  12.743  11.4450  0.00  0.00     0.000 HD
BRANCH 24 30
ATOM     30   C  BDP B   2      11.966   9.888   8.9450  0.00  0.00     0.000 C
ATOM     31   O  BDP B   2      11.059  10.295   8.1830  0.00  0.00     0.000 OA
ATOM     32   O  BDP B   2      12.672   8.862   8.7300  0.00  0.00     0.000 OA
ENDBRANCH 24 30
BRANCH 20 33
ATOM     33  O3  NAG B   3      13.302   9.440  13.3690  0.00  0.00     0.000 O
BRANCH 33 36
ATOM     34  C1  NAG B   3      11.219   6.723  14.9280  0.00  0.00     0.000 C
ATOM     35  C2  NAG B   3      11.868   8.085  14.7730  0.00  0.00     0.000 C
ATOM     36  C3  NAG B   3      12.536   8.233  13.3970  0.00  0.00     0.000 C
ATOM     37  C4  NAG B   3      13.469   7.049  13.1580  0.00  0.00     0.000 C
ATOM     38  C5  NAG B   3      12.738   5.736  13.4240  0.00  0.00     0.000 C
ATOM     39  O5  NAG B   3      12.218   5.731  14.7430  0.00  0.00     0.000 O
ATOM     40   O  NAG B   3      13.945   7.065  11.8030  0.00  0.00     0.000 O
ATOM     42  HD  NAG B   3      13.629   6.259  11.8130  0.00  0.00     0.000 HD
ATOM     42   C  NAG B   3      13.632   4.502  13.3350  0.00  0.00     0.000 C
ATOM     43   O  NAG B   3      14.607   4.541  14.3850  0.00  0.00     0.000 O
ATOM     45  HD  NAG B   3      14.291   3.735  14.3950  0.00  0.00     0.000 HD
BRANCH 35 47
ATOM     45   N  NAG B   3      11.886   9.105  15.8140  0.00  0.00     0.000 N
ATOM     47  HD  NAG B   3      12.676   8.801  15.6310  0.00  0.00     0.000 HD
ATOM     47   C  NAG B   3      11.102  10.165  15.7920  0.00  0.00     0.000 C
ATOM     48   C  NAG B   3      11.262  11.128  16.9310  0.00  0.00     0.000 C
ATOM     49   O  NAG B   3      10.305  10.367  14.8790  0.00  0.00     0.000 OA
ENDBRANCH 35 47
BRANCH 34 50
ATOM     50  O4  BDP B   4      10.764   6.720  16.2650  0.00  0.00     0.000 O
BRANCH 50 54
ATOM     51  C1  BDP B   4       8.026   4.882  18.6470  0.00  0.00     0.000 C
ATOM     52  C2  BDP B   4       8.489   4.048  17.4580  0.00  0.00     0.000 C
ATOM     53  C3  BDP B   4       9.735   4.664  16.8970  0.00  0.00     0.000 C
ATOM     54  C4  BDP B   4       9.473   6.158  16.5520  0.00  0.00     0.000 C
ATOM     55  C5  BDP B   4       8.822   6.913  17.7030  0.00  0.00     0.000 C
ATOM     56  O5  BDP B   4       7.703   6.188  18.2050  0.00  0.00     0.000 O
ATOM     57   O  BDP B   4       8.764   2.725  17.8640  0.00  0.00     0.000 O
ATOM     59  HD  BDP B   4       8.081   2.267  17.5920  0.00  0.00     0.000 HD
ATOM     59   O  BDP B   4      10.030   3.969  15.6690  0.00  0.00     0.000 O
ATOM     61  HD  BDP B   4       9.347   3.511  15.3960  0.00  0.00     0.000 HD
BRANCH 55 61
ATOM     61   C  BDP B   4       8.356   8.272  17.2110  0.00  0.00     0.000 C
ATOM     62   O  BDP B   4       8.452   9.250  17.9980  0.00  0.00     0.000 OA
ATOM     63   O  BDP B   4       7.896   8.358  16.0320  0.00  0.00     0.000 OA
ENDBRANCH 55 61
BRANCH 51 64
ATOM     64  O3  NAG B   5       6.867   4.229  19.2000  0.00  0.00     0.000 O
BRANCH 64 67
ATOM     65  C1  NAG B   5       6.225   3.724  22.7960  0.00  0.00     0.000 C
ATOM     66  C2  NAG B   5       6.736   3.428  21.3960  0.00  0.00     0.000 C
ATOM     67  C3  NAG B   5       6.575   4.661  20.5150  0.00  0.00     0.000 C
ATOM     68  C4  NAG B   5       5.137   5.193  20.5700  0.00  0.00     0.000 C
ATOM     69  C5  NAG B   5       4.683   5.369  22.0110  0.00  0.00     0.000 C
ATOM     70  O5  NAG B   5       4.883   4.148  22.7380  0.00  0.00     0.000 O
ATOM     71   O  NAG B   5       5.080   6.414  19.8640  0.00  0.00     0.000 O
ATOM     73  HD  NAG B   5       4.339   6.072  19.5720  0.00  0.00     0.000 HD
ATOM     73   C  NAG B   5       3.212   5.778  22.1650  0.00  0.00     0.000 C
ATOM     74   O  NAG B   5       2.362   4.726  21.6630  0.00  0.00     0.000 O
ATOM     76  HD  NAG B   5       1.622   4.384  21.3710  0.00  0.00     0.000 HD
BRANCH 66 78
ATOM     76   N  NAG B   5       8.107   2.943  21.6430  0.00  0.00     0.000 N
ATOM     78  HD  NAG B   5       7.395   2.662  21.2380  0.00  0.00     0.000 HD
ATOM     78   C  NAG B   5       8.688   1.886  21.0550  0.00  0.00     0.000 C
ATOM     79   C  NAG B   5      10.106   1.654  21.5030  0.00  0.00     0.000 C
ATOM     80   O  NAG B   5       8.090   1.140  20.2000  0.00  0.00     0.000 OA
ENDBRANCH 66 78
BRANCH 65 81
ATOM     81  O4  BDP B   6       6.332   2.553  23.6160  0.00  0.00     0.000 O
BRANCH 81 85
ATOM     82  C1  BDP B   6       6.396   1.466  27.7610  0.00  0.00     0.000 C
ATOM     83  C2  BDP B   6       5.033   1.661  27.1040  0.00  0.00     0.000 C
ATOM     84  C3  BDP B   6       5.100   1.639  25.5750  0.00  0.00     0.000 C
ATOM     85  C4  BDP B   6       6.161   2.601  25.0350  0.00  0.00     0.000 C
ATOM     86  C5  BDP B   6       7.480   2.331  25.7970  0.00  0.00     0.000 C
ATOM     87  O5  BDP B   6       7.303   2.431  27.2470  0.00  0.00     0.000 O
ATOM     88   O  BDP B   6       4.231   0.575  27.5620  0.00  0.00     0.000 O
ATOM     90  HD  BDP B   6       3.648   0.006  27.2680  0.00  0.00     0.000 HD
ATOM     90   O  BDP B   6       3.812   1.941  25.0330  0.00  0.00     0.000 O
ATOM     92  HD  BDP B   6       3.229   1.372  24.7400  0.00  0.00     0.000 HD
BRANCH 86 92
ATOM     92   C  BDP B   6       8.500   3.398  25.4850  0.00  0.00     0.000 C
ATOM     93   O  BDP B   6       9.329   3.213  24.5430  0.00  0.00     0.000 OA
ATOM     94   O  BDP B   6       8.467   4.462  26.1780  0.00  0.00     0.000 OA
ENDBRANCH 86 92
BRANCH 82 95
ATOM     95  O3  NAG B   7       6.256   1.700  29.1760  0.00  0.00     0.000 O
BRANCH 95 98
ATOM     96  C1  NAG B   7       6.924  -0.135  32.2620  0.00  0.00     0.000 C
ATOM     97  C2  NAG B   7       6.129   0.753  31.3140  0.00  0.00     0.000 C
ATOM     98  C3  NAG B   7       7.026   0.921  30.0890  0.00  0.00     0.000 C
ATOM     99  C4  NAG B   7       8.344   1.576  30.4970  0.00  0.00     0.000 C
ATOM    100  C5  NAG B   7       9.012   0.799  31.6320  0.00  0.00     0.000 C
ATOM    101  O5  NAG B   7       8.071   0.613  32.6790  0.00  0.00     0.000 O
BRANCH 97 104
ATOM    102   N  NAG B   7       4.881   0.213  30.7570  0.00  0.00     0.000 N
ATOM    104  HD  NAG B   7       4.269  -0.047  30.2030  0.00  0.00     0.000 HD
ATOM    104   O  NAG B   7       2.656   0.117  30.3480  0.00  0.00     0.000 OA
ATOM    105   C  NAG B   7       3.619   0.644  30.9390  0.00  0.00     0.000 C
ATOM    106   C  NAG B   7       3.370   1.789  31.8600  0.00  0.00     0.000 C
ENDBRANCH 97 104
ATOM    107   O  NAG B   7      10.964   0.642  32.9240  0.00  0.00     0.000 O
ATOM    109  HD  NAG B   7      10.345   0.192  32.5190  0.00  0.00     0.000 HD
ATOM    109   O  NAG B   7      10.964   0.642  32.9240  0.00  0.00     0.000 O
ATOM    111  HD  NAG B   7      10.345   0.192  32.5190  0.00  0.00     0.000 HD
ENDBRANCH 95 98
ENDBRANCH 82 95
ENDBRANCH 81 85
ENDBRANCH 65 81
ENDBRANCH 64 67
ENDBRANCH 51 64
ENDBRANCH 50 54
ENDBRANCH 34 50
ENDBRANCH 33 36
ENDBRANCH 20 33
ENDBRANCH 19 23
ENDBRANCH 1 19
TORSDOF 19
ENDMDL
MODEL 43
REMARK VINA RESULT:      -5.6      2.345      3.831
ROOT
ATOM      1  C1  NAG B   1       9.167   3.835  17.8130  0.00  0.00     0.000 C
ATOM      2  C2  NAG B   1       8.180   2.879  18.4770  0.00  0.00     0.000 C
ATOM      3  C3  NAG B   1       7.078   3.621  19.2050  0.00  0.00     0.000 C
ATOM      4  C4  NAG B   1       7.788   4.518  20.2150  0.00  0.00     0.000 C
ATOM      5  C5  NAG B   1       8.656   5.534  19.4620  0.00  0.00     0.000 C
ATOM      6  O5  NAG B   1       9.667   4.871  18.6730  0.00  0.00     0.000 O
ATOM      7   O  NAG B   1       6.161   2.722  19.8700  0.00  0.00     0.000 O
ATOM      9  HD  NAG B   1       6.373   2.279  19.1570  0.00  0.00     0.000 HD
ATOM      9   O  NAG B   1       6.837   5.199  21.0160  0.00  0.00     0.000 O
ATOM     11  HD  NAG B   1       7.049   4.756  20.3030  0.00  0.00     0.000 HD
ATOM     11   C  NAG B   1       9.271   6.532  20.4510  0.00  0.00     0.000 C
ATOM     12   O  NAG B   1      10.518   7.034  19.9720  0.00  0.00     0.000 O
ATOM     14  HD  NAG B   1      10.730   6.591  19.2590  0.00  0.00     0.000 HD
ENDROOT
BRANCH 2 16
ATOM     14   N  NAG B   1       7.585   1.925  17.5240  0.00  0.00     0.000 N
ATOM     16  HD  NAG B   1       7.742   1.499  16.7860  0.00  0.00     0.000 HD
ATOM     16   C  NAG B   1       7.885   0.614  17.5130  0.00  0.00     0.000 C
ATOM     17   C  NAG B   1       8.891   0.065  18.4890  0.00  0.00     0.000 C
ATOM     18   O  NAG B   1       7.330  -0.161  16.7340  0.00  0.00     0.000 OA
ENDBRANCH 2 16
BRANCH 1 19
ATOM     19  O4  BDP B   2      10.278   3.000  17.5180  0.00  0.00     0.000 O
BRANCH 19 23
ATOM     20  C1  BDP B   2      11.747   5.429  14.5370  0.00  0.00     0.000 C
ATOM     21  C2  BDP B   2      10.825   4.309  14.1000  0.00  0.00     0.000 C
ATOM     22  C3  BDP B   2      10.032   3.766  15.2670  0.00  0.00     0.000 C
ATOM     23  C4  BDP B   2      11.007   3.377  16.3750  0.00  0.00     0.000 C
ATOM     24  C5  BDP B   2      11.864   4.575  16.7350  0.00  0.00     0.000 C
ATOM     25  O5  BDP B   2      12.590   4.997  15.5960  0.00  0.00     0.000 O
ATOM     26   O  BDP B   2       9.943   4.765  13.0970  0.00  0.00     0.000 O
ATOM     28  HD  BDP B   2      10.503   5.425  13.1260  0.00  0.00     0.000 HD
ATOM     28   O  BDP B   2       9.245   2.649  14.8250  0.00  0.00     0.000 O
ATOM     30  HD  BDP B   2       9.804   3.309  14.8540  0.00  0.00     0.000 HD
BRANCH 24 30
ATOM     30   C  BDP B   2      12.848   4.261  17.8040  0.00  0.00     0.000 C
ATOM     31   O  BDP B   2      13.673   3.347  17.5750  0.00  0.00     0.000 OA
ATOM     32   O  BDP B   2      12.795   4.920  18.8820  0.00  0.00     0.000 OA
ENDBRANCH 24 30
BRANCH 20 33
ATOM     33  O3  NAG B   3      12.531   5.688  13.3980  0.00  0.00     0.000 O
BRANCH 33 36
ATOM     34  C1  NAG B   3      14.332   8.984  13.1850  0.00  0.00     0.000 C
ATOM     35  C2  NAG B   3      13.178   8.003  13.1060  0.00  0.00     0.000 C
ATOM     36  C3  NAG B   3      13.570   6.631  13.6750  0.00  0.00     0.000 C
ATOM     37  C4  NAG B   3      14.858   6.156  13.0070  0.00  0.00     0.000 C
ATOM     38  C5  NAG B   3      15.921   7.250  13.0700  0.00  0.00     0.000 C
ATOM     39  O5  NAG B   3      15.430   8.436  12.4690  0.00  0.00     0.000 O
ATOM     40   O  NAG B   3      15.347   4.977  13.6660  0.00  0.00     0.000 O
ATOM     42  HD  NAG B   3      16.064   5.458  13.7260  0.00  0.00     0.000 HD
ATOM     42   C  NAG B   3      17.202   6.911  12.3120  0.00  0.00     0.000 C
ATOM     43   O  NAG B   3      16.919   6.823  10.9100  0.00  0.00     0.000 O
ATOM     45  HD  NAG B   3      17.637   7.304  10.9700  0.00  0.00     0.000 HD
BRANCH 35 47
ATOM     45   N  NAG B   3      11.862   8.253  12.5310  0.00  0.00     0.000 N
ATOM     47  HD  NAG B   3      12.286   7.615  12.1280  0.00  0.00     0.000 HD
ATOM     47   C  NAG B   3      10.808   8.561  13.2600  0.00  0.00     0.000 C
ATOM     48   C  NAG B   3       9.524   8.766  12.5120  0.00  0.00     0.000 C
ATOM     49   O  NAG B   3      10.866   8.648  14.4850  0.00  0.00     0.000 OA
ENDBRANCH 35 47
BRANCH 34 50
ATOM     50  O4  BDP B   4      13.840  10.133  12.5270  0.00  0.00     0.000 O
BRANCH 50 54
ATOM     51  C1  BDP B   4      13.635  14.194  12.6550  0.00  0.00     0.000 C
ATOM     52  C2  BDP B   4      15.001  13.642  12.2610  0.00  0.00     0.000 C
ATOM     53  C3  BDP B   4      14.846  12.199  11.8910  0.00  0.00     0.000 C
ATOM     54  C4  BDP B   4      14.171  11.426  13.0600  0.00  0.00     0.000 C
ATOM     55  C5  BDP B   4      12.911  12.119  13.5610  0.00  0.00     0.000 C
ATOM     56  O5  BDP B   4      13.163  13.502  13.7970  0.00  0.00     0.000 O
ATOM     57   O  BDP B   4      15.518  14.356  11.1580  0.00  0.00     0.000 O
ATOM     59  HD  BDP B   4      16.114  14.883  11.4990  0.00  0.00     0.000 HD
ATOM     59   O  BDP B   4      16.175  11.666  11.7140  0.00  0.00     0.000 O
ATOM     61  HD  BDP B   4      16.771  12.194  12.0550  0.00  0.00     0.000 HD
BRANCH 55 61
ATOM     61   C  BDP B   4      12.462  11.466  14.8560  0.00  0.00     0.000 C
ATOM     62   O  BDP B   4      13.252  10.662  15.4170  0.00  0.00     0.000 OA
ATOM     63   O  BDP B   4      11.315  11.762  15.3120  0.00  0.00     0.000 OA
ENDBRANCH 55 61
BRANCH 51 64
ATOM     64  O3  NAG B   5      13.808  15.595  12.9430  0.00  0.00     0.000 O
BRANCH 64 67
ATOM     65  C1  NAG B   5      11.549  18.267  11.7810  0.00  0.00     0.000 C
ATOM     66  C2  NAG B   5      12.712  17.291  11.7590  0.00  0.00     0.000 C
ATOM     67  C3  NAG B   5      12.588  16.310  12.9170  0.00  0.00     0.000 C
ATOM     68  C4  NAG B   5      12.401  17.050  14.2490  0.00  0.00     0.000 C
ATOM     69  C5  NAG B   5      11.277  18.068  14.1450  0.00  0.00     0.000 C
ATOM     70  O5  NAG B   5      11.503  18.933  13.0220  0.00  0.00     0.000 O
ATOM     71   O  NAG B   5      12.139  16.101  15.2600  0.00  0.00     0.000 O
ATOM     73  HD  NAG B   5      12.683  16.605  15.7070  0.00  0.00     0.000 HD
ATOM     73   C  NAG B   5      11.102  18.946  15.3920  0.00  0.00     0.000 C
ATOM     74   O  NAG B   5      12.281  19.754  15.5840  0.00  0.00     0.000 O
ATOM     76  HD  NAG B   5      12.825  20.259  16.0310  0.00  0.00     0.000 HD
BRANCH 66 78
ATOM     76   N  NAG B   5      12.684  16.608  10.4510  0.00  0.00     0.000 N
ATOM     78  HD  NAG B   5      13.205  17.157  10.8720  0.00  0.00     0.000 HD
ATOM     78   C  NAG B   5      13.699  16.539   9.5750  0.00  0.00     0.000 C
ATOM     79   C  NAG B   5      13.368  15.753   8.3350  0.00  0.00     0.000 C
ATOM     80   O  NAG B   5      14.837  17.097   9.7710  0.00  0.00     0.000 OA
ENDBRANCH 66 78
BRANCH 65 81
ATOM     81  O4  BDP B   6      11.686  19.222  10.7200  0.00  0.00     0.000 O
BRANCH 81 85
ATOM     82  C1  BDP B   6       9.168  21.649   8.2440  0.00  0.00     0.000 C
ATOM     83  C2  BDP B   6       8.703  21.379   9.6720  0.00  0.00     0.000 C
ATOM     84  C3  BDP B   6       9.828  20.869  10.5780  0.00  0.00     0.000 C
ATOM     85  C4  BDP B   6      10.566  19.680   9.9600  0.00  0.00     0.000 C
ATOM     86  C5  BDP B   6      10.952  20.061   8.5110  0.00  0.00     0.000 C
ATOM     87  O5  BDP B   6       9.789  20.481   7.7280  0.00  0.00     0.000 O
ATOM     88   O  BDP B   6       8.227  22.630  10.1610  0.00  0.00     0.000 O
ATOM     90  HD  BDP B   6       8.249  23.119  10.8750  0.00  0.00     0.000 HD
ATOM     90   O  BDP B   6       9.295  20.531  11.8610  0.00  0.00     0.000 O
ATOM     92  HD  BDP B   6       9.317  21.020  12.5750  0.00  0.00     0.000 HD
BRANCH 86 92
ATOM     92   C  BDP B   6      11.471  18.855   7.7660  0.00  0.00     0.000 C
ATOM     93   O  BDP B   6      10.751  17.814   7.6850  0.00  0.00     0.000 OA
ATOM     94   O  BDP B   6      12.616  18.948   7.2250  0.00  0.00     0.000 OA
ENDBRANCH 86 92
BRANCH 82 95
ATOM     95  O3  NAG B   7       8.008  21.929   7.4350  0.00  0.00     0.000 O
BRANCH 95 98
ATOM     96  C1  NAG B   7       6.811  24.606   5.2590  0.00  0.00     0.000 C
ATOM     97  C2  NAG B   7       6.698  23.510   6.3100  0.00  0.00     0.000 C
ATOM     98  C3  NAG B   7       8.100  22.912   6.4050  0.00  0.00     0.000 C
ATOM     99  C4  NAG B   7       8.515  22.345   5.0500  0.00  0.00     0.000 C
ATOM    100  C5  NAG B   7       8.384  23.402   3.9520  0.00  0.00     0.000 C
ATOM    101  O5  NAG B   7       7.082  23.964   4.0080  0.00  0.00     0.000 O
BRANCH 97 104
ATOM    102   N  NAG B   7       6.368  23.961   7.6690  0.00  0.00     0.000 N
ATOM    104  HD  NAG B   7       6.414  24.132   8.5170  0.00  0.00     0.000 HD
ATOM    104   O  NAG B   7       5.230  24.007   9.6270  0.00  0.00     0.000 OA
ATOM    105   C  NAG B   7       5.351  23.576   8.4630  0.00  0.00     0.000 C
ATOM    106   C  NAG B   7       4.353  22.599   7.9410  0.00  0.00     0.000 C
ENDBRANCH 97 104
ATOM    107   O  NAG B   7       8.829  23.848   1.6930  0.00  0.00     0.000 O
ATOM    109  HD  NAG B   7       8.821  24.181   2.4920  0.00  0.00     0.000 HD
ATOM    109   O  NAG B   7       8.829  23.848   1.6930  0.00  0.00     0.000 O
ATOM    111  HD  NAG B   7       8.821  24.181   2.4920  0.00  0.00     0.000 HD
ENDBRANCH 95 98
ENDBRANCH 82 95
ENDBRANCH 81 85
ENDBRANCH 65 81
ENDBRANCH 64 67
ENDBRANCH 51 64
ENDBRANCH 50 54
ENDBRANCH 34 50
ENDBRANCH 33 36
ENDBRANCH 20 33
ENDBRANCH 19 23
ENDBRANCH 1 19
TORSDOF 19
ENDMDL
MODEL 44
REMARK VINA RESULT:      -5.6      5.912      8.423
ROOT
ATOM      1  C1  NAG B   1      10.291   9.246  14.4430  0.00  0.00     0.000 C
ATOM      2  C2  NAG B   1       9.661  10.153  15.4970  0.00  0.00     0.000 C
ATOM      3  C3  NAG B   1       8.336   9.609  15.9900  0.00  0.00     0.000 C
ATOM      4  C4  NAG B   1       7.464   9.470  14.7470  0.00  0.00     0.000 C
ATOM      5  C5  NAG B   1       8.098   8.444  13.8000  0.00  0.00     0.000 C
ATOM      6  O5  NAG B   1       9.409   8.871  13.3730  0.00  0.00     0.000 O
ATOM      7   O  NAG B   1       7.716  10.483  16.9610  0.00  0.00     0.000 O
ATOM      9  HD  NAG B   1       8.559  10.578  17.1360  0.00  0.00     0.000 HD
ATOM      9   O  NAG B   1       6.160   9.047  15.1110  0.00  0.00     0.000 O
ATOM     11  HD  NAG B   1       7.003   9.142  15.2860  0.00  0.00     0.000 HD
ATOM     11   C  NAG B   1       7.168   8.187  12.6080  0.00  0.00     0.000 C
ATOM     12   O  NAG B   1       7.906   7.814  11.4460  0.00  0.00     0.000 O
ATOM     14  HD  NAG B   1       8.749   7.909  11.6210  0.00  0.00     0.000 HD
ENDROOT
BRANCH 2 16
ATOM     14   N  NAG B   1      10.682  10.362  16.5390  0.00  0.00     0.000 N
ATOM     16  HD  NAG B   1      11.527  10.511  16.6570  0.00  0.00     0.000 HD
ATOM     16   C  NAG B   1      11.146  11.577  16.8800  0.00  0.00     0.000 C
ATOM     17   C  NAG B   1      10.641  12.802  16.1640  0.00  0.00     0.000 C
ATOM     18   O  NAG B   1      11.962  11.717  17.7900  0.00  0.00     0.000 OA
ENDBRANCH 2 16
BRANCH 1 19
ATOM     19  O4  BDP B   2      11.287  10.073  13.8570  0.00  0.00     0.000 O
BRANCH 19 23
ATOM     20  C1  BDP B   2      13.515   9.974  10.3980  0.00  0.00     0.000 C
ATOM     21  C2  BDP B   2      12.099  10.495  10.2710  0.00  0.00     0.000 C
ATOM     22  C3  BDP B   2      11.533  10.878  11.6200  0.00  0.00     0.000 C
ATOM     23  C4  BDP B   2      11.681   9.687  12.5620  0.00  0.00     0.000 C
ATOM     24  C5  BDP B   2      13.136   9.265  12.6170  0.00  0.00     0.000 C
ATOM     25  O5  BDP B   2      13.571   8.896  11.3220  0.00  0.00     0.000 O
ATOM     26   O  BDP B   2      12.062  11.609   9.4060  0.00  0.00     0.000 O
ATOM     28  HD  BDP B   2      12.864  11.318   9.2540  0.00  0.00     0.000 HD
ATOM     28   O  BDP B   2      10.162  11.275  11.4630  0.00  0.00     0.000 O
ATOM     30  HD  BDP B   2      10.964  10.985  11.3110  0.00  0.00     0.000 HD
BRANCH 24 30
ATOM     30   C  BDP B   2      13.349   8.097  13.5120  0.00  0.00     0.000 C
ATOM     31   O  BDP B   2      12.718   7.048  13.2470  0.00  0.00     0.000 OA
ATOM     32   O  BDP B   2      14.141   8.224  14.4880  0.00  0.00     0.000 OA
ENDBRANCH 24 30
BRANCH 20 33
ATOM     33  O3  NAG B   3      13.819   9.496   9.1100  0.00  0.00     0.000 O
BRANCH 33 36
ATOM     34  C1  NAG B   3      17.092  10.146   7.3750  0.00  0.00     0.000 C
ATOM     35  C2  NAG B   3      15.647  10.363   7.7810  0.00  0.00     0.000 C
ATOM     36  C3  NAG B   3      15.229   9.398   8.9010  0.00  0.00     0.000 C
ATOM     37  C4  NAG B   3      15.570   7.968   8.4880  0.00  0.00     0.000 C
ATOM     38  C5  NAG B   3      17.020   7.883   8.0190  0.00  0.00     0.000 C
ATOM     39  O5  NAG B   3      17.239   8.797   6.9580  0.00  0.00     0.000 O
ATOM     40   O  NAG B   3      15.374   7.077   9.5970  0.00  0.00     0.000 O
ATOM     42  HD  NAG B   3      16.193   6.866   9.4130  0.00  0.00     0.000 HD
ATOM     42   C  NAG B   3      17.410   6.516   7.4640  0.00  0.00     0.000 C
ATOM     43   O  NAG B   3      16.673   6.258   6.2630  0.00  0.00     0.000 O
ATOM     45  HD  NAG B   3      17.493   6.047   6.0790  0.00  0.00     0.000 HD
BRANCH 35 47
ATOM     45   N  NAG B   3      14.787  11.353   7.1450  0.00  0.00     0.000 N
ATOM     47  HD  NAG B   3      14.544  10.540   6.9720  0.00  0.00     0.000 HD
ATOM     47   C  NAG B   3      14.444  12.485   7.7280  0.00  0.00     0.000 C
ATOM     48   C  NAG B   3      13.536  13.384   6.9420  0.00  0.00     0.000 C
ATOM     49   O  NAG B   3      14.824  12.776   8.8600  0.00  0.00     0.000 OA
ENDBRANCH 35 47
BRANCH 34 50
ATOM     50  O4  BDP B   4      17.267  11.022   6.2810  0.00  0.00     0.000 O
BRANCH 50 54
ATOM     51  C1  BDP B   4      19.934  13.379   4.3100  0.00  0.00     0.000 C
ATOM     52  C2  BDP B   4      20.172  11.882   4.1460  0.00  0.00     0.000 C
ATOM     53  C3  BDP B   4      18.942  11.150   4.5880  0.00  0.00     0.000 C
ATOM     54  C4  BDP B   4      18.574  11.571   6.0400  0.00  0.00     0.000 C
ATOM     55  C5  BDP B   4      18.541  13.083   6.2140  0.00  0.00     0.000 C
ATOM     56  O5  BDP B   4      19.724  13.672   5.6800  0.00  0.00     0.000 O
ATOM     57   O  BDP B   4      20.440  11.574   2.7950  0.00  0.00     0.000 O
ATOM     59  HD  BDP B   4      21.297  11.454   2.7640  0.00  0.00     0.000 HD
ATOM     59   O  BDP B   4      19.272   9.746   4.6030  0.00  0.00     0.000 O
ATOM     61  HD  BDP B   4      20.129   9.626   4.5720  0.00  0.00     0.000 HD
BRANCH 55 61
ATOM     61   C  BDP B   4      18.442  13.416   7.6920  0.00  0.00     0.000 C
ATOM     62   O  BDP B   4      19.244  12.849   8.4800  0.00  0.00     0.000 OA
ATOM     63   O  BDP B   4      17.559  14.248   8.0620  0.00  0.00     0.000 OA
ENDBRANCH 55 61
BRANCH 51 64
ATOM     64  O3  NAG B   5      21.107  14.055   3.8180  0.00  0.00     0.000 O
BRANCH 64 67
ATOM     65  C1  NAG B   5      20.557  17.636   3.1390  0.00  0.00     0.000 C
ATOM     66  C2  NAG B   5      20.401  16.132   3.0020  0.00  0.00     0.000 C
ATOM     67  C3  NAG B   5      21.122  15.430   4.1460  0.00  0.00     0.000 C
ATOM     68  C4  NAG B   5      22.574  15.913   4.2610  0.00  0.00     0.000 C
ATOM     69  C5  NAG B   5      22.634  17.431   4.2990  0.00  0.00     0.000 C
ATOM     70  O5  NAG B   5      21.924  17.976   3.1770  0.00  0.00     0.000 O
ATOM     71   O  NAG B   5      23.147  15.349   5.4220  0.00  0.00     0.000 O
ATOM     73  HD  NAG B   5      23.821  15.241   4.8900  0.00  0.00     0.000 HD
ATOM     73   C  NAG B   5      24.057  18.008   4.2850  0.00  0.00     0.000 C
ATOM     74   O  NAG B   5      24.705  17.668   3.0410  0.00  0.00     0.000 O
ATOM     76  HD  NAG B   5      25.380  17.560   2.5090  0.00  0.00     0.000 HD
BRANCH 66 78
ATOM     76   N  NAG B   5      19.573  15.525   1.9430  0.00  0.00     0.000 N
ATOM     78  HD  NAG B   5      19.518  15.658   2.7960  0.00  0.00     0.000 HD
ATOM     78   C  NAG B   5      18.288  15.154   2.0600  0.00  0.00     0.000 C
ATOM     79   C  NAG B   5      17.711  14.581   0.7940  0.00  0.00     0.000 C
ATOM     80   O  NAG B   5      17.620  15.268   3.1490  0.00  0.00     0.000 OA
ENDBRANCH 66 78
BRANCH 65 81
ATOM     81  O4  BDP B   6      19.920  18.300   2.0390  0.00  0.00     0.000 O
BRANCH 81 85
ATOM     82  C1  BDP B   6      17.517  21.774   1.3190  0.00  0.00     0.000 C
ATOM     83  C2  BDP B   6      19.031  21.927   1.2040  0.00  0.00     0.000 C
ATOM     84  C3  BDP B   6      19.757  20.586   1.0720  0.00  0.00     0.000 C
ATOM     85  C4  BDP B   6      19.343  19.601   2.1680  0.00  0.00     0.000 C
ATOM     86  C5  BDP B   6      17.796  19.559   2.2100  0.00  0.00     0.000 C
ATOM     87  O5  BDP B   6      17.219  20.892   2.3910  0.00  0.00     0.000 O
ATOM     88   O  BDP B   6      19.246  22.704   0.0290  0.00  0.00     0.000 O
ATOM     90  HD  BDP B   6      19.770  22.740  -0.6600  0.00  0.00     0.000 HD
ATOM     90   O  BDP B   6      21.170  20.802   1.0850  0.00  0.00     0.000 O
ATOM     92  HD  BDP B   6      21.693  20.838   0.3960  0.00  0.00     0.000 HD
BRANCH 86 92
ATOM     92   C  BDP B   6      17.320  18.792   3.4200  0.00  0.00     0.000 C
ATOM     93   O  BDP B   6      16.188  18.221   3.3910  0.00  0.00     0.000 OA
ATOM     94   O  BDP B   6      18.099  18.735   4.4220  0.00  0.00     0.000 OA
ENDBRANCH 86 92
BRANCH 82 95
ATOM     95  O3  NAG B   7      16.953  23.062   1.6360  0.00  0.00     0.000 O
BRANCH 95 98
ATOM     96  C1  NAG B   7      14.280  25.330   0.6100  0.00  0.00     0.000 C
ATOM     97  C2  NAG B   7      15.600  24.936   1.2590  0.00  0.00     0.000 C
ATOM     98  C3  NAG B   7      15.687  23.421   1.0840  0.00  0.00     0.000 C
ATOM     99  C4  NAG B   7      14.503  22.750   1.7750  0.00  0.00     0.000 C
ATOM    100  C5  NAG B   7      13.179  23.339   1.2840  0.00  0.00     0.000 C
ATOM    101  O5  NAG B   7      13.234  24.752   1.3990  0.00  0.00     0.000 O
BRANCH 97 104
ATOM    102   N  NAG B   7      16.970  25.256   0.8350  0.00  0.00     0.000 N
ATOM    104  HD  NAG B   7      17.834  25.266   0.7720  0.00  0.00     0.000 HD
ATOM    104   O  NAG B   7      18.801  26.552   0.5190  0.00  0.00     0.000 OA
ATOM    105   C  NAG B   7      17.606  26.443   0.8580  0.00  0.00     0.000 C
ATOM    106   C  NAG B   7      16.865  27.653   1.3150  0.00  0.00     0.000 C
ENDBRANCH 97 104
ATOM    107   O  NAG B   7      10.848  23.099   1.3900  0.00  0.00     0.000 O
ATOM    109  HD  NAG B   7      11.518  23.286   0.8740  0.00  0.00     0.000 HD
ATOM    109   O  NAG B   7      10.848  23.099   1.3900  0.00  0.00     0.000 O
ATOM    111  HD  NAG B   7      11.518  23.286   0.8740  0.00  0.00     0.000 HD
ENDBRANCH 95 98
ENDBRANCH 82 95
ENDBRANCH 81 85
ENDBRANCH 65 81
ENDBRANCH 64 67
ENDBRANCH 51 64
ENDBRANCH 50 54
ENDBRANCH 34 50
ENDBRANCH 33 36
ENDBRANCH 20 33
ENDBRANCH 19 23
ENDBRANCH 1 19
TORSDOF 19
ENDMDL
MODEL 45
REMARK VINA RESULT:      -5.6      5.114     17.514
ROOT
ATOM      1  C1  NAG B   1      17.467  16.668   6.1380  0.00  0.00     0.000 C
ATOM      2  C2  NAG B   1      17.539  16.414   4.6350  0.00  0.00     0.000 C
ATOM      3  C3  NAG B   1      17.310  17.681   3.8370  0.00  0.00     0.000 C
ATOM      4  C4  NAG B   1      15.943  18.197   4.2740  0.00  0.00     0.000 C
ATOM      5  C5  NAG B   1      15.993  18.554   5.7660  0.00  0.00     0.000 C
ATOM      6  O5  NAG B   1      16.304  17.394   6.5680  0.00  0.00     0.000 O
ATOM      7   O  NAG B   1      17.338  17.441   2.4120  0.00  0.00     0.000 O
ATOM      9  HD  NAG B   1      17.928  16.880   2.7070  0.00  0.00     0.000 HD
ATOM      9   O  NAG B   1      15.589  19.343   3.5190  0.00  0.00     0.000 O
ATOM     11  HD  NAG B   1      16.179  18.783   3.8140  0.00  0.00     0.000 HD
ATOM     11   C  NAG B   1      14.671  19.202   6.1940  0.00  0.00     0.000 C
ATOM     12   O  NAG B   1      14.396  18.955   7.5720  0.00  0.00     0.000 O
ATOM     14  HD  NAG B   1      14.986  18.394   7.8680  0.00  0.00     0.000 HD
ENDROOT
BRANCH 2 16
ATOM     14   N  NAG B   1      17.725  15.018   4.2010  0.00  0.00     0.000 N
ATOM     16  HD  NAG B   1      17.802  14.519   3.4980  0.00  0.00     0.000 HD
ATOM     16   C  NAG B   1      18.912  14.521   3.8130  0.00  0.00     0.000 C
ATOM     17   C  NAG B   1      20.126  15.411   3.7820  0.00  0.00     0.000 C
ATOM     18   O  NAG B   1      19.038  13.336   3.5050  0.00  0.00     0.000 OA
ENDBRANCH 2 16
BRANCH 1 19
ATOM     19  O4  BDP B   2      17.336  15.362   6.6820  0.00  0.00     0.000 O
BRANCH 19 23
ATOM     20  C1  BDP B   2      14.750  13.484   9.2760  0.00  0.00     0.000 C
ATOM     21  C2  BDP B   2      14.163  13.949   7.9590  0.00  0.00     0.000 C
ATOM     22  C3  BDP B   2      15.248  14.228   6.9440  0.00  0.00     0.000 C
ATOM     23  C4  BDP B   2      16.249  15.200   7.5610  0.00  0.00     0.000 C
ATOM     24  C5  BDP B   2      16.775  14.624   8.8610  0.00  0.00     0.000 C
ATOM     25  O5  BDP B   2      15.700  14.424   9.7590  0.00  0.00     0.000 O
ATOM     26   O  BDP B   2      13.273  12.980   7.4510  0.00  0.00     0.000 O
ATOM     28  HD  BDP B   2      13.393  12.677   8.2530  0.00  0.00     0.000 HD
ATOM     28   O  BDP B   2      14.652  14.755   5.7480  0.00  0.00     0.000 O
ATOM     30  HD  BDP B   2      14.773  14.452   6.5500  0.00  0.00     0.000 HD
BRANCH 24 30
ATOM     30   C  BDP B   2      17.751  15.530   9.5230  0.00  0.00     0.000 C
ATOM     31   O  BDP B   2      17.361  16.687   9.8050  0.00  0.00     0.000 OA
ATOM     32   O  BDP B   2      18.913  15.093   9.7570  0.00  0.00     0.000 OA
ENDBRANCH 24 30
BRANCH 20 33
ATOM     33  O3  NAG B   3      13.647  13.451  10.1480  0.00  0.00     0.000 O
BRANCH 33 36
ATOM     34  C1  NAG B   3      13.175  10.689  12.6580  0.00  0.00     0.000 C
ATOM     35  C2  NAG B   3      13.073  11.419  11.3320  0.00  0.00     0.000 C
ATOM     36  C3  NAG B   3      13.928  12.695  11.3290  0.00  0.00     0.000 C
ATOM     37  C4  NAG B   3      13.580  13.540  12.5510  0.00  0.00     0.000 C
ATOM     38  C5  NAG B   3      13.632  12.688  13.8160  0.00  0.00     0.000 C
ATOM     39  O5  NAG B   3      12.761  11.577  13.6870  0.00  0.00     0.000 O
ATOM     40   O  NAG B   3      14.505  14.632  12.6730  0.00  0.00     0.000 O
ATOM     42  HD  NAG B   3      14.602  14.300  13.4670  0.00  0.00     0.000 HD
ATOM     42   C  NAG B   3      13.171  13.420  15.0740  0.00  0.00     0.000 C
ATOM     43   O  NAG B   3      11.778  13.736  14.9610  0.00  0.00     0.000 O
ATOM     45  HD  NAG B   3      11.875  13.404  15.7550  0.00  0.00     0.000 HD
BRANCH 35 47
ATOM     45   N  NAG B   3      12.236  10.959  10.2310  0.00  0.00     0.000 N
ATOM     47  HD  NAG B   3      11.954  11.701  10.5770  0.00  0.00     0.000 HD
ATOM     47   C  NAG B   3      12.726  10.387   9.1490  0.00  0.00     0.000 C
ATOM     48   C  NAG B   3      11.728   9.991   8.1020  0.00  0.00     0.000 C
ATOM     49   O  NAG B   3      13.933  10.211   8.9940  0.00  0.00     0.000 OA
ENDBRANCH 35 47
BRANCH 34 50
ATOM     50  O4  BDP B   4      12.256   9.626  12.5260  0.00  0.00     0.000 O
BRANCH 50 54
ATOM     51  C1  BDP B   4      11.763   6.338  14.8720  0.00  0.00     0.000 C
ATOM     52  C2  BDP B   4      12.984   7.183  15.2170  0.00  0.00     0.000 C
ATOM     53  C3  BDP B   4      12.844   8.520  14.5560  0.00  0.00     0.000 C
ATOM     54  C4  BDP B   4      12.625   8.330  13.0280  0.00  0.00     0.000 C
ATOM     55  C5  BDP B   4      11.525   7.322  12.7210  0.00  0.00     0.000 C
ATOM     56  O5  BDP B   4      11.721   6.128  13.4720  0.00  0.00     0.000 O
ATOM     57   O  BDP B   4      13.078   7.360  16.6150  0.00  0.00     0.000 O
ATOM     59  HD  BDP B   4      13.704   6.815  16.8620  0.00  0.00     0.000 HD
ATOM     59   O  BDP B   4      14.095   9.214  14.7430  0.00  0.00     0.000 O
ATOM     61  HD  BDP B   4      14.721   8.669  14.9900  0.00  0.00     0.000 HD
BRANCH 55 61
ATOM     61   C  BDP B   4      11.548   6.990  11.2400  0.00  0.00     0.000 C
ATOM     62   O  BDP B   4      10.816   7.667  10.4710  0.00  0.00     0.000 OA
ATOM     63   O  BDP B   4      12.305   6.050  10.8470  0.00  0.00     0.000 OA
ENDBRANCH 55 61
BRANCH 51 64
ATOM     64  O3  NAG B   5      11.897   5.087  15.5740  0.00  0.00     0.000 O
BRANCH 64 67
ATOM     65  C1  NAG B   5       9.133   3.704  17.5830  0.00  0.00     0.000 C
ATOM     66  C2  NAG B   5      10.330   4.571  17.2340  0.00  0.00     0.000 C
ATOM     67  C3  NAG B   5      10.659   4.428  15.7530  0.00  0.00     0.000 C
ATOM     68  C4  NAG B   5      10.805   2.952  15.3610  0.00  0.00     0.000 C
ATOM     69  C5  NAG B   5       9.603   2.149  15.8340  0.00  0.00     0.000 C
ATOM     70  O5  NAG B   5       9.393   2.363  17.2370  0.00  0.00     0.000 O
ATOM     71   O  NAG B   5      10.956   2.869  13.9600  0.00  0.00     0.000 O
ATOM     73  HD  NAG B   5      11.554   2.283  14.1810  0.00  0.00     0.000 HD
ATOM     73   C  NAG B   5       9.719   0.637  15.5970  0.00  0.00     0.000 C
ATOM     74   O  NAG B   5      10.814   0.109  16.3760  0.00  0.00     0.000 O
ATOM     76  HD  NAG B   5      11.412  -0.478  16.5960  0.00  0.00     0.000 HD
BRANCH 66 78
ATOM     76   N  NAG B   5      10.869   5.443  18.2950  0.00  0.00     0.000 N
ATOM     78  HD  NAG B   5      10.483   5.540  17.5260  0.00  0.00     0.000 HD
ATOM     78   C  NAG B   5      10.690   6.770  18.3940  0.00  0.00     0.000 C
ATOM     79   C  NAG B   5      11.350   7.376  19.6030  0.00  0.00     0.000 C
ATOM     80   O  NAG B   5      10.027   7.455  17.5370  0.00  0.00     0.000 OA
ENDBRANCH 66 78
BRANCH 65 81
ATOM     81  O4  BDP B   6       8.848   3.800  18.9850  0.00  0.00     0.000 O
BRANCH 81 85
ATOM     82  C1  BDP B   6       5.530   3.695  21.6950  0.00  0.00     0.000 C
ATOM     83  C2  BDP B   6       5.790   2.451  20.8500  0.00  0.00     0.000 C
ATOM     84  C3  BDP B   6       7.194   2.429  20.2400  0.00  0.00     0.000 C
ATOM     85  C4  BDP B   6       7.515   3.728  19.4970  0.00  0.00     0.000 C
ATOM     86  C5  BDP B   6       7.180   4.910  20.4370  0.00  0.00     0.000 C
ATOM     87  O5  BDP B   6       5.797   4.851  20.9150  0.00  0.00     0.000 O
ATOM     88   O  BDP B   6       5.641   1.349  21.7410  0.00  0.00     0.000 O
ATOM     90  HD  BDP B   6       6.013   0.591  21.9330  0.00  0.00     0.000 HD
ATOM     90   O  BDP B   6       7.324   1.298  19.3750  0.00  0.00     0.000 O
ATOM     92  HD  BDP B   6       7.696   0.541  19.5670  0.00  0.00     0.000 HD
BRANCH 86 92
ATOM     92   C  BDP B   6       7.247   6.218  19.6880  0.00  0.00     0.000 C
ATOM     93   O  BDP B   6       6.793   6.285  18.5060  0.00  0.00     0.000 OA
ATOM     94   O  BDP B   6       7.743   7.217  20.2960  0.00  0.00     0.000 OA
ENDBRANCH 86 92
BRANCH 82 95
ATOM     95  O3  NAG B   7       4.135   3.716  22.0540  0.00  0.00     0.000 O
BRANCH 95 98
ATOM     96  C1  NAG B   7       2.508   4.847  25.1220  0.00  0.00     0.000 C
ATOM     97  C2  NAG B   7       2.937   3.841  24.0630  0.00  0.00     0.000 C
ATOM     98  C3  NAG B   7       3.678   4.668  23.0140  0.00  0.00     0.000 C
ATOM     99  C4  NAG B   7       2.744   5.726  22.4330  0.00  0.00     0.000 C
ATOM    100  C5  NAG B   7       2.124   6.576  23.5430  0.00  0.00     0.000 C
ATOM    101  O5  NAG B   7       1.546   5.716  24.5130  0.00  0.00     0.000 O
BRANCH 97 104
ATOM    102   N  NAG B   7       3.942   2.796  24.3040  0.00  0.00     0.000 N
ATOM    104  HD  NAG B   7       4.587   2.229  24.1920  0.00  0.00     0.000 HD
ATOM    104   O  NAG B   7       4.712   0.726  24.8050  0.00  0.00     0.000 OA
ATOM    105   C  NAG B   7       3.758   1.522  24.6990  0.00  0.00     0.000 C
ATOM    106   C  NAG B   7       2.378   1.050  25.0040  0.00  0.00     0.000 C
ENDBRANCH 97 104
ATOM    107   O  NAG B   7       0.799   8.466  23.9630  0.00  0.00     0.000 O
ATOM    109  HD  NAG B   7       1.491   8.014  24.2230  0.00  0.00     0.000 HD
ATOM    109   O  NAG B   7       0.799   8.466  23.9630  0.00  0.00     0.000 O
ATOM    111  HD  NAG B   7       1.491   8.014  24.2230  0.00  0.00     0.000 HD
ENDBRANCH 95 98
ENDBRANCH 82 95
ENDBRANCH 81 85
ENDBRANCH 65 81
ENDBRANCH 64 67
ENDBRANCH 51 64
ENDBRANCH 50 54
ENDBRANCH 34 50
ENDBRANCH 33 36
ENDBRANCH 20 33
ENDBRANCH 19 23
ENDBRANCH 1 19
TORSDOF 19
ENDMDL
MODEL 46
REMARK VINA RESULT:      -5.6      5.115     11.746
ROOT
ATOM      1  C1  NAG B   1       6.299  13.648  21.2340  0.00  0.00     0.000 C
ATOM      2  C2  NAG B   1       5.630  14.963  21.6270  0.00  0.00     0.000 C
ATOM      3  C3  NAG B   1       5.996  16.087  20.6790  0.00  0.00     0.000 C
ATOM      4  C4  NAG B   1       7.518  16.175  20.7200  0.00  0.00     0.000 C
ATOM      5  C5  NAG B   1       8.112  14.865  20.1870  0.00  0.00     0.000 C
ATOM      6  O5  NAG B   1       7.713  13.743  21.0030  0.00  0.00     0.000 O
ATOM      7   O  NAG B   1       5.396  17.344  21.0670  0.00  0.00     0.000 O
ATOM      9  HD  NAG B   1       4.789  16.770  21.2930  0.00  0.00     0.000 HD
ATOM      9   O  NAG B   1       7.965  17.262  19.9270  0.00  0.00     0.000 O
ATOM     11  HD  NAG B   1       7.357  16.688  20.1530  0.00  0.00     0.000 HD
ATOM     11   C  NAG B   1       9.638  14.983  20.0900  0.00  0.00     0.000 C
ATOM     12   O  NAG B   1      10.267  13.712  20.2500  0.00  0.00     0.000 O
ATOM     14  HD  NAG B   1       9.659  13.138  20.4760  0.00  0.00     0.000 HD
ENDROOT
BRANCH 2 16
ATOM     14   N  NAG B   1       4.835  14.890  22.8650  0.00  0.00     0.000 N
ATOM     16  HD  NAG B   1       4.381  15.373  23.4220  0.00  0.00     0.000 HD
ATOM     16   C  NAG B   1       3.490  14.882  22.8770  0.00  0.00     0.000 C
ATOM     17   C  NAG B   1       2.728  14.977  21.5820  0.00  0.00     0.000 C
ATOM     18   O  NAG B   1       2.861  14.770  23.9280  0.00  0.00     0.000 OA
ENDBRANCH 2 16
BRANCH 1 19
ATOM     19  O4  BDP B   2       6.146  12.847  22.3980  0.00  0.00     0.000 O
BRANCH 19 23
ATOM     20  C1  BDP B   2       6.512   9.230  20.4680  0.00  0.00     0.000 C
ATOM     21  C2  BDP B   2       5.121   9.826  20.5220  0.00  0.00     0.000 C
ATOM     22  C3  BDP B   2       5.168  11.299  20.8610  0.00  0.00     0.000 C
ATOM     23  C4  BDP B   2       5.975  11.473  22.1450  0.00  0.00     0.000 C
ATOM     24  C5  BDP B   2       7.346  10.851  21.9670  0.00  0.00     0.000 C
ATOM     25  O5  BDP B   2       7.207   9.472  21.6830  0.00  0.00     0.000 O
ATOM     26   O  BDP B   2       4.462   9.644  19.2870  0.00  0.00     0.000 O
ATOM     28  HD  BDP B   2       5.147   9.125  19.1780  0.00  0.00     0.000 HD
ATOM     28   O  BDP B   2       3.828  11.798  20.9930  0.00  0.00     0.000 O
ATOM     30  HD  BDP B   2       4.513  11.279  20.8840  0.00  0.00     0.000 HD
BRANCH 24 30
ATOM     30   C  BDP B   2       8.182  10.976  23.1900  0.00  0.00     0.000 C
ATOM     31   O  BDP B   2       9.250  11.623  23.0920  0.00  0.00     0.000 OA
ATOM     32   O  BDP B   2       7.780  10.422  24.2530  0.00  0.00     0.000 OA
ENDBRANCH 24 30
BRANCH 20 33
ATOM     33  O3  NAG B   3       6.286   7.849  20.3310  0.00  0.00     0.000 O
BRANCH 33 36
ATOM     34  C1  NAG B   3       8.973   5.788  18.6920  0.00  0.00     0.000 C
ATOM     35  C2  NAG B   3       7.800   6.744  18.7980  0.00  0.00     0.000 C
ATOM     36  C3  NAG B   3       7.511   7.116  20.2610  0.00  0.00     0.000 C
ATOM     37  C4  NAG B   3       7.373   5.841  21.0880  0.00  0.00     0.000 C
ATOM     38  C5  NAG B   3       8.563   4.917  20.8410  0.00  0.00     0.000 C
ATOM     39  O5  NAG B   3       8.672   4.630  19.4570  0.00  0.00     0.000 O
ATOM     40   O  NAG B   3       7.304   6.167  22.4850  0.00  0.00     0.000 O
ATOM     42  HD  NAG B   3       7.962   5.605  22.5220  0.00  0.00     0.000 HD
ATOM     42   C  NAG B   3       8.445   3.560  21.5290  0.00  0.00     0.000 C
ATOM     43   O  NAG B   3       7.352   2.828  20.9600  0.00  0.00     0.000 O
ATOM     45  HD  NAG B   3       8.009   2.266  20.9970  0.00  0.00     0.000 HD
BRANCH 35 47
ATOM     45   N  NAG B   3       6.926   7.285  17.7650  0.00  0.00     0.000 N
ATOM     47  HD  NAG B   3       6.487   6.901  18.4050  0.00  0.00     0.000 HD
ATOM     47   C  NAG B   3       7.164   8.425  17.1480  0.00  0.00     0.000 C
ATOM     48   C  NAG B   3       6.152   8.847  16.1240  0.00  0.00     0.000 C
ATOM     49   O  NAG B   3       8.144   9.117  17.4140  0.00  0.00     0.000 OA
ENDBRANCH 35 47
BRANCH 34 50
ATOM     50  O4  BDP B   4       9.022   5.471  17.3170  0.00  0.00     0.000 O
BRANCH 50 54
ATOM     51  C1  BDP B   4      11.759   5.462  14.3070  0.00  0.00     0.000 C
ATOM     52  C2  BDP B   4      11.205   4.086  14.6610  0.00  0.00     0.000 C
ATOM     53  C3  BDP B   4       9.971   4.266  15.4900  0.00  0.00     0.000 C
ATOM     54  C4  BDP B   4      10.294   5.150  16.7290  0.00  0.00     0.000 C
ATOM     55  C5  BDP B   4      11.029   6.429  16.3520  0.00  0.00     0.000 C
ATOM     56  O5  BDP B   4      12.130   6.137  15.4950  0.00  0.00     0.000 O
ATOM     57   O  BDP B   4      10.880   3.372  13.4880  0.00  0.00     0.000 O
ATOM     59  HD  BDP B   4      11.527   2.804  13.3920  0.00  0.00     0.000 HD
ATOM     59   O  BDP B   4       9.589   2.958  15.9650  0.00  0.00     0.000 O
ATOM     61  HD  BDP B   4      10.236   2.390  15.8690  0.00  0.00     0.000 HD
BRANCH 55 61
ATOM     61   C  BDP B   4      11.543   7.102  17.6120  0.00  0.00     0.000 C
ATOM     62   O  BDP B   4      12.253   6.421  18.3980  0.00  0.00     0.000 OA
ATOM     63   O  BDP B   4      11.235   8.316  17.8130  0.00  0.00     0.000 OA
ENDBRANCH 55 61
BRANCH 51 64
ATOM     64  O3  NAG B   5      12.905   5.255  13.4580  0.00  0.00     0.000 O
BRANCH 64 67
ATOM     65  C1  NAG B   5      14.083   8.218  11.6080  0.00  0.00     0.000 C
ATOM     66  C2  NAG B   5      13.170   7.071  12.0070  0.00  0.00     0.000 C
ATOM     67  C3  NAG B   5      13.677   6.428  13.2910  0.00  0.00     0.000 C
ATOM     68  C4  NAG B   5      15.160   6.050  13.1700  0.00  0.00     0.000 C
ATOM     69  C5  NAG B   5      15.977   7.234  12.6780  0.00  0.00     0.000 C
ATOM     70  O5  NAG B   5      15.406   7.753  11.4680  0.00  0.00     0.000 O
ATOM     71   O  NAG B   5      15.616   5.602  14.4290  0.00  0.00     0.000 O
ATOM     73  HD  NAG B   5      16.008   5.006  13.9390  0.00  0.00     0.000 HD
ATOM     73   C  NAG B   5      17.454   6.914  12.4060  0.00  0.00     0.000 C
ATOM     74   O  NAG B   5      17.550   5.957  11.3300  0.00  0.00     0.000 O
ATOM     76  HD  NAG B   5      17.943   5.361  10.8400  0.00  0.00     0.000 HD
BRANCH 66 78
ATOM     76   N  NAG B   5      11.831   7.685  12.0880  0.00  0.00     0.000 N
ATOM     78  HD  NAG B   5      12.212   7.044  11.6480  0.00  0.00     0.000 HD
ATOM     78   C  NAG B   5      10.703   7.193  11.5500  0.00  0.00     0.000 C
ATOM     79   C  NAG B   5       9.490   8.041  11.8220  0.00  0.00     0.000 C
ATOM     80   O  NAG B   5      10.666   6.110  10.8640  0.00  0.00     0.000 OA
ENDBRANCH 66 78
BRANCH 65 81
ATOM     81  O4  BDP B   6      13.637   8.798  10.3750  0.00  0.00     0.000 O
BRANCH 81 85
ATOM     82  C1  BDP B   6      13.919  12.479   8.2000  0.00  0.00     0.000 C
ATOM     83  C2  BDP B   6      15.088  11.504   8.0910  0.00  0.00     0.000 C
ATOM     84  C3  BDP B   6      14.728  10.089   8.5500  0.00  0.00     0.000 C
ATOM     85  C4  BDP B   6      14.079  10.084   9.9360  0.00  0.00     0.000 C
ATOM     86  C5  BDP B   6      12.939  11.130   9.9310  0.00  0.00     0.000 C
ATOM     87  O5  BDP B   6      13.415  12.454   9.5270  0.00  0.00     0.000 O
ATOM     88   O  BDP B   6      15.439  11.483   6.7100  0.00  0.00     0.000 O
ATOM     90  HD  BDP B   6      15.667  10.925   6.0880  0.00  0.00     0.000 HD
ATOM     90   O  BDP B   6      15.896   9.265   8.5280  0.00  0.00     0.000 O
ATOM     92  HD  BDP B   6      16.123   8.707   7.9060  0.00  0.00     0.000 HD
BRANCH 86 92
ATOM     92   C  BDP B   6      12.413  11.348  11.3290  0.00  0.00     0.000 C
ATOM     93   O  BDP B   6      11.326  10.798  11.6800  0.00  0.00     0.000 OA
ATOM     94   O  BDP B   6      13.110  12.067  12.1120  0.00  0.00     0.000 OA
ENDBRANCH 86 92
BRANCH 82 95
ATOM     95  O3  NAG B   7      14.411  13.808   7.9380  0.00  0.00     0.000 O
BRANCH 95 98
ATOM     96  C1  NAG B   7      13.775  16.701   5.8010  0.00  0.00     0.000 C
ATOM     97  C2  NAG B   7      14.596  15.789   6.7030  0.00  0.00     0.000 C
ATOM     98  C3  NAG B   7      13.625  14.696   7.1450  0.00  0.00     0.000 C
ATOM     99  C4  NAG B   7      12.452  15.319   7.8990  0.00  0.00     0.000 C
ATOM    100  C5  NAG B   7      11.787  16.415   7.0650  0.00  0.00     0.000 C
ATOM    101  O5  NAG B   7      12.783  17.325   6.6240  0.00  0.00     0.000 O
BRANCH 97 104
ATOM    102   N  NAG B   7      15.699  14.952   6.2100  0.00  0.00     0.000 N
ATOM    104  HD  NAG B   7      16.258  14.298   6.1080  0.00  0.00     0.000 HD
ATOM    104   O  NAG B   7      17.848  14.389   5.7730  0.00  0.00     0.000 OA
ATOM    105   C  NAG B   7      17.016  15.229   6.1670  0.00  0.00     0.000 C
ATOM    106   C  NAG B   7      17.489  16.569   6.6160  0.00  0.00     0.000 C
ENDBRANCH 97 104
ATOM    107   O  NAG B   7       9.956  17.879   6.9810  0.00  0.00     0.000 O
ATOM    109  HD  NAG B   7      10.468  17.358   6.5160  0.00  0.00     0.000 HD
ATOM    109   O  NAG B   7       9.956  17.879   6.9810  0.00  0.00     0.000 O
ATOM    111  HD  NAG B   7      10.468  17.358   6.5160  0.00  0.00     0.000 HD
ENDBRANCH 95 98
ENDBRANCH 82 95
ENDBRANCH 81 85
ENDBRANCH 65 81
ENDBRANCH 64 67
ENDBRANCH 51 64
ENDBRANCH 50 54
ENDBRANCH 34 50
ENDBRANCH 33 36
ENDBRANCH 20 33
ENDBRANCH 19 23
ENDBRANCH 1 19
TORSDOF 19
ENDMDL
MODEL 47
REMARK VINA RESULT:      -5.6      4.378     17.893
ROOT
ATOM      1  C1  NAG B   1      12.925  16.206   6.9170  0.00  0.00     0.000 C
ATOM      2  C2  NAG B   1      12.897  17.673   7.3370  0.00  0.00     0.000 C
ATOM      3  C3  NAG B   1      13.909  18.499   6.5690  0.00  0.00     0.000 C
ATOM      4  C4  NAG B   1      15.260  17.843   6.8380  0.00  0.00     0.000 C
ATOM      5  C5  NAG B   1      15.249  16.418   6.2690  0.00  0.00     0.000 C
ATOM      6  O5  NAG B   1      14.232  15.612   6.9030  0.00  0.00     0.000 O
ATOM      7   O  NAG B   1      13.916  19.883   6.9890  0.00  0.00     0.000 O
ATOM      9  HD  NAG B   1      13.080  19.668   7.0660  0.00  0.00     0.000 HD
ATOM      9   O  NAG B   1      16.297  18.595   6.2310  0.00  0.00     0.000 O
ATOM     11  HD  NAG B   1      15.462  18.380   6.3080  0.00  0.00     0.000 HD
ATOM     11   C  NAG B   1      16.641  15.789   6.4070  0.00  0.00     0.000 C
ATOM     12   O  NAG B   1      16.558  14.370   6.5290  0.00  0.00     0.000 O
ATOM     14  HD  NAG B   1      15.722  14.155   6.6060  0.00  0.00     0.000 HD
ENDROOT
BRANCH 2 16
ATOM     14   N  NAG B   1      12.115  18.402   8.3520  0.00  0.00     0.000 N
ATOM     16  HD  NAG B   1      11.761  19.172   8.5270  0.00  0.00     0.000 HD
ATOM     16   C  NAG B   1      10.791  18.610   8.2490  0.00  0.00     0.000 C
ATOM     17   C  NAG B   1      10.044  18.114   7.0400  0.00  0.00     0.000 C
ATOM     18   O  NAG B   1      10.164  19.180   9.1420  0.00  0.00     0.000 OA
ENDBRANCH 2 16
BRANCH 1 19
ATOM     19  O4  BDP B   2      12.211  15.557   7.9610  0.00  0.00     0.000 O
BRANCH 19 23
ATOM     20  C1  BDP B   2      13.100  12.634  10.7180  0.00  0.00     0.000 C
ATOM     21  C2  BDP B   2      13.491  14.050  11.0890  0.00  0.00     0.000 C
ATOM     22  C3  BDP B   2      12.762  15.061  10.2330  0.00  0.00     0.000 C
ATOM     23  C4  BDP B   2      12.995  14.710   8.7670  0.00  0.00     0.000 C
ATOM     24  C5  BDP B   2      12.557  13.281   8.5140  0.00  0.00     0.000 C
ATOM     25  O5  BDP B   2      13.309  12.404   9.3320  0.00  0.00     0.000 O
ATOM     26   O  BDP B   2      13.216  14.293  12.4520  0.00  0.00     0.000 O
ATOM     28  HD  BDP B   2      13.113  13.433  12.4210  0.00  0.00     0.000 HD
ATOM     28   O  BDP B   2      13.233  16.379  10.5540  0.00  0.00     0.000 O
ATOM     30  HD  BDP B   2      13.130  15.520  10.5240  0.00  0.00     0.000 HD
BRANCH 24 30
ATOM     30   C  BDP B   2      12.769  12.869   7.1010  0.00  0.00     0.000 C
ATOM     31   O  BDP B   2      11.797  12.982   6.3190  0.00  0.00     0.000 OA
ATOM     32   O  BDP B   2      13.904  12.424   6.7680  0.00  0.00     0.000 OA
ENDBRANCH 24 30
BRANCH 20 33
ATOM     33  O3  NAG B   3      13.987  11.831  11.4590  0.00  0.00     0.000 O
BRANCH 33 36
ATOM     34  C1  NAG B   3      13.032   8.448  12.7980  0.00  0.00     0.000 C
ATOM     35  C2  NAG B   3      13.211   9.954  12.7770  0.00  0.00     0.000 C
ATOM     36  C3  NAG B   3      13.635  10.447  11.3850  0.00  0.00     0.000 C
ATOM     37  C4  NAG B   3      14.851   9.653  10.9160  0.00  0.00     0.000 C
ATOM     38  C5  NAG B   3      14.592   8.155  11.0600  0.00  0.00     0.000 C
ATOM     39  O5  NAG B   3      14.258   7.849  12.4030  0.00  0.00     0.000 O
ATOM     40   O  NAG B   3      15.137   9.958   9.5420  0.00  0.00     0.000 O
ATOM     42  HD  NAG B   3      15.085   9.097   9.4690  0.00  0.00     0.000 HD
ATOM     42   C  NAG B   3      15.804   7.286  10.7350  0.00  0.00     0.000 C
ATOM     43   O  NAG B   3      16.837   7.524  11.7000  0.00  0.00     0.000 O
ATOM     45  HD  NAG B   3      16.785   6.662  11.6270  0.00  0.00     0.000 HD
BRANCH 35 47
ATOM     45   N  NAG B   3      13.107  10.975  13.8110  0.00  0.00     0.000 N
ATOM     47  HD  NAG B   3      13.839  11.039  13.3520  0.00  0.00     0.000 HD
ATOM     47   C  NAG B   3      11.971  11.566  14.1250  0.00  0.00     0.000 C
ATOM     48   C  NAG B   3      12.043  12.610  15.1990  0.00  0.00     0.000 C
ATOM     49   O  NAG B   3      10.917  11.296  13.5520  0.00  0.00     0.000 OA
ENDBRANCH 35 47
BRANCH 34 50
ATOM     50  O4  BDP B   4      12.760   8.163  14.1540  0.00  0.00     0.000 O
BRANCH 50 54
ATOM     51  C1  BDP B   4      11.542   5.268  16.7400  0.00  0.00     0.000 C
ATOM     52  C2  BDP B   4      13.008   5.175  16.3330  0.00  0.00     0.000 C
ATOM     53  C3  BDP B   4      13.414   6.473  15.7050  0.00  0.00     0.000 C
ATOM     54  C4  BDP B   4      12.456   6.808  14.5260  0.00  0.00     0.000 C
ATOM     55  C5  BDP B   4      10.990   6.695  14.9210  0.00  0.00     0.000 C
ATOM     56  O5  BDP B   4      10.747   5.457  15.5840  0.00  0.00     0.000 O
ATOM     57   O  BDP B   4      13.816   4.930  17.4650  0.00  0.00     0.000 O
ATOM     59  HD  BDP B   4      14.014   4.089  17.4140  0.00  0.00     0.000 HD
ATOM     59   O  BDP B   4      14.737   6.281  15.1620  0.00  0.00     0.000 O
ATOM     61  HD  BDP B   4      14.935   5.439  15.1110  0.00  0.00     0.000 HD
BRANCH 55 61
ATOM     61   C  BDP B   4      10.128   6.770  13.6740  0.00  0.00     0.000 C
ATOM     62   O  BDP B   4      10.315   5.911  12.7730  0.00  0.00     0.000 OA
ATOM     63   O  BDP B   4       9.259   7.692  13.5980  0.00  0.00     0.000 OA
ENDBRANCH 55 61
BRANCH 51 64
ATOM     64  O3  NAG B   5      11.202   4.032  17.3980  0.00  0.00     0.000 O
BRANCH 64 67
ATOM     65  C1  NAG B   5       8.203   3.716  19.5190  0.00  0.00     0.000 C
ATOM     66  C2  NAG B   5       9.630   4.064  19.1310  0.00  0.00     0.000 C
ATOM     67  C3  NAG B   5       9.813   3.902  17.6280  0.00  0.00     0.000 C
ATOM     68  C4  NAG B   5       9.345   2.516  17.1620  0.00  0.00     0.000 C
ATOM     69  C5  NAG B   5       7.945   2.221  17.6760  0.00  0.00     0.000 C
ATOM     70  O5  NAG B   5       7.896   2.407  19.0980  0.00  0.00     0.000 O
ATOM     71   O  NAG B   5       9.393   2.473  15.7520  0.00  0.00     0.000 O
ATOM     73  HD  NAG B   5       9.718   1.686  15.9080  0.00  0.00     0.000 HD
ATOM     73   C  NAG B   5       7.444   0.803  17.3660  0.00  0.00     0.000 C
ATOM     74   O  NAG B   5       8.271  -0.162  18.0480  0.00  0.00     0.000 O
ATOM     76  HD  NAG B   5       8.597  -0.950  18.2030  0.00  0.00     0.000 HD
BRANCH 66 78
ATOM     76   N  NAG B   5      10.609   4.572  20.1120  0.00  0.00     0.000 N
ATOM     78  HD  NAG B   5      10.133   4.892  19.4620  0.00  0.00     0.000 HD
ATOM     78   C  NAG B   5      10.878   5.863  20.3620  0.00  0.00     0.000 C
ATOM     79   C  NAG B   5      11.915   6.062  21.4340  0.00  0.00     0.000 C
ATOM     80   O  NAG B   5      10.314   6.832  19.7410  0.00  0.00     0.000 OA
ENDBRANCH 66 78
BRANCH 65 81
ATOM     81  O4  BDP B   6       8.038   3.823  20.9390  0.00  0.00     0.000 O
BRANCH 81 85
ATOM     82  C1  BDP B   6       4.880   3.755  23.8340  0.00  0.00     0.000 C
ATOM     83  C2  BDP B   6       5.559   2.430  23.5010  0.00  0.00     0.000 C
ATOM     84  C3  BDP B   6       6.905   2.613  22.7930  0.00  0.00     0.000 C
ATOM     85  C4  BDP B   6       6.793   3.543  21.5830  0.00  0.00     0.000 C
ATOM     86  C5  BDP B   6       6.061   4.828  22.0360  0.00  0.00     0.000 C
ATOM     87  O5  BDP B   6       4.765   4.530  22.6490  0.00  0.00     0.000 O
ATOM     88   O  BDP B   6       5.764   1.782  24.7530  0.00  0.00     0.000 O
ATOM     90  HD  BDP B   6       6.362   1.321  25.1760  0.00  0.00     0.000 HD
ATOM     90   O  BDP B   6       7.424   1.337  22.4130  0.00  0.00     0.000 O
ATOM     92  HD  BDP B   6       8.023   0.875  22.8360  0.00  0.00     0.000 HD
BRANCH 86 92
ATOM     92   C  BDP B   6       5.707   5.684  20.8450  0.00  0.00     0.000 C
ATOM     93   O  BDP B   6       6.294   6.796  20.6780  0.00  0.00     0.000 OA
ATOM     94   O  BDP B   6       4.837   5.233  20.0370  0.00  0.00     0.000 OA
ENDBRANCH 86 92
BRANCH 82 95
ATOM     95  O3  NAG B   7       3.548   3.475  24.3100  0.00  0.00     0.000 O
BRANCH 95 98
ATOM     96  C1  NAG B   7       1.617   3.967  27.3700  0.00  0.00     0.000 C
ATOM     97  C2  NAG B   7       2.102   3.222  26.1340  0.00  0.00     0.000 C
ATOM     98  C3  NAG B   7       3.045   4.197  25.4330  0.00  0.00     0.000 C
ATOM     99  C4  NAG B   7       2.290   5.470  25.0570  0.00  0.00     0.000 C
ATOM    100  C5  NAG B   7       1.597   6.074  26.2790  0.00  0.00     0.000 C
ATOM    101  O5  NAG B   7       0.823   5.068  26.9130  0.00  0.00     0.000 O
BRANCH 97 104
ATOM    102   N  NAG B   7       2.928   2.025  26.3470  0.00  0.00     0.000 N
ATOM    104  HD  NAG B   7       3.583   1.458  26.3220  0.00  0.00     0.000 HD
ATOM    104   O  NAG B   7       3.495  -0.163  26.2070  0.00  0.00     0.000 OA
ATOM    105   C  NAG B   7       2.664   0.747  26.0160  0.00  0.00     0.000 C
ATOM    106   C  NAG B   7       1.351   0.416  25.3930  0.00  0.00     0.000 C
ENDBRANCH 97 104
ATOM    107   O  NAG B   7       0.388   7.935  27.0400  0.00  0.00     0.000 O
ATOM    109  HD  NAG B   7       0.998   7.355  27.2440  0.00  0.00     0.000 HD
ATOM    109   O  NAG B   7       0.388   7.935  27.0400  0.00  0.00     0.000 O
ATOM    111  HD  NAG B   7       0.998   7.355  27.2440  0.00  0.00     0.000 HD
ENDBRANCH 95 98
ENDBRANCH 82 95
ENDBRANCH 81 85
ENDBRANCH 65 81
ENDBRANCH 64 67
ENDBRANCH 51 64
ENDBRANCH 50 54
ENDBRANCH 34 50
ENDBRANCH 33 36
ENDBRANCH 20 33
ENDBRANCH 19 23
ENDBRANCH 1 19
TORSDOF 19
ENDMDL
MODEL 48
REMARK VINA RESULT:      -5.6      3.200      3.527
ROOT
ATOM      1  C1  NAG B   1      11.609   4.606  16.3660  0.00  0.00     0.000 C
ATOM      2  C2  NAG B   1      10.612   4.499  17.5170  0.00  0.00     0.000 C
ATOM      3  C3  NAG B   1      10.660   3.139  18.1820  0.00  0.00     0.000 C
ATOM      4  C4  NAG B   1      10.375   2.132  17.0710  0.00  0.00     0.000 C
ATOM      5  C5  NAG B   1      11.492   2.211  16.0220  0.00  0.00     0.000 C
ATOM      6  O5  NAG B   1      11.552   3.524  15.4240  0.00  0.00     0.000 O
ATOM      7   O  NAG B   1       9.692   3.018  19.2480  0.00  0.00     0.000 O
ATOM      9  HD  NAG B   1       9.928   3.849  19.3050  0.00  0.00     0.000 HD
ATOM      9   O  NAG B   1      10.311   0.821  17.6060  0.00  0.00     0.000 O
ATOM     11  HD  NAG B   1      10.548   1.652  17.6630  0.00  0.00     0.000 HD
ATOM     11   C  NAG B   1      11.298   1.114  14.9680  0.00  0.00     0.000 C
ATOM     12   O  NAG B   1      11.834   1.509  13.7060  0.00  0.00     0.000 O
ATOM     14  HD  NAG B   1      12.070   2.340  13.7620  0.00  0.00     0.000 HD
ENDROOT
BRANCH 2 16
ATOM     14   N  NAG B   1      10.890   5.685  18.3480  0.00  0.00     0.000 N
ATOM     16  HD  NAG B   1      11.025   6.539  18.3070  0.00  0.00     0.000 HD
ATOM     16   C  NAG B   1       9.943   6.569  18.7070  0.00  0.00     0.000 C
ATOM     17   C  NAG B   1       8.526   6.385  18.2340  0.00  0.00     0.000 C
ATOM     18   O  NAG B   1      10.204   7.520  19.4430  0.00  0.00     0.000 OA
ENDBRANCH 2 16
BRANCH 1 19
ATOM     19  O4  BDP B   2      11.169   5.760  15.6640  0.00  0.00     0.000 O
BRANCH 19 23
ATOM     20  C1  BDP B   2      12.131   7.508  12.0630  0.00  0.00     0.000 C
ATOM     21  C2  BDP B   2      11.070   6.427  12.0250  0.00  0.00     0.000 C
ATOM     22  C3  BDP B   2      10.506   6.164  13.4030  0.00  0.00     0.000 C
ATOM     23  C4  BDP B   2      11.665   5.871  14.3510  0.00  0.00     0.000 C
ATOM     24  C5  BDP B   2      12.651   7.022  14.3130  0.00  0.00     0.000 C
ATOM     25  O5  BDP B   2      13.148   7.176  12.9970  0.00  0.00     0.000 O
ATOM     26   O  BDP B   2      10.028   6.795  11.1470  0.00  0.00     0.000 O
ATOM     28  HD  BDP B   2      10.622   7.393  10.9460  0.00  0.00     0.000 HD
ATOM     28   O  BDP B   2       9.576   5.072  13.3330  0.00  0.00     0.000 O
ATOM     30  HD  BDP B   2      10.170   5.670  13.1320  0.00  0.00     0.000 HD
BRANCH 24 30
ATOM     30   C  BDP B   2      13.815   6.794  15.2100  0.00  0.00     0.000 C
ATOM     31   O  BDP B   2      13.947   7.567  16.1870  0.00  0.00     0.000 OA
ATOM     32   O  BDP B   2      14.608   5.847  14.9380  0.00  0.00     0.000 OA
ENDBRANCH 24 30
BRANCH 20 33
ATOM     33  O3  NAG B   3      12.674   7.498  10.7650  0.00  0.00     0.000 O
BRANCH 33 36
ATOM     34  C1  NAG B   3      14.013  10.894   9.8580  0.00  0.00     0.000 C
ATOM     35  C2  NAG B   3      12.993   9.842  10.2490  0.00  0.00     0.000 C
ATOM     36  C3  NAG B   3      13.671   8.509  10.6010  0.00  0.00     0.000 C
ATOM     37  C4  NAG B   3      14.606   8.101   9.4650  0.00  0.00     0.000 C
ATOM     38  C5  NAG B   3      15.529   9.260   9.0970  0.00  0.00     0.000 C
ATOM     39  O5  NAG B   3      14.759  10.401   8.7550  0.00  0.00     0.000 O
ATOM     40   O  NAG B   3      15.396   6.969   9.8610  0.00  0.00     0.000 O
ATOM     42  HD  NAG B   3      16.043   7.495   9.6270  0.00  0.00     0.000 HD
ATOM     42   C  NAG B   3      16.410   8.986   7.8820  0.00  0.00     0.000 C
ATOM     43   O  NAG B   3      15.590   8.851   6.7150  0.00  0.00     0.000 O
ATOM     45  HD  NAG B   3      16.237   9.377   6.4810  0.00  0.00     0.000 HD
BRANCH 35 47
ATOM     45   N  NAG B   3      12.177  10.239  11.3890  0.00  0.00     0.000 N
ATOM     47  HD  NAG B   3      12.895  10.717  11.3110  0.00  0.00     0.000 HD
ATOM     47   C  NAG B   3      10.859  10.254  11.3570  0.00  0.00     0.000 C
ATOM     48   C  NAG B   3      10.173  10.709  12.6110  0.00  0.00     0.000 C
ATOM     49   O  NAG B   3      10.228   9.938  10.3510  0.00  0.00     0.000 OA
ENDBRANCH 35 47
BRANCH 34 50
ATOM     50  O4  BDP B   4      13.223  11.996   9.4650  0.00  0.00     0.000 O
BRANCH 50 54
ATOM     51  C1  BDP B   4      12.880  16.009  10.0380  0.00  0.00     0.000 C
ATOM     52  C2  BDP B   4      13.486  15.612   8.6970  0.00  0.00     0.000 C
ATOM     53  C3  BDP B   4      13.214  14.159   8.4590  0.00  0.00     0.000 C
ATOM     54  C4  BDP B   4      13.743  13.322   9.6590  0.00  0.00     0.000 C
ATOM     55  C5  BDP B   4      13.275  13.871  11.0000  0.00  0.00     0.000 C
ATOM     56  O5  BDP B   4      13.510  15.275  11.0720  0.00  0.00     0.000 O
ATOM     57   O  BDP B   4      12.911  16.372   7.6550  0.00  0.00     0.000 O
ATOM     59  HD  BDP B   4      13.512  16.965   7.4610  0.00  0.00     0.000 HD
ATOM     59   O  BDP B   4      13.962  13.777   7.2870  0.00  0.00     0.000 O
ATOM     61  HD  BDP B   4      14.563  14.371   7.0920  0.00  0.00     0.000 HD
BRANCH 55 61
ATOM     61   C  BDP B   4      14.036  13.180  12.1170  0.00  0.00     0.000 C
ATOM     62   O  BDP B   4      15.287  13.317  12.1540  0.00  0.00     0.000 OA
ATOM     63   O  BDP B   4      13.376  12.499  12.9610  0.00  0.00     0.000 OA
ENDBRANCH 55 61
BRANCH 51 64
ATOM     64  O3  NAG B   5      13.102  17.422  10.2060  0.00  0.00     0.000 O
BRANCH 64 67
ATOM     65  C1  NAG B   5      10.819  20.004  11.5150  0.00  0.00     0.000 C
ATOM     66  C2  NAG B   5      11.582  19.178  10.4940  0.00  0.00     0.000 C
ATOM     67  C3  NAG B   5      12.252  17.995  11.1800  0.00  0.00     0.000 C
ATOM     68  C4  NAG B   5      13.089  18.457  12.3810  0.00  0.00     0.000 C
ATOM     69  C5  NAG B   5      12.269  19.351  13.2970  0.00  0.00     0.000 C
ATOM     70  O5  NAG B   5      11.690  20.425  12.5400  0.00  0.00     0.000 O
ATOM     71   O  NAG B   5      13.561  17.317  13.0680  0.00  0.00     0.000 O
ATOM     73  HD  NAG B   5      14.287  17.787  13.1020  0.00  0.00     0.000 HD
ATOM     73   C  NAG B   5      13.062  19.964  14.4590  0.00  0.00     0.000 C
ATOM     74   O  NAG B   5      14.079  20.845  13.9390  0.00  0.00     0.000 O
ATOM     76  HD  NAG B   5      14.806  21.315  13.9740  0.00  0.00     0.000 HD
BRANCH 66 78
ATOM     76   N  NAG B   5      10.686  18.638   9.4530  0.00  0.00     0.000 N
ATOM     78  HD  NAG B   5      11.270  19.274   9.5240  0.00  0.00     0.000 HD
ATOM     78   C  NAG B   5      10.718  18.946   8.1470  0.00  0.00     0.000 C
ATOM     79   C  NAG B   5       9.685  18.214   7.3330  0.00  0.00     0.000 C
ATOM     80   O  NAG B   5      11.543  19.789   7.6430  0.00  0.00     0.000 OA
ENDBRANCH 66 78
BRANCH 65 81
ATOM     81  O4  BDP B   6      10.225  21.145  10.8820  0.00  0.00     0.000 O
BRANCH 81 85
ATOM     82  C1  BDP B   6       6.707  23.582  11.1100  0.00  0.00     0.000 C
ATOM     83  C2  BDP B   6       7.737  23.724  12.2280  0.00  0.00     0.000 C
ATOM     84  C3  BDP B   6       9.103  23.141  11.8550  0.00  0.00     0.000 C
ATOM     85  C4  BDP B   6       8.990  21.707  11.3320  0.00  0.00     0.000 C
ATOM     86  C5  BDP B   6       7.898  21.685  10.2370  0.00  0.00     0.000 C
ATOM     87  O5  BDP B   6       6.624  22.217  10.7250  0.00  0.00     0.000 O
ATOM     88   O  BDP B   6       7.863  25.125  12.4530  0.00  0.00     0.000 O
ATOM     90  HD  BDP B   6       8.469  25.725  12.6030  0.00  0.00     0.000 HD
ATOM     90   O  BDP B   6       9.977  23.206  12.9850  0.00  0.00     0.000 O
ATOM     92  HD  BDP B   6      10.583  23.806  13.1350  0.00  0.00     0.000 HD
BRANCH 86 92
ATOM     92   C  BDP B   6       7.568  20.265   9.8460  0.00  0.00     0.000 C
ATOM     93   O  BDP B   6       7.715  19.334  10.6940  0.00  0.00     0.000 OA
ATOM     94   O  BDP B   6       7.128  20.067   8.6700  0.00  0.00     0.000 OA
ENDBRANCH 86 92
BRANCH 82 95
ATOM     95  O3  NAG B   7       5.421  23.974  11.6270  0.00  0.00     0.000 O
BRANCH 95 98
ATOM     96  C1  NAG B   7       2.114  24.643  10.2260  0.00  0.00     0.000 C
ATOM     97  C2  NAG B   7       3.336  24.901  11.0990  0.00  0.00     0.000 C
ATOM     98  C3  NAG B   7       4.250  23.701  10.8590  0.00  0.00     0.000 C
ATOM     99  C4  NAG B   7       3.535  22.414  11.2650  0.00  0.00     0.000 C
ATOM    100  C5  NAG B   7       2.184  22.294  10.5580  0.00  0.00     0.000 C
ATOM    101  O5  NAG B   7       1.450  23.492  10.7610  0.00  0.00     0.000 O
BRANCH 97 104
ATOM    102   N  NAG B   7       4.335  25.962  10.9150  0.00  0.00     0.000 N
ATOM    104  HD  NAG B   7       5.066  26.424  10.9550  0.00  0.00     0.000 HD
ATOM    104   O  NAG B   7       5.221  28.039  11.0950  0.00  0.00     0.000 OA
ATOM    105   C  NAG B   7       4.261  27.261  11.2620  0.00  0.00     0.000 C
ATOM    106   C  NAG B   7       3.004  27.777  11.8760  0.00  0.00     0.000 C
ENDBRANCH 97 104
ATOM    107   O  NAG B   7       0.363  20.862  10.1900  0.00  0.00     0.000 O
ATOM    109  HD  NAG B   7       0.889  21.447   9.8270  0.00  0.00     0.000 HD
ATOM    109   O  NAG B   7       0.363  20.862  10.1900  0.00  0.00     0.000 O
ATOM    111  HD  NAG B   7       0.889  21.447   9.8270  0.00  0.00     0.000 HD
ENDBRANCH 95 98
ENDBRANCH 82 95
ENDBRANCH 81 85
ENDBRANCH 65 81
ENDBRANCH 64 67
ENDBRANCH 51 64
ENDBRANCH 50 54
ENDBRANCH 34 50
ENDBRANCH 33 36
ENDBRANCH 20 33
ENDBRANCH 19 23
ENDBRANCH 1 19
TORSDOF 19
ENDMDL
MODEL 49
REMARK VINA RESULT:      -5.6      5.959     19.021
ROOT
ATOM      1  C1  NAG B   1      13.702  13.438   7.3890  0.00  0.00     0.000 C
ATOM      2  C2  NAG B   1      13.896  14.952   7.3520  0.00  0.00     0.000 C
ATOM      3  C3  NAG B   1      15.076  15.348   6.4880  0.00  0.00     0.000 C
ATOM      4  C4  NAG B   1      16.279  14.622   7.0810  0.00  0.00     0.000 C
ATOM      5  C5  NAG B   1      16.062  13.108   6.9600  0.00  0.00     0.000 C
ATOM      6  O5  NAG B   1      14.890  12.690   7.6910  0.00  0.00     0.000 O
ATOM      7   O  NAG B   1      15.290  16.778   6.4790  0.00  0.00     0.000 O
ATOM      9  HD  NAG B   1      14.427  16.719   6.5270  0.00  0.00     0.000 HD
ATOM      9   O  NAG B   1      17.461  14.994   6.3930  0.00  0.00     0.000 O
ATOM     11  HD  NAG B   1      16.599  14.935   6.4410  0.00  0.00     0.000 HD
ATOM     11   C  NAG B   1      17.318  12.361   7.4240  0.00  0.00     0.000 C
ATOM     12   O  NAG B   1      16.991  11.075   7.9500  0.00  0.00     0.000 O
ATOM     14  HD  NAG B   1      16.129  11.016   7.9980  0.00  0.00     0.000 HD
ENDROOT
BRANCH 2 16
ATOM     14   N  NAG B   1      12.572  15.487   6.9880  0.00  0.00     0.000 N
ATOM     16  HD  NAG B   1      11.728  15.419   7.1680  0.00  0.00     0.000 HD
ATOM     16   C  NAG B   1      11.928  16.414   7.7180  0.00  0.00     0.000 C
ATOM     17   C  NAG B   1      12.547  16.933   8.9890  0.00  0.00     0.000 C
ATOM     18   O  NAG B   1      10.846  16.873   7.3550  0.00  0.00     0.000 OA
ENDBRANCH 2 16
BRANCH 1 19
ATOM     19  O4  BDP B   2      12.830  13.251   8.4960  0.00  0.00     0.000 O
BRANCH 19 23
ATOM     20  C1  BDP B   2      12.982  11.212  12.0680  0.00  0.00     0.000 C
ATOM     21  C2  BDP B   2      13.920  12.393  11.9270  0.00  0.00     0.000 C
ATOM     22  C3  BDP B   2      13.496  13.297  10.7910  0.00  0.00     0.000 C
ATOM     23  C4  BDP B   2      13.357  12.452   9.5280  0.00  0.00     0.000 C
ATOM     24  C5  BDP B   2      12.390  11.314   9.7860  0.00  0.00     0.000 C
ATOM     25  O5  BDP B   2      12.878  10.506  10.8400  0.00  0.00     0.000 O
ATOM     26   O  BDP B   2      13.964  13.129  13.1300  0.00  0.00     0.000 O
ATOM     28  HD  BDP B   2      13.548  12.418  13.3960  0.00  0.00     0.000 HD
ATOM     28   O  BDP B   2      14.463  14.347  10.6350  0.00  0.00     0.000 O
ATOM     30  HD  BDP B   2      14.047  13.635  10.9020  0.00  0.00     0.000 HD
BRANCH 24 30
ATOM     30   C  BDP B   2      12.217  10.442   8.5940  0.00  0.00     0.000 C
ATOM     31   O  BDP B   2      13.236   9.861   8.1550  0.00  0.00     0.000 OA
ATOM     32   O  BDP B   2      11.064  10.340   8.0860  0.00  0.00     0.000 OA
ENDBRANCH 24 30
BRANCH 20 33
ATOM     33  O3  NAG B   3      13.610  10.391  13.0220  0.00  0.00     0.000 O
BRANCH 33 36
ATOM     34  C1  NAG B   3      11.807   7.471  14.5620  0.00  0.00     0.000 C
ATOM     35  C2  NAG B   3      12.262   8.906  14.3780  0.00  0.00     0.000 C
ATOM     36  C3  NAG B   3      13.030   9.085  13.0600  0.00  0.00     0.000 C
ATOM     37  C4  NAG B   3      14.145   8.045  12.9790  0.00  0.00     0.000 C
ATOM     38  C5  NAG B   3      13.592   6.652  13.2640  0.00  0.00     0.000 C
ATOM     39  O5  NAG B   3      12.954   6.634  14.5290  0.00  0.00     0.000 O
ATOM     40   O  NAG B   3      14.742   8.065  11.6730  0.00  0.00     0.000 O
ATOM     42  HD  NAG B   3      14.548   7.222  11.7070  0.00  0.00     0.000 HD
ATOM     42   C  NAG B   3      14.662   5.565  13.3330  0.00  0.00     0.000 C
ATOM     43   O  NAG B   3      15.514   5.803  14.4590  0.00  0.00     0.000 O
ATOM     45  HD  NAG B   3      15.320   4.960  14.4930  0.00  0.00     0.000 HD
BRANCH 35 47
ATOM     45   N  NAG B   3      12.037   9.974  15.3440  0.00  0.00     0.000 N
ATOM     47  HD  NAG B   3      12.876   9.788  15.2420  0.00  0.00     0.000 HD
ATOM     47   C  NAG B   3      11.105  10.894  15.1920  0.00  0.00     0.000 C
ATOM     48   C  NAG B   3      11.020  11.934  16.2700  0.00  0.00     0.000 C
ATOM     49   O  NAG B   3      10.365  10.915  14.2100  0.00  0.00     0.000 OA
ENDBRANCH 35 47
BRANCH 34 50
ATOM     50  O4  BDP B   4      11.231   7.465  15.8510  0.00  0.00     0.000 O
BRANCH 50 54
ATOM     51  C1  BDP B   4       8.455   5.552  18.1290  0.00  0.00     0.000 C
ATOM     52  C2  BDP B   4       9.221   4.646  17.1720  0.00  0.00     0.000 C
ATOM     53  C3  BDP B   4      10.433   5.378  16.6850  0.00  0.00     0.000 C
ATOM     54  C4  BDP B   4      10.009   6.737  16.0570  0.00  0.00     0.000 C
ATOM     55  C5  BDP B   4       9.079   7.529  16.9660  0.00  0.00     0.000 C
ATOM     56  O5  BDP B   4       8.015   6.703  17.4320  0.00  0.00     0.000 O
ATOM     57   O  BDP B   4       9.623   3.464  17.8330  0.00  0.00     0.000 O
ATOM     59  HD  BDP B   4       9.068   2.860  17.5550  0.00  0.00     0.000 HD
ATOM     59   O  BDP B   4      11.021   4.571  15.6430  0.00  0.00     0.000 O
ATOM     61  HD  BDP B   4      10.466   3.967  15.3660  0.00  0.00     0.000 HD
BRANCH 55 61
ATOM     61   C  BDP B   4       8.499   8.699  16.1910  0.00  0.00     0.000 C
ATOM     62   O  BDP B   4       8.255   9.762  16.8210  0.00  0.00     0.000 OA
ATOM     63   O  BDP B   4       8.290   8.552  14.9480  0.00  0.00     0.000 OA
ENDBRANCH 55 61
BRANCH 51 64
ATOM     64  O3  NAG B   5       7.335   4.797  18.6280  0.00  0.00     0.000 O
BRANCH 64 67
ATOM     65  C1  NAG B   5       6.064   4.757  22.0890  0.00  0.00     0.000 C
ATOM     66  C2  NAG B   5       6.861   4.323  20.8710  0.00  0.00     0.000 C
ATOM     67  C3  NAG B   5       6.755   5.380  19.7790  0.00  0.00     0.000 C
ATOM     68  C4  NAG B   5       5.288   5.729  19.4910  0.00  0.00     0.000 C
ATOM     69  C5  NAG B   5       4.551   6.060  20.7790  0.00  0.00     0.000 C
ATOM     70  O5  NAG B   5       4.723   4.996  21.7270  0.00  0.00     0.000 O
ATOM     71   O  NAG B   5       5.251   6.814  18.5880  0.00  0.00     0.000 O
ATOM     73  HD  NAG B   5       4.617   6.342  18.2350  0.00  0.00     0.000 HD
ATOM     73   C  NAG B   5       3.045   6.298  20.6020  0.00  0.00     0.000 C
ATOM     74   O  NAG B   5       2.413   5.084  20.1450  0.00  0.00     0.000 O
ATOM     76  HD  NAG B   5       1.779   4.612  19.7920  0.00  0.00     0.000 HD
BRANCH 66 78
ATOM     76   N  NAG B   5       8.191   4.048  21.4460  0.00  0.00     0.000 N
ATOM     78  HD  NAG B   5       7.609   3.631  20.9580  0.00  0.00     0.000 HD
ATOM     78   C  NAG B   5       8.981   3.005  21.1430  0.00  0.00     0.000 C
ATOM     79   C  NAG B   5      10.291   3.010  21.8850  0.00  0.00     0.000 C
ATOM     80   O  NAG B   5       8.648   2.090  20.3090  0.00  0.00     0.000 OA
ENDBRANCH 66 78
BRANCH 65 81
ATOM     81  O4  BDP B   6       6.122   3.745  23.1030  0.00  0.00     0.000 O
BRANCH 81 85
ATOM     82  C1  BDP B   6       5.705   3.389  27.3530  0.00  0.00     0.000 C
ATOM     83  C2  BDP B   6       4.444   3.241  26.5050  0.00  0.00     0.000 C
ATOM     84  C3  BDP B   6       4.748   2.976  25.0280  0.00  0.00     0.000 C
ATOM     85  C4  BDP B   6       5.731   3.999  24.4540  0.00  0.00     0.000 C
ATOM     86  C5  BDP B   6       6.942   4.085  25.4130  0.00  0.00     0.000 C
ATOM     87  O5  BDP B   6       6.532   4.394  26.7840  0.00  0.00     0.000 O
ATOM     88   O  BDP B   6       3.746   2.127  27.0550  0.00  0.00     0.000 O
ATOM     90  HD  BDP B   6       3.301   1.427  26.8040  0.00  0.00     0.000 HD
ATOM     90   O  BDP B   6       3.528   2.963  24.2820  0.00  0.00     0.000 O
ATOM     92  HD  BDP B   6       3.084   2.263  24.0310  0.00  0.00     0.000 HD
BRANCH 86 92
ATOM     92   C  BDP B   6       7.836   5.241  25.0350  0.00  0.00     0.000 C
ATOM     93   O  BDP B   6       7.489   6.423  25.3390  0.00  0.00     0.000 OA
ATOM     94   O  BDP B   6       8.924   4.971  24.4390  0.00  0.00     0.000 OA
ENDBRANCH 86 92
BRANCH 82 95
ATOM     95  O3  NAG B   7       5.317   3.828  28.6690  0.00  0.00     0.000 O
BRANCH 95 98
ATOM     96  C1  NAG B   7       6.009   2.785  32.1000  0.00  0.00     0.000 C
ATOM     97  C2  NAG B   7       5.146   3.225  30.9250  0.00  0.00     0.000 C
ATOM     98  C3  NAG B   7       6.132   3.478  29.7870  0.00  0.00     0.000 C
ATOM     99  C4  NAG B   7       7.123   4.567  30.1910  0.00  0.00     0.000 C
ATOM    100  C5  NAG B   7       7.806   4.220  31.5150  0.00  0.00     0.000 C
ATOM    101  O5  NAG B   7       6.811   3.910  32.4780  0.00  0.00     0.000 O
BRANCH 97 104
ATOM    102   N  NAG B   7       4.211   2.296  30.2760  0.00  0.00     0.000 N
ATOM    104  HD  NAG B   7       3.755   1.867  29.6770  0.00  0.00     0.000 HD
ATOM    104   O  NAG B   7       2.200   1.392  29.7580  0.00  0.00     0.000 OA
ATOM    105   C  NAG B   7       2.876   2.197  30.4270  0.00  0.00     0.000 C
ATOM    106   C  NAG B   7       2.191   3.084  31.4100  0.00  0.00     0.000 C
ENDBRANCH 97 104
ATOM    107   O  NAG B   7       9.496   4.881  33.0010  0.00  0.00     0.000 O
ATOM    109  HD  NAG B   7       9.105   4.204  32.6300  0.00  0.00     0.000 HD
ATOM    109   O  NAG B   7       9.496   4.881  33.0010  0.00  0.00     0.000 O
ATOM    111  HD  NAG B   7       9.105   4.204  32.6300  0.00  0.00     0.000 HD
ENDBRANCH 95 98
ENDBRANCH 82 95
ENDBRANCH 81 85
ENDBRANCH 65 81
ENDBRANCH 64 67
ENDBRANCH 51 64
ENDBRANCH 50 54
ENDBRANCH 34 50
ENDBRANCH 33 36
ENDBRANCH 20 33
ENDBRANCH 19 23
ENDBRANCH 1 19
TORSDOF 19
ENDMDL
MODEL 50
REMARK VINA RESULT:      -5.6      7.678     14.283
ROOT
ATOM      1  C1  NAG B   1      15.010  12.295   7.3840  0.00  0.00     0.000 C
ATOM      2  C2  NAG B   1      15.653  13.679   7.3430  0.00  0.00     0.000 C
ATOM      3  C3  NAG B   1      16.935  13.682   6.5360  0.00  0.00     0.000 C
ATOM      4  C4  NAG B   1      17.835  12.642   7.1980  0.00  0.00     0.000 C
ATOM      5  C5  NAG B   1      17.179  11.261   7.0800  0.00  0.00     0.000 C
ATOM      6  O5  NAG B   1      15.903  11.232   7.7540  0.00  0.00     0.000 O
ATOM      7   O  NAG B   1      17.570  14.981   6.5250  0.00  0.00     0.000 O
ATOM      9  HD  NAG B   1      16.728  15.184   6.5290  0.00  0.00     0.000 HD
ATOM      9   O  NAG B   1      19.106  12.626   6.5680  0.00  0.00     0.000 O
ATOM     11  HD  NAG B   1      18.264  12.829   6.5720  0.00  0.00     0.000 HD
ATOM     11   C  NAG B   1      18.129  10.183   7.6160  0.00  0.00     0.000 C
ATOM     12   O  NAG B   1      17.406   9.068   8.1360  0.00  0.00     0.000 O
ATOM     14  HD  NAG B   1      16.564   9.271   8.1400  0.00  0.00     0.000 HD
ENDROOT
BRANCH 2 16
ATOM     14   N  NAG B   1      15.059  14.782   8.1190  0.00  0.00     0.000 N
ATOM     16  HD  NAG B   1      15.130  15.631   8.2760  0.00  0.00     0.000 HD
ATOM     16   C  NAG B   1      14.201  15.672   7.5930  0.00  0.00     0.000 C
ATOM     17   C  NAG B   1      13.826  15.585   6.1370  0.00  0.00     0.000 C
ATOM     18   O  NAG B   1      13.687  16.550   8.2850  0.00  0.00     0.000 OA
ENDBRANCH 2 16
BRANCH 1 19
ATOM     19  O4  BDP B   2      14.072  12.405   8.4460  0.00  0.00     0.000 O
BRANCH 19 23
ATOM     20  C1  BDP B   2      13.271  10.332  11.9110  0.00  0.00     0.000 C
ATOM     21  C2  BDP B   2      14.633  10.989  11.8190  0.00  0.00     0.000 C
ATOM     22  C3  BDP B   2      14.661  12.042  10.7340  0.00  0.00     0.000 C
ATOM     23  C4  BDP B   2      14.184  11.407   9.4320  0.00  0.00     0.000 C
ATOM     24  C5  BDP B   2      12.813  10.794   9.6420  0.00  0.00     0.000 C
ATOM     25  O5  BDP B   2      12.886   9.804  10.6490  0.00  0.00     0.000 O
ATOM     26   O  BDP B   2      14.979  11.572  13.0570  0.00  0.00     0.000 O
ATOM     28  HD  BDP B   2      14.290  11.102  13.2910  0.00  0.00     0.000 HD
ATOM     28   O  BDP B   2      15.992  12.570  10.6220  0.00  0.00     0.000 O
ATOM     30  HD  BDP B   2      15.303  12.100  10.8560  0.00  0.00     0.000 HD
BRANCH 24 30
ATOM     30   C  BDP B   2      12.292  10.146   8.4100  0.00  0.00     0.000 C
ATOM     31   O  BDP B   2      11.102  10.379   8.0970  0.00  0.00     0.000 OA
ATOM     32   O  BDP B   2      13.067   9.394   7.7530  0.00  0.00     0.000 OA
ENDBRANCH 24 30
BRANCH 20 33
ATOM     33  O3  NAG B   3      13.465   9.273  12.8160  0.00  0.00     0.000 O
BRANCH 33 36
ATOM     34  C1  NAG B   3      10.511   7.685  14.5200  0.00  0.00     0.000 C
ATOM     35  C2  NAG B   3      11.623   8.687  14.2740  0.00  0.00     0.000 C
ATOM     36  C3  NAG B   3      12.304   8.445  12.9180  0.00  0.00     0.000 C
ATOM     37  C4  NAG B   3      12.729   6.982  12.8200  0.00  0.00     0.000 C
ATOM     38  C5  NAG B   3      11.559   6.066  13.1700  0.00  0.00     0.000 C
ATOM     39  O5  NAG B   3      11.069   6.380  14.4620  0.00  0.00     0.000 O
ATOM     40   O  NAG B   3      13.183   6.691  11.4890  0.00  0.00     0.000 O
ATOM     42  HD  NAG B   3      12.588   6.065  11.5570  0.00  0.00     0.000 HD
ATOM     42   C  NAG B   3      11.929   4.586  13.2240  0.00  0.00     0.000 C
ATOM     43   O  NAG B   3      12.843   4.360  14.3050  0.00  0.00     0.000 O
ATOM     45  HD  NAG B   3      12.248   3.734  14.3720  0.00  0.00     0.000 HD
BRANCH 35 47
ATOM     45   N  NAG B   3      12.018   9.723  15.2200  0.00  0.00     0.000 N
ATOM     47  HD  NAG B   3      12.639   9.132  15.0940  0.00  0.00     0.000 HD
ATOM     47   C  NAG B   3      11.683  10.990  15.0780  0.00  0.00     0.000 C
ATOM     48   C  NAG B   3      12.189  11.929  16.1320  0.00  0.00     0.000 C
ATOM     49   O  NAG B   3      11.018  11.384  14.1220  0.00  0.00     0.000 OA
ENDBRANCH 35 47
BRANCH 34 50
ATOM     50  O4  BDP B   4      10.082   7.978  15.8330  0.00  0.00     0.000 O
BRANCH 50 54
ATOM     51  C1  BDP B   4       6.746   8.409  18.1210  0.00  0.00     0.000 C
ATOM     52  C2  BDP B   4       7.382   7.025  18.1870  0.00  0.00     0.000 C
ATOM     53  C3  BDP B   4       8.767   7.108  17.6230  0.00  0.00     0.000 C
ATOM     54  C4  BDP B   4       8.716   7.707  16.1880  0.00  0.00     0.000 C
ATOM     55  C5  BDP B   4       7.898   8.991  16.1260  0.00  0.00     0.000 C
ATOM     56  O5  BDP B   4       6.639   8.811  16.7680  0.00  0.00     0.000 O
ATOM     57   O  BDP B   4       7.448   6.579  19.5250  0.00  0.00     0.000 O
ATOM     59  HD  BDP B   4       6.803   6.005  19.5950  0.00  0.00     0.000 HD
ATOM     59   O  BDP B   4       9.261   5.756  17.5230  0.00  0.00     0.000 O
ATOM     61  HD  BDP B   4       8.617   5.182  17.5930  0.00  0.00     0.000 HD
BRANCH 55 61
ATOM     61   C  BDP B   4       7.669   9.368  14.6730  0.00  0.00     0.000 C
ATOM     62   O  BDP B   4       6.759   8.767  14.0440  0.00  0.00     0.000 OA
ATOM     63   O  BDP B   4       8.401  10.270  14.1640  0.00  0.00     0.000 OA
ENDBRANCH 55 61
BRANCH 51 64
ATOM     64  O3  NAG B   5       5.443   8.309  18.7290  0.00  0.00     0.000 O
BRANCH 64 67
ATOM     65  C1  NAG B   5       3.601  11.334  19.7520  0.00  0.00     0.000 C
ATOM     66  C2  NAG B   5       4.616  10.206  19.8210  0.00  0.00     0.000 C
ATOM     67  C3  NAG B   5       4.645   9.454  18.4980  0.00  0.00     0.000 C
ATOM     68  C4  NAG B   5       3.234   9.017  18.0800  0.00  0.00     0.000 C
ATOM     69  C5  NAG B   5       2.271  10.193  18.1310  0.00  0.00     0.000 C
ATOM     70  O5  NAG B   5       2.332  10.820  19.4210  0.00  0.00     0.000 O
ATOM     71   O  NAG B   5       3.298   8.463  16.7840  0.00  0.00     0.000 O
ATOM     73  HD  NAG B   5       2.758   7.884  17.1360  0.00  0.00     0.000 HD
ATOM     73   C  NAG B   5       0.808   9.824  17.8520  0.00  0.00     0.000 C
ATOM     74   O  NAG B   5       0.326   8.940  18.8850  0.00  0.00     0.000 O
ATOM     76  HD  NAG B   5      -0.213   8.360  19.2380  0.00  0.00     0.000 HD
BRANCH 66 78
ATOM     76   N  NAG B   5       5.456  10.053  21.0250  0.00  0.00     0.000 N
ATOM     78  HD  NAG B   5       5.565  10.284  20.1980  0.00  0.00     0.000 HD
ATOM     78   C  NAG B   5       6.723  10.473  21.1620  0.00  0.00     0.000 C
ATOM     79   C  NAG B   5       7.306  10.187  22.5200  0.00  0.00     0.000 C
ATOM     80   O  NAG B   5       7.377  11.054  20.2240  0.00  0.00     0.000 OA
ENDBRANCH 66 78
BRANCH 65 81
ATOM     81  O4  BDP B   6       3.536  12.017  21.0110  0.00  0.00     0.000 O
BRANCH 81 85
ATOM     82  C1  BDP B   6       2.948  15.949  22.6110  0.00  0.00     0.000 C
ATOM     83  C2  BDP B   6       1.785  15.314  21.8540  0.00  0.00     0.000 C
ATOM     84  C3  BDP B   6       1.939  13.799  21.6880  0.00  0.00     0.000 C
ATOM     85  C4  BDP B   6       3.302  13.424  21.1020  0.00  0.00     0.000 C
ATOM     86  C5  BDP B   6       4.390  14.152  21.9270  0.00  0.00     0.000 C
ATOM     87  O5  BDP B   6       4.166  15.598  21.9710  0.00  0.00     0.000 O
ATOM     88   O  BDP B   6       0.626  15.592  22.6350  0.00  0.00     0.000 O
ATOM     90  HD  BDP B   6      -0.100  15.209  22.9120  0.00  0.00     0.000 HD
ATOM     90   O  BDP B   6       0.876  13.296  20.8750  0.00  0.00     0.000 O
ATOM     92  HD  BDP B   6       0.151  12.913  21.1520  0.00  0.00     0.000 HD
BRANCH 86 92
ATOM     92   C  BDP B   6       5.738  14.017  21.2610  0.00  0.00     0.000 C
ATOM     93   O  BDP B   6       6.767  13.804  21.9710  0.00  0.00     0.000 OA
ATOM     94   O  BDP B   6       5.777  14.102  19.9940  0.00  0.00     0.000 OA
ENDBRANCH 86 92
BRANCH 82 95
ATOM     95  O3  NAG B   7       2.807  17.381  22.5390  0.00  0.00     0.000 O
BRANCH 95 98
ATOM     96  C1  NAG B   7       3.107  20.444  24.5060  0.00  0.00     0.000 C
ATOM     97  C2  NAG B   7       2.857  19.610  23.2570  0.00  0.00     0.000 C
ATOM     98  C3  NAG B   7       3.103  18.167  23.6930  0.00  0.00     0.000 C
ATOM     99  C4  NAG B   7       4.539  18.013  24.1900  0.00  0.00     0.000 C
ATOM    100  C5  NAG B   7       4.851  19.035  25.2840  0.00  0.00     0.000 C
ATOM    101  O5  NAG B   7       4.500  20.329  24.8180  0.00  0.00     0.000 O
BRANCH 97 104
ATOM    102   N  NAG B   7       1.503  19.526  22.6940  0.00  0.00     0.000 N
ATOM    104  HD  NAG B   7       0.765  19.220  22.3580  0.00  0.00     0.000 HD
ATOM    104   O  NAG B   7      -0.149  19.885  21.1860  0.00  0.00     0.000 OA
ATOM    105   C  NAG B   7       1.016  20.096  21.5750  0.00  0.00     0.000 C
ATOM    106   C  NAG B   7       1.900  20.990  20.7740  0.00  0.00     0.000 C
ENDBRANCH 97 104
ATOM    107   O  NAG B   7       6.463  19.687  26.8590  0.00  0.00     0.000 O
ATOM    109  HD  NAG B   7       5.615  19.591  26.7110  0.00  0.00     0.000 HD
ATOM    109   O  NAG B   7       6.463  19.687  26.8590  0.00  0.00     0.000 O
ATOM    111  HD  NAG B   7       5.615  19.591  26.7110  0.00  0.00     0.000 HD
ENDBRANCH 95 98
ENDBRANCH 82 95
ENDBRANCH 81 85
ENDBRANCH 65 81
ENDBRANCH 64 67
ENDBRANCH 51 64
ENDBRANCH 50 54
ENDBRANCH 34 50
ENDBRANCH 33 36
ENDBRANCH 20 33
ENDBRANCH 19 23
ENDBRANCH 1 19
TORSDOF 19
ENDMDL
MODEL 51
REMARK VINA RESULT:      -5.5      2.724      4.260
ROOT
ATOM      1  C1  NAG B   1       9.623   3.492  19.8480  0.00  0.00     0.000 C
ATOM      2  C2  NAG B   1       8.814   2.824  20.9560  0.00  0.00     0.000 C
ATOM      3  C3  NAG B   1       9.406   3.090  22.3250  0.00  0.00     0.000 C
ATOM      4  C4  NAG B   1      10.839   2.571  22.2580  0.00  0.00     0.000 C
ATOM      5  C5  NAG B   1      11.619   3.382  21.2150  0.00  0.00     0.000 C
ATOM      6  O5  NAG B   1      11.036   3.239  19.9020  0.00  0.00     0.000 O
ATOM      7   O  NAG B   1       8.667   2.428  23.3770  0.00  0.00     0.000 O
ATOM      9  HD  NAG B   1       8.043   2.641  22.8150  0.00  0.00     0.000 HD
ATOM      9   O  NAG B   1      11.462   2.693  23.5260  0.00  0.00     0.000 O
ATOM     11  HD  NAG B   1      10.838   2.905  22.9640  0.00  0.00     0.000 HD
ATOM     11   C  NAG B   1      13.096   2.968  21.2290  0.00  0.00     0.000 C
ATOM     12   O  NAG B   1      13.697   3.151  19.9480  0.00  0.00     0.000 O
ATOM     14  HD  NAG B   1      13.073   3.364  19.3860  0.00  0.00     0.000 HD
ENDROOT
BRANCH 2 16
ATOM     14   N  NAG B   1       7.686   2.034  20.4320  0.00  0.00     0.000 N
ATOM     16  HD  NAG B   1       7.073   1.468  20.6660  0.00  0.00     0.000 HD
ATOM     16   C  NAG B   1       6.401   2.402  20.5780  0.00  0.00     0.000 C
ATOM     17   C  NAG B   1       6.060   3.661  21.3300  0.00  0.00     0.000 C
ATOM     18   O  NAG B   1       5.488   1.742  20.0840  0.00  0.00     0.000 OA
ENDBRANCH 2 16
BRANCH 1 19
ATOM     19  O4  BDP B   2       9.155   2.847  18.6710  0.00  0.00     0.000 O
BRANCH 19 23
ATOM     20  C1  BDP B   2      10.026   5.808  15.9480  0.00  0.00     0.000 C
ATOM     21  C2  BDP B   2       8.834   6.053  16.8510  0.00  0.00     0.000 C
ATOM     22  C3  BDP B   2       8.861   5.137  18.0540  0.00  0.00     0.000 C
ATOM     23  C4  BDP B   2       8.990   3.698  17.5630  0.00  0.00     0.000 C
ATOM     24  C5  BDP B   2      10.218   3.573  16.6830  0.00  0.00     0.000 C
ATOM     25  O5  BDP B   2      10.095   4.440  15.5720  0.00  0.00     0.000 O
ATOM     26   O  BDP B   2       8.811   7.398  17.2770  0.00  0.00     0.000 O
ATOM     28  HD  BDP B   2       9.414   7.440  16.6570  0.00  0.00     0.000 HD
ATOM     28   O  BDP B   2       7.668   5.339  18.8280  0.00  0.00     0.000 O
ATOM     30  HD  BDP B   2       8.271   5.381  18.2080  0.00  0.00     0.000 HD
BRANCH 24 30
ATOM     30   C  BDP B   2      10.397   2.193  16.1600  0.00  0.00     0.000 C
ATOM     31   O  BDP B   2      11.378   1.541  16.5840  0.00  0.00     0.000 OA
ATOM     32   O  BDP B   2       9.562   1.757  15.3160  0.00  0.00     0.000 OA
ENDBRANCH 24 30
BRANCH 20 33
ATOM     33  O3  NAG B   3       9.756   6.588  14.8090  0.00  0.00     0.000 O
BRANCH 33 36
ATOM     34  C1  NAG B   3      12.070   8.765  12.7960  0.00  0.00     0.000 C
ATOM     35  C2  NAG B   3      10.929   8.411  13.7300  0.00  0.00     0.000 C
ATOM     36  C3  NAG B   3      10.952   6.919  14.0990  0.00  0.00     0.000 C
ATOM     37  C4  NAG B   3      11.017   6.083  12.8240  0.00  0.00     0.000 C
ATOM     38  C5  NAG B   3      12.144   6.580  11.9220  0.00  0.00     0.000 C
ATOM     39  O5  NAG B   3      11.961   7.956  11.6330  0.00  0.00     0.000 O
ATOM     40   O  NAG B   3      11.241   4.703  13.1520  0.00  0.00     0.000 O
ATOM     42  HD  NAG B   3      11.902   4.808  12.6020  0.00  0.00     0.000 HD
ATOM     42   C  NAG B   3      12.200   5.885  10.5640  0.00  0.00     0.000 C
ATOM     43   O  NAG B   3      11.024   6.209   9.8110  0.00  0.00     0.000 O
ATOM     45  HD  NAG B   3      11.685   6.314   9.2610  0.00  0.00     0.000 HD
BRANCH 35 47
ATOM     45   N  NAG B   3       9.945   9.390  14.1730  0.00  0.00     0.000 N
ATOM     47  HD  NAG B   3       9.608   8.795  13.6410  0.00  0.00     0.000 HD
ATOM     47   C  NAG B   3       9.926   9.885  15.3940  0.00  0.00     0.000 C
ATOM     48   C  NAG B   3       8.832  10.868  15.6920  0.00  0.00     0.000 C
ATOM     49   O  NAG B   3      10.739   9.542  16.2490  0.00  0.00     0.000 OA
ENDBRANCH 35 47
BRANCH 34 50
ATOM     50  O4  BDP B   4      11.832  10.120  12.4760  0.00  0.00     0.000 O
BRANCH 50 54
ATOM     51  C1  BDP B   4      13.620  13.590  11.3300  0.00  0.00     0.000 C
ATOM     52  C2  BDP B   4      14.018  12.372  10.5040  0.00  0.00     0.000 C
ATOM     53  C3  BDP B   4      13.036  11.272  10.7700  0.00  0.00     0.000 C
ATOM     54  C4  BDP B   4      12.959  10.995  12.2990  0.00  0.00     0.000 C
ATOM     55  C5  BDP B   4      12.759  12.269  13.1090  0.00  0.00     0.000 C
ATOM     56  O5  BDP B   4      13.694  13.266  12.7070  0.00  0.00     0.000 O
ATOM     57   O  BDP B   4      14.005  12.687   9.1280  0.00  0.00     0.000 O
ATOM     59  HD  BDP B   4      14.840  12.782   8.9190  0.00  0.00     0.000 HD
ATOM     59   O  BDP B   4      13.551  10.086  10.1290  0.00  0.00     0.000 O
ATOM     61  HD  BDP B   4      14.385  10.181   9.9190  0.00  0.00     0.000 HD
BRANCH 55 61
ATOM     61   C  BDP B   4      12.960  11.962  14.5820  0.00  0.00     0.000 C
ATOM     62   O  BDP B   4      12.250  12.583  15.4170  0.00  0.00     0.000 OA
ATOM     63   O  BDP B   4      13.829  11.095  14.9020  0.00  0.00     0.000 OA
ENDBRANCH 55 61
BRANCH 51 64
ATOM     64  O3  NAG B   5      14.543  14.647  11.0040  0.00  0.00     0.000 O
BRANCH 64 67
ATOM     65  C1  NAG B   5      13.563  18.074  10.0630  0.00  0.00     0.000 C
ATOM     66  C2  NAG B   5      13.911  16.606   9.8900  0.00  0.00     0.000 C
ATOM     67  C3  NAG B   5      14.009  15.932  11.2520  0.00  0.00     0.000 C
ATOM     68  C4  NAG B   5      14.952  16.706  12.1830  0.00  0.00     0.000 C
ATOM     69  C5  NAG B   5      14.581  18.180  12.2200  0.00  0.00     0.000 C
ATOM     70  O5  NAG B   5      14.521  18.702  10.8840  0.00  0.00     0.000 O
ATOM     71   O  NAG B   5      14.888  16.131  13.4710  0.00  0.00     0.000 O
ATOM     73  HD  NAG B   5      15.745  16.250  13.4350  0.00  0.00     0.000 HD
ATOM     73   C  NAG B   5      15.549  19.056  13.0270  0.00  0.00     0.000 C
ATOM     74   O  NAG B   5      16.850  19.043  12.4020  0.00  0.00     0.000 O
ATOM     76  HD  NAG B   5      17.707  19.162  12.3650  0.00  0.00     0.000 HD
BRANCH 66 78
ATOM     76   N  NAG B   5      13.973  16.092   8.5080  0.00  0.00     0.000 N
ATOM     78  HD  NAG B   5      13.495  15.956   9.2170  0.00  0.00     0.000 HD
ATOM     78   C  NAG B   5      13.051  15.320   7.9110  0.00  0.00     0.000 C
ATOM     79   C  NAG B   5      13.390  14.974   6.4860  0.00  0.00     0.000 C
ATOM     80   O  NAG B   5      11.989  14.909   8.5010  0.00  0.00     0.000 OA
ENDBRANCH 66 78
BRANCH 65 81
ATOM     81  O4  BDP B   6      13.516  18.723   8.7850  0.00  0.00     0.000 O
BRANCH 81 85
ATOM     82  C1  BDP B   6      11.494  21.944   6.8090  0.00  0.00     0.000 C
ATOM     83  C2  BDP B   6      12.621  22.304   7.7740  0.00  0.00     0.000 C
ATOM     84  C3  BDP B   6      13.527  21.115   8.1010  0.00  0.00     0.000 C
ATOM     85  C4  BDP B   6      12.726  19.893   8.5550  0.00  0.00     0.000 C
ATOM     86  C5  BDP B   6      11.600  19.651   7.5220  0.00  0.00     0.000 C
ATOM     87  O5  BDP B   6      10.769  20.841   7.3330  0.00  0.00     0.000 O
ATOM     88   O  BDP B   6      13.379  23.314   7.1130  0.00  0.00     0.000 O
ATOM     90  HD  BDP B   6      14.201  23.548   6.9750  0.00  0.00     0.000 HD
ATOM     90   O  BDP B   6      14.483  21.498   9.0930  0.00  0.00     0.000 O
ATOM     92  HD  BDP B   6      15.305  21.732   8.9540  0.00  0.00     0.000 HD
BRANCH 86 92
ATOM     92   C  BDP B   6      10.630  18.611   8.0290  0.00  0.00     0.000 C
ATOM     93   O  BDP B   6      10.408  17.574   7.3350  0.00  0.00     0.000 OA
ATOM     94   O  BDP B   6      10.088  18.817   9.1590  0.00  0.00     0.000 OA
ENDBRANCH 86 92
BRANCH 82 95
ATOM     95  O3  NAG B   7      10.593  23.066   6.7250  0.00  0.00     0.000 O
BRANCH 95 98
ATOM     96  C1  NAG B   7       9.326  25.301   4.1290  0.00  0.00     0.000 C
ATOM     97  C2  NAG B   7       9.868  24.927   5.5020  0.00  0.00     0.000 C
ATOM     98  C3  NAG B   7      10.027  23.408   5.4610  0.00  0.00     0.000 C
ATOM     99  C4  NAG B   7       8.674  22.752   5.1960  0.00  0.00     0.000 C
ATOM    100  C5  NAG B   7       8.027  23.325   3.9340  0.00  0.00     0.000 C
ATOM    101  O5  NAG B   7       8.012  24.742   4.0280  0.00  0.00     0.000 O
BRANCH 97 104
ATOM    102   N  NAG B   7      11.201  25.450   5.8320  0.00  0.00     0.000 N
ATOM    104  HD  NAG B   7      12.043  25.500   6.0300  0.00  0.00     0.000 HD
ATOM    104   O  NAG B   7      12.766  26.531   7.0620  0.00  0.00     0.000 OA
ATOM    105   C  NAG B   7      11.575  26.210   6.8790  0.00  0.00     0.000 C
ATOM    106   C  NAG B   7      10.540  26.666   7.8500  0.00  0.00     0.000 C
ENDBRANCH 97 104
ATOM    107   O  NAG B   7       6.220  23.083   2.4580  0.00  0.00     0.000 O
ATOM    109  HD  NAG B   7       7.066  23.258   2.5190  0.00  0.00     0.000 HD
ATOM    109   O  NAG B   7       6.220  23.083   2.4580  0.00  0.00     0.000 O
ATOM    111  HD  NAG B   7       7.066  23.258   2.5190  0.00  0.00     0.000 HD
ENDBRANCH 95 98
ENDBRANCH 82 95
ENDBRANCH 81 85
ENDBRANCH 65 81
ENDBRANCH 64 67
ENDBRANCH 51 64
ENDBRANCH 50 54
ENDBRANCH 34 50
ENDBRANCH 33 36
ENDBRANCH 20 33
ENDBRANCH 19 23
ENDBRANCH 1 19
TORSDOF 19
ENDMDL
MODEL 52
REMARK VINA RESULT:      -5.5      7.835     14.333
ROOT
ATOM      1  C1  NAG B   1      14.770  11.908   7.7580  0.00  0.00     0.000 C
ATOM      2  C2  NAG B   1      15.596  13.191   7.7980  0.00  0.00     0.000 C
ATOM      3  C3  NAG B   1      16.851  13.080   6.9550  0.00  0.00     0.000 C
ATOM      4  C4  NAG B   1      17.612  11.882   7.5120  0.00  0.00     0.000 C
ATOM      5  C5  NAG B   1      16.769  10.615   7.3150  0.00  0.00     0.000 C
ATOM      6  O5  NAG B   1      15.515  10.709   8.0230  0.00  0.00     0.000 O
ATOM      7   O  NAG B   1      17.658  14.278   7.0190  0.00  0.00     0.000 O
ATOM      9  HD  NAG B   1      16.853  14.593   7.0630  0.00  0.00     0.000 HD
ATOM      9   O  NAG B   1      18.855  11.740   6.8450  0.00  0.00     0.000 O
ATOM     11  HD  NAG B   1      18.050  12.055   6.8890  0.00  0.00     0.000 HD
ATOM     11   C  NAG B   1      17.572   9.380   7.7420  0.00  0.00     0.000 C
ATOM     12   O  NAG B   1      16.713   8.338   8.2020  0.00  0.00     0.000 O
ATOM     14  HD  NAG B   1      15.908   8.653   8.2460  0.00  0.00     0.000 HD
ENDROOT
BRANCH 2 16
ATOM     14   N  NAG B   1      14.671  14.281   7.4390  0.00  0.00     0.000 N
ATOM     16  HD  NAG B   1      13.870  14.579   7.5790  0.00  0.00     0.000 HD
ATOM     16   C  NAG B   1      14.439  15.339   8.2350  0.00  0.00     0.000 C
ATOM     17   C  NAG B   1      15.118  15.435   9.5750  0.00  0.00     0.000 C
ATOM     18   O  NAG B   1      13.697  16.254   7.8790  0.00  0.00     0.000 OA
ENDBRANCH 2 16
BRANCH 1 19
ATOM     19  O4  BDP B   2      13.878  12.064   8.8530  0.00  0.00     0.000 O
BRANCH 19 23
ATOM     20  C1  BDP B   2      12.875   9.862  12.1830  0.00  0.00     0.000 C
ATOM     21  C2  BDP B   2      14.244  10.512  12.1920  0.00  0.00     0.000 C
ATOM     22  C3  BDP B   2      14.338  11.606  11.1540  0.00  0.00     0.000 C
ATOM     23  C4  BDP B   2      13.929  11.026   9.8030  0.00  0.00     0.000 C
ATOM     24  C5  BDP B   2      12.545  10.417   9.9130  0.00  0.00     0.000 C
ATOM     25  O5  BDP B   2      12.557   9.387  10.8820  0.00  0.00     0.000 O
ATOM     26   O  BDP B   2      14.524  11.042  13.4700  0.00  0.00     0.000 O
ATOM     28  HD  BDP B   2      13.821  10.569  13.6470  0.00  0.00     0.000 HD
ATOM     28   O  BDP B   2      15.676  12.128  11.1360  0.00  0.00     0.000 O
ATOM     30  HD  BDP B   2      14.972  11.654  11.3130  0.00  0.00     0.000 HD
BRANCH 24 30
ATOM     30   C  BDP B   2      12.090   9.822   8.6290  0.00  0.00     0.000 C
ATOM     31   O  BDP B   2      11.084  10.333   8.0840  0.00  0.00     0.000 OA
ATOM     32   O  BDP B   2      12.729   8.836   8.1630  0.00  0.00     0.000 OA
ENDBRANCH 24 30
BRANCH 20 33
ATOM     33  O3  NAG B   3      13.013   8.766  13.0540  0.00  0.00     0.000 O
BRANCH 33 36
ATOM     34  C1  NAG B   3       9.934   7.521  14.8200  0.00  0.00     0.000 C
ATOM     35  C2  NAG B   3      11.124   8.414  14.5280  0.00  0.00     0.000 C
ATOM     36  C3  NAG B   3      11.787   8.043  13.1930  0.00  0.00     0.000 C
ATOM     37  C4  NAG B   3      12.092   6.547  13.1780  0.00  0.00     0.000 C
ATOM     38  C5  NAG B   3      10.849   5.750  13.5680  0.00  0.00     0.000 C
ATOM     39  O5  NAG B   3      10.383   6.174  14.8380  0.00  0.00     0.000 O
ATOM     40   O  NAG B   3      12.524   6.146  11.8690  0.00  0.00     0.000 O
ATOM     42  HD  NAG B   3      11.880   5.575  11.9660  0.00  0.00     0.000 HD
ATOM     42   C  NAG B   3      11.096   4.250  13.7070  0.00  0.00     0.000 C
ATOM     43   O  NAG B   3      11.985   4.011  14.8050  0.00  0.00     0.000 O
ATOM     45  HD  NAG B   3      11.341   3.440  14.9020  0.00  0.00     0.000 HD
BRANCH 35 47
ATOM     45   N  NAG B   3      11.635   9.468  15.3960  0.00  0.00     0.000 N
ATOM     47  HD  NAG B   3      12.210   8.834  15.2670  0.00  0.00     0.000 HD
ATOM     47   C  NAG B   3      11.371  10.745  15.2040  0.00  0.00     0.000 C
ATOM     48   C  NAG B   3      11.992  11.702  16.1790  0.00  0.00     0.000 C
ATOM     49   O  NAG B   3      10.678  11.134  14.2670  0.00  0.00     0.000 OA
ENDBRANCH 35 47
BRANCH 34 50
ATOM     50  O4  BDP B   4       9.525   7.921  16.1120  0.00  0.00     0.000 O
BRANCH 50 54
ATOM     51  C1  BDP B   4       6.204   8.622  18.3550  0.00  0.00     0.000 C
ATOM     52  C2  BDP B   4       6.838   7.253  18.5740  0.00  0.00     0.000 C
ATOM     53  C3  BDP B   4       8.219   7.266  17.9970  0.00  0.00     0.000 C
ATOM     54  C4  BDP B   4       8.160   7.697  16.5030  0.00  0.00     0.000 C
ATOM     55  C5  BDP B   4       7.346   8.968  16.2990  0.00  0.00     0.000 C
ATOM     56  O5  BDP B   4       6.091   8.867  16.9650  0.00  0.00     0.000 O
ATOM     57   O  BDP B   4       6.910   6.962  19.9540  0.00  0.00     0.000 O
ATOM     59  HD  BDP B   4       6.265   6.402  20.0930  0.00  0.00     0.000 HD
ATOM     59   O  BDP B   4       8.709   5.910  18.0490  0.00  0.00     0.000 O
ATOM     61  HD  BDP B   4       8.064   5.350  18.1880  0.00  0.00     0.000 HD
BRANCH 55 61
ATOM     61   C  BDP B   4       7.109   9.177  14.8140  0.00  0.00     0.000 C
ATOM     62   O  BDP B   4       7.875   9.963  14.1980  0.00  0.00     0.000 OA
ATOM     63   O  BDP B   4       6.152   8.550  14.2650  0.00  0.00     0.000 OA
ENDBRANCH 55 61
BRANCH 51 64
ATOM     64  O3  NAG B   5       4.905   8.596  18.9770  0.00  0.00     0.000 O
BRANCH 64 67
ATOM     65  C1  NAG B   5       3.624  11.829  20.2020  0.00  0.00     0.000 C
ATOM     66  C2  NAG B   5       4.500  10.590  20.1340  0.00  0.00     0.000 C
ATOM     67  C3  NAG B   5       4.216   9.824  18.8480  0.00  0.00     0.000 C
ATOM     68  C4  NAG B   5       2.714   9.553  18.6890  0.00  0.00     0.000 C
ATOM     69  C5  NAG B   5       1.914  10.834  18.8650  0.00  0.00     0.000 C
ATOM     70  O5  NAG B   5       2.266  11.464  20.1060  0.00  0.00     0.000 O
ATOM     71   O  NAG B   5       2.490   8.981  17.4180  0.00  0.00     0.000 O
ATOM     73  HD  NAG B   5       1.957   8.473  17.8740  0.00  0.00     0.000 HD
ATOM     73   C  NAG B   5       0.392  10.637  18.8490  0.00  0.00     0.000 C
ATOM     74   O  NAG B   5      -0.003   9.827  19.9760  0.00  0.00     0.000 O
ATOM     76  HD  NAG B   5      -0.536   9.320  20.4320  0.00  0.00     0.000 HD
BRANCH 66 78
ATOM     76   N  NAG B   5       5.853  11.147  20.3240  0.00  0.00     0.000 N
ATOM     78  HD  NAG B   5       5.361  10.532  20.6840  0.00  0.00     0.000 HD
ATOM     78   C  NAG B   5       6.822  10.622  21.0910  0.00  0.00     0.000 C
ATOM     79   C  NAG B   5       8.102  11.413  21.0660  0.00  0.00     0.000 C
ATOM     80   O  NAG B   5       6.669   9.554  21.7850  0.00  0.00     0.000 OA
ENDBRANCH 66 78
BRANCH 65 81
ATOM     81  O4  BDP B   6       3.854  12.529  21.4320  0.00  0.00     0.000 O
BRANCH 81 85
ATOM     82  C1  BDP B   6       3.653  16.483  23.0700  0.00  0.00     0.000 C
ATOM     83  C2  BDP B   6       2.342  15.828  22.6440  0.00  0.00     0.000 C
ATOM     84  C3  BDP B   6       2.463  14.313  22.4670  0.00  0.00     0.000 C
ATOM     85  C4  BDP B   6       3.636  13.936  21.5590  0.00  0.00     0.000 C
ATOM     86  C5  BDP B   6       4.891  14.684  22.0680  0.00  0.00     0.000 C
ATOM     87  O5  BDP B   6       4.671  16.129  22.1460  0.00  0.00     0.000 O
ATOM     88   O  BDP B   6       1.417  16.113  23.6910  0.00  0.00     0.000 O
ATOM     90  HD  BDP B   6       0.790  15.730  24.1500  0.00  0.00     0.000 HD
ATOM     90   O  BDP B   6       1.234  13.789  21.9590  0.00  0.00     0.000 O
ATOM     92  HD  BDP B   6       0.607  13.406  22.4180  0.00  0.00     0.000 HD
BRANCH 86 92
ATOM     92   C  BDP B   6       6.026  14.545  21.0830  0.00  0.00     0.000 C
ATOM     93   O  BDP B   6       5.768  14.360  19.8550  0.00  0.00     0.000 OA
ATOM     94   O  BDP B   6       7.210  14.646  21.5340  0.00  0.00     0.000 OA
ENDBRANCH 86 92
BRANCH 82 95
ATOM     95  O3  NAG B   7       3.484  17.913  23.0160  0.00  0.00     0.000 O
BRANCH 95 98
ATOM     96  C1  NAG B   7       4.021  20.726  25.2830  0.00  0.00     0.000 C
ATOM     97  C2  NAG B   7       3.268  19.885  24.2610  0.00  0.00     0.000 C
ATOM     98  C3  NAG B   7       4.215  18.734  23.9260  0.00  0.00     0.000 C
ATOM     99  C4  NAG B   7       5.517  19.284  23.3480  0.00  0.00     0.000 C
ATOM    100  C5  NAG B   7       6.136  20.321  24.2870  0.00  0.00     0.000 C
ATOM    101  O5  NAG B   7       5.153  21.291  24.6130  0.00  0.00     0.000 O
BRANCH 97 104
ATOM    102   N  NAG B   7       2.041  19.214  24.7100  0.00  0.00     0.000 N
ATOM    104  HD  NAG B   7       1.451  18.606  24.8920  0.00  0.00     0.000 HD
ATOM    104   O  NAG B   7      -0.165  18.701  24.7200  0.00  0.00     0.000 OA
ATOM    105   C  NAG B   7       0.776  19.392  24.2830  0.00  0.00     0.000 C
ATOM    106   C  NAG B   7       0.499  20.432  23.2530  0.00  0.00     0.000 C
ENDBRANCH 97 104
ATOM    107   O  NAG B   7       8.033  21.653  24.6460  0.00  0.00     0.000 O
ATOM    109  HD  NAG B   7       7.430  21.163  25.0270  0.00  0.00     0.000 HD
ATOM    109   O  NAG B   7       8.033  21.653  24.6460  0.00  0.00     0.000 O
ATOM    111  HD  NAG B   7       7.430  21.163  25.0270  0.00  0.00     0.000 HD
ENDBRANCH 95 98
ENDBRANCH 82 95
ENDBRANCH 81 85
ENDBRANCH 65 81
ENDBRANCH 64 67
ENDBRANCH 51 64
ENDBRANCH 50 54
ENDBRANCH 34 50
ENDBRANCH 33 36
ENDBRANCH 20 33
ENDBRANCH 19 23
ENDBRANCH 1 19
TORSDOF 19
ENDMDL
MODEL 53
REMARK VINA RESULT:      -5.5      7.832     20.389
ROOT
ATOM      1  C1  NAG B   1      13.920   7.836   9.9590  0.00  0.00     0.000 C
ATOM      2  C2  NAG B   1      13.559   9.142   9.2570  0.00  0.00     0.000 C
ATOM      3  C3  NAG B   1      14.164   9.224   7.8710  0.00  0.00     0.000 C
ATOM      4  C4  NAG B   1      15.668   9.068   8.0720  0.00  0.00     0.000 C
ATOM      5  C5  NAG B   1      15.956   7.679   8.6570  0.00  0.00     0.000 C
ATOM      6  O5  NAG B   1      15.320   7.514   9.9420  0.00  0.00     0.000 O
ATOM      7   O  NAG B   1      13.859  10.475   7.2150  0.00  0.00     0.000 O
ATOM      9  HD  NAG B   1      13.139  10.324   7.6720  0.00  0.00     0.000 HD
ATOM      9   O  NAG B   1      16.344   9.217   6.8340  0.00  0.00     0.000 O
ATOM     11  HD  NAG B   1      15.624   9.065   7.2920  0.00  0.00     0.000 HD
ATOM     11   C  NAG B   1      17.470   7.450   8.7390  0.00  0.00     0.000 C
ATOM     12   O  NAG B   1      17.802   6.561   9.8050  0.00  0.00     0.000 O
ATOM     14  HD  NAG B   1      17.083   6.410  10.2620  0.00  0.00     0.000 HD
ENDROOT
BRANCH 2 16
ATOM     14   N  NAG B   1      12.095   9.212   9.4090  0.00  0.00     0.000 N
ATOM     16  HD  NAG B   1      11.459   9.143   9.9920  0.00  0.00     0.000 HD
ATOM     16   C  NAG B   1      11.457  10.293   9.8920  0.00  0.00     0.000 C
ATOM     17   C  NAG B   1      12.247  11.497  10.3330  0.00  0.00     0.000 C
ATOM     18   O  NAG B   1      10.229  10.333   9.9580  0.00  0.00     0.000 OA
ENDBRANCH 2 16
BRANCH 1 19
ATOM     19  O4  BDP B   2      13.595   8.097  11.3170  0.00  0.00     0.000 O
BRANCH 19 23
ATOM     20  C1  BDP B   2      12.374   5.708  14.4390  0.00  0.00     0.000 C
ATOM     21  C2  BDP B   2      13.849   6.052  14.3910  0.00  0.00     0.000 C
ATOM     22  C3  BDP B   2      14.106   7.238  13.4890  0.00  0.00     0.000 C
ATOM     23  C4  BDP B   2      13.485   6.950  12.1250  0.00  0.00     0.000 C
ATOM     24  C5  BDP B   2      12.013   6.632  12.2970  0.00  0.00     0.000 C
ATOM     25  O5  BDP B   2      11.868   5.496  13.1290  0.00  0.00     0.000 O
ATOM     26   O  BDP B   2      14.329   6.330  15.6890  0.00  0.00     0.000 O
ATOM     28  HD  BDP B   2      13.553   5.992  15.8770  0.00  0.00     0.000 HD
ATOM     28   O  BDP B   2      15.521   7.467  13.4010  0.00  0.00     0.000 O
ATOM     30  HD  BDP B   2      14.745   7.130  13.5880  0.00  0.00     0.000 HD
BRANCH 24 30
ATOM     30   C  BDP B   2      11.348   6.329  11.0020  0.00  0.00     0.000 C
ATOM     31   O  BDP B   2      10.333   7.000  10.7080  0.00  0.00     0.000 OA
ATOM     32   O  BDP B   2      11.832   5.413  10.2770  0.00  0.00     0.000 OA
ENDBRANCH 24 30
BRANCH 20 33
ATOM     33  O3  NAG B   3      12.330   4.497  15.1530  0.00  0.00     0.000 O
BRANCH 33 36
ATOM     34  C1  NAG B   3       9.208   3.689  17.0890  0.00  0.00     0.000 C
ATOM     35  C2  NAG B   3      10.542   4.341  16.7780  0.00  0.00     0.000 C
ATOM     36  C3  NAG B   3      10.988   4.041  15.3390  0.00  0.00     0.000 C
ATOM     37  C4  NAG B   3      10.941   2.534  15.0980  0.00  0.00     0.000 C
ATOM     38  C5  NAG B   3       9.587   1.972  15.5240  0.00  0.00     0.000 C
ATOM     39  O5  NAG B   3       9.337   2.290  16.8830  0.00  0.00     0.000 O
ATOM     40   O  NAG B   3      11.159   2.251  13.7080  0.00  0.00     0.000 O
ATOM     42  HD  NAG B   3      10.413   1.824  13.8040  0.00  0.00     0.000 HD
ATOM     42   C  NAG B   3       9.496   0.451  15.4410  0.00  0.00     0.000 C
ATOM     43   O  NAG B   3      10.396  -0.136  16.3890  0.00  0.00     0.000 O
ATOM     45  HD  NAG B   3       9.649  -0.564  16.4860  0.00  0.00     0.000 HD
BRANCH 35 47
ATOM     45   N  NAG B   3      11.358   5.118  17.7020  0.00  0.00     0.000 N
ATOM     47  HD  NAG B   3      11.761   4.406  17.4190  0.00  0.00     0.000 HD
ATOM     47   C  NAG B   3      11.369   6.436  17.7140  0.00  0.00     0.000 C
ATOM     48   C  NAG B   3      12.281   7.080  18.7160  0.00  0.00     0.000 C
ATOM     49   O  NAG B   3      10.693   7.101  16.9320  0.00  0.00     0.000 OA
ENDBRANCH 35 47
BRANCH 34 50
ATOM     50  O4  BDP B   4       9.011   3.969  18.4590  0.00  0.00     0.000 O
BRANCH 50 54
ATOM     51  C1  BDP B   4       6.085   4.319  21.2640  0.00  0.00     0.000 C
ATOM     52  C2  BDP B   4       5.807   3.275  20.1880  0.00  0.00     0.000 C
ATOM     53  C3  BDP B   4       7.084   2.984  19.4620  0.00  0.00     0.000 C
ATOM     54  C4  BDP B   4       7.689   4.307  18.9110  0.00  0.00     0.000 C
ATOM     55  C5  BDP B   4       7.766   5.395  19.9740  0.00  0.00     0.000 C
ATOM     56  O5  BDP B   4       6.518   5.519  20.6510  0.00  0.00     0.000 O
ATOM     57   O  BDP B   4       5.319   2.086  20.7730  0.00  0.00     0.000 O
ATOM     59  HD  BDP B   4       4.468   2.100  20.6180  0.00  0.00     0.000 HD
ATOM     59   O  BDP B   4       6.746   2.147  18.3360  0.00  0.00     0.000 O
ATOM     61  HD  BDP B   4       5.894   2.161  18.1810  0.00  0.00     0.000 HD
BRANCH 55 61
ATOM     61   C  BDP B   4       8.108   6.718  19.3120  0.00  0.00     0.000 C
ATOM     62   O  BDP B   4       8.879   7.503  19.9240  0.00  0.00     0.000 OA
ATOM     63   O  BDP B   4       7.604   6.969  18.1750  0.00  0.00     0.000 OA
ENDBRANCH 55 61
BRANCH 51 64
ATOM     64  O3  NAG B   5       4.854   4.528  21.9840  0.00  0.00     0.000 O
BRANCH 64 67
ATOM     65  C1  NAG B   5       4.761   5.050  25.6320  0.00  0.00     0.000 C
ATOM     66  C2  NAG B   5       4.813   4.300  24.3130  0.00  0.00     0.000 C
ATOM     67  C3  NAG B   5       5.038   5.279  23.1680  0.00  0.00     0.000 C
ATOM     68  C4  NAG B   5       4.014   6.422  23.2120  0.00  0.00     0.000 C
ATOM     69  C5  NAG B   5       3.968   7.050  24.5960  0.00  0.00     0.000 C
ATOM     70  O5  NAG B   5       3.753   6.034  25.5860  0.00  0.00     0.000 O
ATOM     71   O  NAG B   5       4.359   7.375  22.2290  0.00  0.00     0.000 O
ATOM     73  HD  NAG B   5       3.503   7.371  22.0980  0.00  0.00     0.000 HD
ATOM     73   C  NAG B   5       2.881   8.119  24.7690  0.00  0.00     0.000 C
ATOM     74   O  NAG B   5       1.579   7.514  24.6230  0.00  0.00     0.000 O
ATOM     76  HD  NAG B   5       0.723   7.510  24.4920  0.00  0.00     0.000 HD
BRANCH 66 78
ATOM     76   N  NAG B   5       5.849   3.280  24.5700  0.00  0.00     0.000 N
ATOM     78  HD  NAG B   5       5.029   3.299  24.2910  0.00  0.00     0.000 HD
ATOM     78   C  NAG B   5       5.795   1.991  24.2020  0.00  0.00     0.000 C
ATOM     79   C  NAG B   5       7.017   1.204  24.5930  0.00  0.00     0.000 C
ATOM     80   O  NAG B   5       4.796   1.476  23.5850  0.00  0.00     0.000 OA
ENDBRANCH 66 78
BRANCH 65 81
ATOM     81  O4  BDP B   6       4.504   4.138  26.7080  0.00  0.00     0.000 O
BRANCH 81 85
ATOM     82  C1  BDP B   6       5.004   3.890  30.9570  0.00  0.00     0.000 C
ATOM     83  C2  BDP B   6       3.747   4.579  30.4340  0.00  0.00     0.000 C
ATOM     84  C3  BDP B   6       3.462   4.261  28.9640  0.00  0.00     0.000 C
ATOM     85  C4  BDP B   6       4.685   4.507  28.0770  0.00  0.00     0.000 C
ATOM     86  C5  BDP B   6       5.894   3.793  28.7260  0.00  0.00     0.000 C
ATOM     87  O5  BDP B   6       6.099   4.216  30.1120  0.00  0.00     0.000 O
ATOM     88   O  BDP B   6       2.681   4.090  31.2430  0.00  0.00     0.000 O
ATOM     90  HD  BDP B   6       1.862   3.817  31.1740  0.00  0.00     0.000 HD
ATOM     90   O  BDP B   6       2.342   5.028  28.5150  0.00  0.00     0.000 O
ATOM     92  HD  BDP B   6       1.523   4.754  28.4460  0.00  0.00     0.000 HD
BRANCH 86 92
ATOM     92   C  BDP B   6       7.177   4.189  28.0360  0.00  0.00     0.000 C
ATOM     93   O  BDP B   6       7.727   5.294  28.3280  0.00  0.00     0.000 OA
ATOM     94   O  BDP B   6       7.666   3.373  27.1950  0.00  0.00     0.000 OA
ENDBRANCH 86 92
BRANCH 82 95
ATOM     95  O3  NAG B   7       5.291   4.406  32.2720  0.00  0.00     0.000 O
BRANCH 95 98
ATOM     96  C1  NAG B   7       5.822   3.027  35.6120  0.00  0.00     0.000 C
ATOM     97  C2  NAG B   7       5.262   3.994  34.5770  0.00  0.00     0.000 C
ATOM     98  C3  NAG B   7       5.865   3.540  33.2490  0.00  0.00     0.000 C
ATOM     99  C4  NAG B   7       7.388   3.614  33.3170  0.00  0.00     0.000 C
ATOM    100  C5  NAG B   7       7.920   2.833  34.5200  0.00  0.00     0.000 C
ATOM    101  O5  NAG B   7       7.233   3.260  35.6860  0.00  0.00     0.000 O
BRANCH 97 104
ATOM    102   N  NAG B   7       3.813   3.962  34.3360  0.00  0.00     0.000 N
ATOM    104  HD  NAG B   7       3.042   3.895  33.9480  0.00  0.00     0.000 HD
ATOM    104   O  NAG B   7       1.703   4.779  34.2300  0.00  0.00     0.000 OA
ATOM    105   C  NAG B   7       2.901   4.932  34.5400  0.00  0.00     0.000 C
ATOM    106   C  NAG B   7       3.340   6.225  35.1380  0.00  0.00     0.000 C
ENDBRANCH 97 104
ATOM    107   O  NAG B   7       9.877   2.067  35.5630  0.00  0.00     0.000 O
ATOM    109  HD  NAG B   7       9.058   1.869  35.3600  0.00  0.00     0.000 HD
ATOM    109   O  NAG B   7       9.877   2.067  35.5630  0.00  0.00     0.000 O
ATOM    111  HD  NAG B   7       9.058   1.869  35.3600  0.00  0.00     0.000 HD
ENDBRANCH 95 98
ENDBRANCH 82 95
ENDBRANCH 81 85
ENDBRANCH 65 81
ENDBRANCH 64 67
ENDBRANCH 51 64
ENDBRANCH 50 54
ENDBRANCH 34 50
ENDBRANCH 33 36
ENDBRANCH 20 33
ENDBRANCH 19 23
ENDBRANCH 1 19
TORSDOF 19
ENDMDL
MODEL 54
REMARK VINA RESULT:      -5.5      7.901     15.892
ROOT
ATOM      1  C1  NAG B   1       4.892  21.839   7.6700  0.00  0.00     0.000 C
ATOM      2  C2  NAG B   1       4.221  21.578   6.3240  0.00  0.00     0.000 C
ATOM      3  C3  NAG B   1       2.764  21.197   6.4840  0.00  0.00     0.000 C
ATOM      4  C4  NAG B   1       2.761  19.965   7.3830  0.00  0.00     0.000 C
ATOM      5  C5  NAG B   1       3.328  20.344   8.7580  0.00  0.00     0.000 C
ATOM      6  O5  NAG B   1       4.691  20.807   8.6480  0.00  0.00     0.000 O
ATOM      7   O  NAG B   1       2.132  20.911   5.2160  0.00  0.00     0.000 O
ATOM      9  HD  NAG B   1       2.686  21.543   5.0100  0.00  0.00     0.000 HD
ATOM      9   O  NAG B   1       1.441  19.469   7.5290  0.00  0.00     0.000 O
ATOM     11  HD  NAG B   1       1.995  20.102   7.3230  0.00  0.00     0.000 HD
ATOM     11   C  NAG B   1       3.208  19.155   9.7190  0.00  0.00     0.000 C
ATOM     12   O  NAG B   1       4.235  19.184  10.7090  0.00  0.00     0.000 O
ATOM     14  HD  NAG B   1       4.789  19.816  10.5030  0.00  0.00     0.000 HD
ENDROOT
BRANCH 2 16
ATOM     14   N  NAG B   1       5.087  21.653   5.1340  0.00  0.00     0.000 N
ATOM     16  HD  NAG B   1       5.085  21.561   4.2730  0.00  0.00     0.000 HD
ATOM     16   C  NAG B   1       5.114  22.714   4.3090  0.00  0.00     0.000 C
ATOM     17   C  NAG B   1       4.209  23.890   4.5680  0.00  0.00     0.000 C
ATOM     18   O  NAG B   1       5.887  22.761   3.3530  0.00  0.00     0.000 OA
ENDBRANCH 2 16
BRANCH 1 19
ATOM     19  O4  BDP B   2       6.277  21.813   7.3520  0.00  0.00     0.000 O
BRANCH 19 23
ATOM     20  C1  BDP B   2       9.640  20.055   8.9460  0.00  0.00     0.000 C
ATOM     21  C2  BDP B   2       8.658  19.129   8.2580  0.00  0.00     0.000 C
ATOM     22  C3  BDP B   2       7.710  19.899   7.3680  0.00  0.00     0.000 C
ATOM     23  C4  BDP B   2       7.056  21.001   8.1970  0.00  0.00     0.000 C
ATOM     24  C5  BDP B   2       8.132  21.866   8.8230  0.00  0.00     0.000 C
ATOM     25  O5  BDP B   2       8.952  21.072   9.6600  0.00  0.00     0.000 O
ATOM     26   O  BDP B   2       9.348  18.163   7.4950  0.00  0.00     0.000 O
ATOM     28  HD  BDP B   2      10.002  18.499   7.9520  0.00  0.00     0.000 HD
ATOM     28   O  BDP B   2       6.742  18.995   6.8130  0.00  0.00     0.000 O
ATOM     30  HD  BDP B   2       7.396  19.331   7.2700  0.00  0.00     0.000 HD
BRANCH 24 30
ATOM     30   C  BDP B   2       7.561  22.957   9.6570  0.00  0.00     0.000 C
ATOM     31   O  BDP B   2       7.808  24.135   9.3100  0.00  0.00     0.000 OA
ATOM     32   O  BDP B   2       6.871  22.642  10.6680  0.00  0.00     0.000 OA
ENDBRANCH 24 30
BRANCH 20 33
ATOM     33  O3  NAG B   3      10.311  19.222   9.8600  0.00  0.00     0.000 O
BRANCH 33 36
ATOM     34  C1  NAG B   3      14.018  19.149  10.4910  0.00  0.00     0.000 C
ATOM     35  C2  NAG B   3      12.678  18.717   9.9280  0.00  0.00     0.000 C
ATOM     36  C3  NAG B   3      11.586  19.756  10.2250  0.00  0.00     0.000 C
ATOM     37  C4  NAG B   3      11.580  20.070  11.7190  0.00  0.00     0.000 C
ATOM     38  C5  NAG B   3      12.991  20.408  12.1940  0.00  0.00     0.000 C
ATOM     39  O5  NAG B   3      13.872  19.339  11.8900  0.00  0.00     0.000 O
ATOM     40   O  NAG B   3      10.708  21.180  11.9840  0.00  0.00     0.000 O
ATOM     42  HD  NAG B   3      11.423  21.492  12.3600  0.00  0.00     0.000 HD
ATOM     42   C  NAG B   3      13.102  20.609  13.7030  0.00  0.00     0.000 C
ATOM     43   O  NAG B   3      12.829  19.372  14.3730  0.00  0.00     0.000 O
ATOM     45  HD  NAG B   3      13.544  19.684  14.7490  0.00  0.00     0.000 HD
BRANCH 35 47
ATOM     45   N  NAG B   3      12.549  17.452   9.2150  0.00  0.00     0.000 N
ATOM     47  HD  NAG B   3      12.184  17.431  10.0000  0.00  0.00     0.000 HD
ATOM     47   C  NAG B   3      12.329  17.379   7.9170  0.00  0.00     0.000 C
ATOM     48   C  NAG B   3      12.202  15.999   7.3450  0.00  0.00     0.000 C
ATOM     49   O  NAG B   3      12.208  18.384   7.2200  0.00  0.00     0.000 OA
ENDBRANCH 35 47
BRANCH 34 50
ATOM     50  O4  BDP B   4      14.861  18.046  10.2300  0.00  0.00     0.000 O
BRANCH 50 54
ATOM     51  C1  BDP B   4      18.590  16.925   9.0490  0.00  0.00     0.000 C
ATOM     52  C2  BDP B   4      18.525  17.533  10.4450  0.00  0.00     0.000 C
ATOM     53  C3  BDP B   4      17.097  17.549  10.8960  0.00  0.00     0.000 C
ATOM     54  C4  BDP B   4      16.224  18.295   9.8460  0.00  0.00     0.000 C
ATOM     55  C5  BDP B   4      16.465  17.792   8.4290  0.00  0.00     0.000 C
ATOM     56  O5  BDP B   4      17.861  17.741   8.1500  0.00  0.00     0.000 O
ATOM     57   O  BDP B   4      19.292  16.766  11.3490  0.00  0.00     0.000 O
ATOM     59  HD  BDP B   4      20.018  17.223  11.4620  0.00  0.00     0.000 HD
ATOM     59   O  BDP B   4      17.053  18.301  12.1260  0.00  0.00     0.000 O
ATOM     61  HD  BDP B   4      17.780  18.759  12.2390  0.00  0.00     0.000 HD
BRANCH 55 61
ATOM     61   C  BDP B   4      15.792  18.730   7.4430  0.00  0.00     0.000 C
ATOM     62   O  BDP B   4      15.757  19.957   7.7250  0.00  0.00     0.000 OA
ATOM     63   O  BDP B   4      15.300  18.236   6.3830  0.00  0.00     0.000 OA
ENDBRANCH 55 61
BRANCH 51 64
ATOM     64  O3  NAG B   5      19.979  16.864   8.6730  0.00  0.00     0.000 O
BRANCH 64 67
ATOM     65  C1  NAG B   5      20.895  14.366   6.1210  0.00  0.00     0.000 C
ATOM     66  C2  NAG B   5      20.454  14.915   7.4670  0.00  0.00     0.000 C
ATOM     67  C3  NAG B   5      20.165  16.406   7.3480  0.00  0.00     0.000 C
ATOM     68  C4  NAG B   5      21.348  17.148   6.7120  0.00  0.00     0.000 C
ATOM     69  C5  NAG B   5      21.776  16.471   5.4200  0.00  0.00     0.000 C
ATOM     70  O5  NAG B   5      22.019  15.077   5.6560  0.00  0.00     0.000 O
ATOM     71   O  NAG B   5      20.971  18.490   6.4860  0.00  0.00     0.000 O
ATOM     73  HD  NAG B   5      21.771  18.638   6.7840  0.00  0.00     0.000 HD
ATOM     73   C  NAG B   5      23.035  17.070   4.7780  0.00  0.00     0.000 C
ATOM     74   O  NAG B   5      24.163  16.879   5.6570  0.00  0.00     0.000 O
ATOM     76  HD  NAG B   5      24.963  17.027   5.9550  0.00  0.00     0.000 HD
BRANCH 66 78
ATOM     76   N  NAG B   5      20.278  13.971   8.5870  0.00  0.00     0.000 N
ATOM     78  HD  NAG B   5      19.776  14.482   8.1000  0.00  0.00     0.000 HD
ATOM     78   C  NAG B   5      19.107  13.495   9.0410  0.00  0.00     0.000 C
ATOM     79   C  NAG B   5      19.256  12.531  10.1860  0.00  0.00     0.000 C
ATOM     80   O  NAG B   5      17.972  13.837   8.5510  0.00  0.00     0.000 OA
ENDBRANCH 66 78
BRANCH 65 81
ATOM     81  O4  BDP B   6      21.213  12.973   6.2380  0.00  0.00     0.000 O
BRANCH 81 85
ATOM     82  C1  BDP B   6      20.850   9.307   4.0480  0.00  0.00     0.000 C
ATOM     83  C2  BDP B   6      21.785  10.375   3.4860  0.00  0.00     0.000 C
ATOM     84  C3  BDP B   6      22.157  11.443   4.5180  0.00  0.00     0.000 C
ATOM     85  C4  BDP B   6      20.921  12.036   5.1990  0.00  0.00     0.000 C
ATOM     86  C5  BDP B   6      20.041  10.863   5.6920  0.00  0.00     0.000 C
ATOM     87  O5  BDP B   6      19.707   9.937   4.6090  0.00  0.00     0.000 O
ATOM     88   O  BDP B   6      22.958   9.677   3.0790  0.00  0.00     0.000 O
ATOM     90  HD  BDP B   6      23.821   9.754   3.0970  0.00  0.00     0.000 HD
ATOM     90   O  BDP B   6      22.936  12.465   3.8920  0.00  0.00     0.000 O
ATOM     92  HD  BDP B   6      23.798  12.542   3.9100  0.00  0.00     0.000 HD
BRANCH 86 92
ATOM     92   C  BDP B   6      18.698  11.368   6.1600  0.00  0.00     0.000 C
ATOM     93   O  BDP B   6      18.124  10.802   7.1390  0.00  0.00     0.000 OA
ATOM     94   O  BDP B   6      18.205  12.370   5.5540  0.00  0.00     0.000 OA
ENDBRANCH 86 92
BRANCH 82 95
ATOM     95  O3  NAG B   7      20.407   8.474   2.9600  0.00  0.00     0.000 O
BRANCH 95 98
ATOM     96  C1  NAG B   7      19.942   4.882   2.4880  0.00  0.00     0.000 C
ATOM     97  C2  NAG B   7      20.445   6.278   2.1460  0.00  0.00     0.000 C
ATOM     98  C3  NAG B   7      19.884   7.177   3.2450  0.00  0.00     0.000 C
ATOM     99  C4  NAG B   7      18.358   7.116   3.2370  0.00  0.00     0.000 C
ATOM    100  C5  NAG B   7      17.870   5.669   3.3330  0.00  0.00     0.000 C
ATOM    101  O5  NAG B   7      18.519   4.898   2.3340  0.00  0.00     0.000 O
BRANCH 97 104
ATOM    102   N  NAG B   7      21.896   6.502   2.2070  0.00  0.00     0.000 N
ATOM    104  HD  NAG B   7      22.675   6.818   2.4170  0.00  0.00     0.000 HD
ATOM    104   O  NAG B   7      23.948   7.069   1.4330  0.00  0.00     0.000 OA
ATOM    105   C  NAG B   7      22.739   6.854   1.2170  0.00  0.00     0.000 C
ATOM    106   C  NAG B   7      22.208   7.004  -0.1670  0.00  0.00     0.000 C
ENDBRANCH 97 104
ATOM    107   O  NAG B   7      15.959   4.331   3.5810  0.00  0.00     0.000 O
ATOM    109  HD  NAG B   7      16.790   4.427   3.8050  0.00  0.00     0.000 HD
ATOM    109   O  NAG B   7      15.959   4.331   3.5810  0.00  0.00     0.000 O
ATOM    111  HD  NAG B   7      16.790   4.427   3.8050  0.00  0.00     0.000 HD
ENDBRANCH 95 98
ENDBRANCH 82 95
ENDBRANCH 81 85
ENDBRANCH 65 81
ENDBRANCH 64 67
ENDBRANCH 51 64
ENDBRANCH 50 54
ENDBRANCH 34 50
ENDBRANCH 33 36
ENDBRANCH 20 33
ENDBRANCH 19 23
ENDBRANCH 1 19
TORSDOF 19
ENDMDL
MODEL 55
REMARK VINA RESULT:      -5.5      7.776     11.589
ROOT
ATOM      1  C1  NAG B   1      18.779   4.890   4.7590  0.00  0.00     0.000 C
ATOM      2  C2  NAG B   1      18.569   3.425   4.3860  0.00  0.00     0.000 C
ATOM      3  C3  NAG B   1      19.341   3.045   3.1390  0.00  0.00     0.000 C
ATOM      4  C4  NAG B   1      18.855   3.997   2.0510  0.00  0.00     0.000 C
ATOM      5  C5  NAG B   1      19.221   5.435   2.4410  0.00  0.00     0.000 C
ATOM      6  O5  NAG B   1      18.585   5.817   3.6790  0.00  0.00     0.000 O
ATOM      7   O  NAG B   1      19.116   1.668   2.7570  0.00  0.00     0.000 O
ATOM      9  HD  NAG B   1      19.091   1.628   3.6210  0.00  0.00     0.000 HD
ATOM      9   O  NAG B   1      19.456   3.668   0.8100  0.00  0.00     0.000 O
ATOM     11  HD  NAG B   1      19.431   3.628   1.6750  0.00  0.00     0.000 HD
ATOM     11   C  NAG B   1      18.864   6.394   1.2990  0.00  0.00     0.000 C
ATOM     12   O  NAG B   1      18.558   7.697   1.7940  0.00  0.00     0.000 O
ATOM     14  HD  NAG B   1      18.533   7.657   2.6590  0.00  0.00     0.000 HD
ENDROOT
BRANCH 2 16
ATOM     14   N  NAG B   1      18.603   2.944   5.7780  0.00  0.00     0.000 N
ATOM     16  HD  NAG B   1      18.136   2.908   6.5070  0.00  0.00     0.000 HD
ATOM     16   C  NAG B   1      18.002   1.810   6.1780  0.00  0.00     0.000 C
ATOM     17   C  NAG B   1      17.227   0.980   5.1890  0.00  0.00     0.000 C
ATOM     18   O  NAG B   1      18.094   1.414   7.3400  0.00  0.00     0.000 OA
ENDBRANCH 2 16
BRANCH 1 19
ATOM     19  O4  BDP B   2      17.730   5.142   5.6850  0.00  0.00     0.000 O
BRANCH 19 23
ATOM     20  C1  BDP B   2      16.901   8.118   8.4040  0.00  0.00     0.000 C
ATOM     21  C2  BDP B   2      16.454   8.366   6.9780  0.00  0.00     0.000 C
ATOM     22  C3  BDP B   2      16.423   7.080   6.1820  0.00  0.00     0.000 C
ATOM     23  C4  BDP B   2      17.786   6.405   6.3030  0.00  0.00     0.000 C
ATOM     24  C5  BDP B   2      18.119   6.199   7.7680  0.00  0.00     0.000 C
ATOM     25  O5  BDP B   2      18.155   7.452   8.4260  0.00  0.00     0.000 O
ATOM     26   O  BDP B   2      15.177   8.966   6.9620  0.00  0.00     0.000 O
ATOM     28  HD  BDP B   2      15.375   9.039   7.8020  0.00  0.00     0.000 HD
ATOM     28   O  BDP B   2      16.086   7.376   4.8180  0.00  0.00     0.000 O
ATOM     30  HD  BDP B   2      16.285   7.449   5.6580  0.00  0.00     0.000 HD
BRANCH 24 30
ATOM     30   C  BDP B   2      19.444   5.553   7.9580  0.00  0.00     0.000 C
ATOM     31   O  BDP B   2      20.460   6.238   7.6960  0.00  0.00     0.000 OA
ATOM     32   O  BDP B   2      19.477   4.356   8.3620  0.00  0.00     0.000 OA
ENDBRANCH 24 30
BRANCH 20 33
ATOM     33  O3  NAG B   3      17.054   9.410   8.9410  0.00  0.00     0.000 O
BRANCH 33 36
ATOM     34  C1  NAG B   3      16.210  10.272  12.5030  0.00  0.00     0.000 C
ATOM     35  C2  NAG B   3      16.002  10.093  11.0120  0.00  0.00     0.000 C
ATOM     36  C3  NAG B   3      17.197   9.377  10.3630  0.00  0.00     0.000 C
ATOM     37  C4  NAG B   3      18.487  10.098  10.7470  0.00  0.00     0.000 C
ATOM     38  C5  NAG B   3      18.551  10.299  12.2590  0.00  0.00     0.000 C
ATOM     39  O5  NAG B   3      17.407  11.011  12.7000  0.00  0.00     0.000 O
ATOM     40   O  NAG B   3      19.623   9.331  10.3190  0.00  0.00     0.000 O
ATOM     42  HD  NAG B   3      19.838   9.413  11.1540  0.00  0.00     0.000 HD
ATOM     42   C  NAG B   3      19.747  11.128  12.7210  0.00  0.00     0.000 C
ATOM     43   O  NAG B   3      19.622  12.467  12.2270  0.00  0.00     0.000 O
ATOM     45  HD  NAG B   3      19.836  12.549  13.0620  0.00  0.00     0.000 HD
BRANCH 35 47
ATOM     45   N  NAG B   3      14.812  10.579  10.3260  0.00  0.00     0.000 N
ATOM     47  HD  NAG B   3      15.525  11.021  10.1100  0.00  0.00     0.000 HD
ATOM     47   C  NAG B   3      13.860   9.779   9.8880  0.00  0.00     0.000 C
ATOM     48   C  NAG B   3      12.712  10.442   9.1850  0.00  0.00     0.000 C
ATOM     49   O  NAG B   3      13.921   8.559  10.0230  0.00  0.00     0.000 OA
ENDBRANCH 35 47
BRANCH 34 50
ATOM     50  O4  BDP B   4      15.090  11.033  12.9070  0.00  0.00     0.000 O
BRANCH 50 54
ATOM     51  C1  BDP B   4      12.682  11.882  16.0750  0.00  0.00     0.000 C
ATOM     52  C2  BDP B   4      14.173  11.885  16.3950  0.00  0.00     0.000 C
ATOM     53  C3  BDP B   4      14.940  11.936  15.1100  0.00  0.00     0.000 C
ATOM     54  C4  BDP B   4      14.499  10.762  14.1890  0.00  0.00     0.000 C
ATOM     55  C5  BDP B   4      12.985  10.669  14.0530  0.00  0.00     0.000 C
ATOM     56  O5  BDP B   4      12.366  10.717  15.3350  0.00  0.00     0.000 O
ATOM     57   O  BDP B   4      14.502  13.011  17.1810  0.00  0.00     0.000 O
ATOM     59  HD  BDP B   4      14.591  12.698  17.9840  0.00  0.00     0.000 HD
ATOM     59   O  BDP B   4      16.330  11.742  15.4420  0.00  0.00     0.000 O
ATOM     61  HD  BDP B   4      16.419  11.429  16.2450  0.00  0.00     0.000 HD
BRANCH 55 61
ATOM     61   C  BDP B   4      12.622   9.362  13.3710  0.00  0.00     0.000 C
ATOM     62   O  BDP B   4      11.640   9.359  12.5840  0.00  0.00     0.000 OA
ATOM     63   O  BDP B   4      13.326   8.337  13.6250  0.00  0.00     0.000 OA
ENDBRANCH 55 61
BRANCH 51 64
ATOM     64  O3  NAG B   5      11.975  11.898  17.3300  0.00  0.00     0.000 O
BRANCH 64 67
ATOM     65  C1  NAG B   5       8.954  13.917  17.9540  0.00  0.00     0.000 C
ATOM     66  C2  NAG B   5      10.431  13.577  17.8560  0.00  0.00     0.000 C
ATOM     67  C3  NAG B   5      10.607  12.223  17.1800  0.00  0.00     0.000 C
ATOM     68  C4  NAG B   5       9.749  11.150  17.8630  0.00  0.00     0.000 C
ATOM     69  C5  NAG B   5       8.309  11.619  17.9990  0.00  0.00     0.000 C
ATOM     70  O5  NAG B   5       8.271  12.898  18.6470  0.00  0.00     0.000 O
ATOM     71   O  NAG B   5       9.831   9.959  17.1090  0.00  0.00     0.000 O
ATOM     73  HD  NAG B   5       9.890   9.607  17.8980  0.00  0.00     0.000 HD
ATOM     73   C  NAG B   5       7.404  10.661  18.7850  0.00  0.00     0.000 C
ATOM     74   O  NAG B   5       7.866  10.569  20.1490  0.00  0.00     0.000 O
ATOM     76  HD  NAG B   5       7.925  10.217  20.9380  0.00  0.00     0.000 HD
BRANCH 66 78
ATOM     76   N  NAG B   5      11.038  14.708  17.1280  0.00  0.00     0.000 N
ATOM     78  HD  NAG B   5      11.118  14.334  17.9050  0.00  0.00     0.000 HD
ATOM     78   C  NAG B   5      12.132  15.390  17.5010  0.00  0.00     0.000 C
ATOM     79   C  NAG B   5      12.517  16.480  16.5370  0.00  0.00     0.000 C
ATOM     80   O  NAG B   5      12.781  15.143  18.5790  0.00  0.00     0.000 OA
ENDBRANCH 66 78
BRANCH 65 81
ATOM     81  O4  BDP B   6       8.780  15.169  18.6310  0.00  0.00     0.000 O
BRANCH 81 85
ATOM     82  C1  BDP B   6       5.861  18.281  19.0240  0.00  0.00     0.000 C
ATOM     83  C2  BDP B   6       5.362  16.839  19.0430  0.00  0.00     0.000 C
ATOM     84  C3  BDP B   6       6.479  15.826  19.3080  0.00  0.00     0.000 C
ATOM     85  C4  BDP B   6       7.669  16.028  18.3680  0.00  0.00     0.000 C
ATOM     86  C5  BDP B   6       8.058  17.525  18.4090  0.00  0.00     0.000 C
ATOM     87  O5  BDP B   6       6.924  18.393  18.0880  0.00  0.00     0.000 O
ATOM     88   O  BDP B   6       4.406  16.782  20.0980  0.00  0.00     0.000 O
ATOM     90  HD  BDP B   6       4.162  16.267  20.7500  0.00  0.00     0.000 HD
ATOM     90   O  BDP B   6       5.958  14.499  19.1970  0.00  0.00     0.000 O
ATOM     92  HD  BDP B   6       5.714  13.984  19.8490  0.00  0.00     0.000 HD
BRANCH 86 92
ATOM     92   C  BDP B   6       9.068  17.840  17.3310  0.00  0.00     0.000 C
ATOM     93   O  BDP B   6       8.829  17.497  16.1340  0.00  0.00     0.000 OA
ATOM     94   O  BDP B   6      10.118  18.465  17.6760  0.00  0.00     0.000 OA
ENDBRANCH 86 92
BRANCH 82 95
ATOM     95  O3  NAG B   7       4.785  19.128  18.5750  0.00  0.00     0.000 O
BRANCH 95 98
ATOM     96  C1  NAG B   7       3.303  22.278  19.6810  0.00  0.00     0.000 C
ATOM     97  C2  NAG B   7       3.307  20.830  19.2080  0.00  0.00     0.000 C
ATOM     98  C3  NAG B   7       4.777  20.503  18.9570  0.00  0.00     0.000 C
ATOM     99  C4  NAG B   7       5.343  21.440  17.8930  0.00  0.00     0.000 C
ATOM    100  C5  NAG B   7       5.107  22.903  18.2720  0.00  0.00     0.000 C
ATOM    101  O5  NAG B   7       3.732  23.083  18.5770  0.00  0.00     0.000 O
BRANCH 97 104
ATOM    102   N  NAG B   7       2.928  19.739  20.1160  0.00  0.00     0.000 N
ATOM    104  HD  NAG B   7       2.914  18.982  20.5370  0.00  0.00     0.000 HD
ATOM    104   O  NAG B   7       1.613  18.103  20.9680  0.00  0.00     0.000 OA
ATOM    105   C  NAG B   7       1.770  19.053  20.1760  0.00  0.00     0.000 C
ATOM    106   C  NAG B   7       0.656  19.432  19.2620  0.00  0.00     0.000 C
ENDBRANCH 97 104
ATOM    107   O  NAG B   7       5.592  25.116  17.6640  0.00  0.00     0.000 O
ATOM    109  HD  NAG B   7       5.492  24.570  18.3280  0.00  0.00     0.000 HD
ATOM    109   O  NAG B   7       5.592  25.116  17.6640  0.00  0.00     0.000 O
ATOM    111  HD  NAG B   7       5.492  24.570  18.3280  0.00  0.00     0.000 HD
ENDBRANCH 95 98
ENDBRANCH 82 95
ENDBRANCH 81 85
ENDBRANCH 65 81
ENDBRANCH 64 67
ENDBRANCH 51 64
ENDBRANCH 50 54
ENDBRANCH 34 50
ENDBRANCH 33 36
ENDBRANCH 20 33
ENDBRANCH 19 23
ENDBRANCH 1 19
TORSDOF 19
ENDMDL
MODEL 56
REMARK VINA RESULT:      -5.5      5.296     16.667
ROOT
ATOM      1  C1  NAG B   1      17.685  16.322   3.5290  0.00  0.00     0.000 C
ATOM      2  C2  NAG B   1      18.273  17.010   2.3000  0.00  0.00     0.000 C
ATOM      3  C3  NAG B   1      18.430  16.052   1.1380  0.00  0.00     0.000 C
ATOM      4  C4  NAG B   1      19.320  14.926   1.6540  0.00  0.00     0.000 C
ATOM      5  C5  NAG B   1      18.601  14.202   2.8000  0.00  0.00     0.000 C
ATOM      6  O5  NAG B   1      18.341  15.099   3.9010  0.00  0.00     0.000 O
ATOM      7   O  NAG B   1      19.023  16.688  -0.0180  0.00  0.00     0.000 O
ATOM      9  HD  NAG B   1      18.546  17.326   0.3230  0.00  0.00     0.000 HD
ATOM      9   O  NAG B   1      19.604  14.010   0.6100  0.00  0.00     0.000 O
ATOM     11  HD  NAG B   1      19.127  14.648   0.9510  0.00  0.00     0.000 HD
ATOM     11   C  NAG B   1      19.418  12.982   3.2430  0.00  0.00     0.000 C
ATOM     12   O  NAG B   1      19.198  12.683   4.6200  0.00  0.00     0.000 O
ATOM     14  HD  NAG B   1      18.721  13.321   4.9600  0.00  0.00     0.000 HD
ENDROOT
BRANCH 2 16
ATOM     14   N  NAG B   1      17.476  18.180   1.8880  0.00  0.00     0.000 N
ATOM     16  HD  NAG B   1      16.965  18.808   2.1940  0.00  0.00     0.000 HD
ATOM     16   C  NAG B   1      17.910  19.446   2.0130  0.00  0.00     0.000 C
ATOM     17   C  NAG B   1      19.259  19.721   2.6240  0.00  0.00     0.000 C
ATOM     18   O  NAG B   1      17.236  20.394   1.6120  0.00  0.00     0.000 OA
ENDBRANCH 2 16
BRANCH 1 19
ATOM     19  O4  BDP B   2      17.955  17.244   4.5760  0.00  0.00     0.000 O
BRANCH 19 23
ATOM     20  C1  BDP B   2      15.027  15.952   7.1640  0.00  0.00     0.000 C
ATOM     21  C2  BDP B   2      14.580  16.875   6.0490  0.00  0.00     0.000 C
ATOM     22  C3  BDP B   2      15.613  16.942   4.9470  0.00  0.00     0.000 C
ATOM     23  C4  BDP B   2      16.957  17.313   5.5670  0.00  0.00     0.000 C
ATOM     24  C5  BDP B   2      17.302  16.317   6.6560  0.00  0.00     0.000 C
ATOM     25  O5  BDP B   2      16.301  16.342   7.6560  0.00  0.00     0.000 O
ATOM     26   O  BDP B   2      13.346  16.441   5.5200  0.00  0.00     0.000 O
ATOM     28  HD  BDP B   2      13.393  15.949   6.2310  0.00  0.00     0.000 HD
ATOM     28   O  BDP B   2      15.191  17.897   3.9610  0.00  0.00     0.000 O
ATOM     30  HD  BDP B   2      15.238  17.406   4.6730  0.00  0.00     0.000 HD
BRANCH 24 30
ATOM     30   C  BDP B   2      18.600  16.628   7.3110  0.00  0.00     0.000 C
ATOM     31   O  BDP B   2      18.638  17.628   8.0650  0.00  0.00     0.000 OA
ATOM     32   O  BDP B   2      19.590  15.880   7.0700  0.00  0.00     0.000 OA
ENDBRANCH 24 30
BRANCH 20 33
ATOM     33  O3  NAG B   3      14.064  16.145   8.1720  0.00  0.00     0.000 O
BRANCH 33 36
ATOM     34  C1  NAG B   3      13.661  13.337  10.6430  0.00  0.00     0.000 C
ATOM     35  C2  NAG B   3      13.541  14.081   9.3270  0.00  0.00     0.000 C
ATOM     36  C3  NAG B   3      14.363  15.380   9.3420  0.00  0.00     0.000 C
ATOM     37  C4  NAG B   3      13.991  16.198  10.5760  0.00  0.00     0.000 C
ATOM     38  C5  NAG B   3      14.063  15.330  11.8290  0.00  0.00     0.000 C
ATOM     39  O5  NAG B   3      13.221  14.199  11.6820  0.00  0.00     0.000 O
ATOM     40   O  NAG B   3      14.886  17.312  10.7150  0.00  0.00     0.000 O
ATOM     42  HD  NAG B   3      14.990  16.972  11.5040  0.00  0.00     0.000 HD
ATOM     42   C  NAG B   3      13.580  16.032  13.0960  0.00  0.00     0.000 C
ATOM     43   O  NAG B   3      12.180  16.313  12.9840  0.00  0.00     0.000 O
ATOM     45  HD  NAG B   3      12.283  15.972  13.7740  0.00  0.00     0.000 HD
BRANCH 35 47
ATOM     45   N  NAG B   3      12.751  13.763   8.1450  0.00  0.00     0.000 N
ATOM     47  HD  NAG B   3      12.588  14.556   8.4510  0.00  0.00     0.000 HD
ATOM     47   C  NAG B   3      13.226  13.071   7.1290  0.00  0.00     0.000 C
ATOM     48   C  NAG B   3      12.285  12.849   5.9820  0.00  0.00     0.000 C
ATOM     49   O  NAG B   3      14.382  12.654   7.1090  0.00  0.00     0.000 OA
ENDBRANCH 35 47
BRANCH 34 50
ATOM     50  O4  BDP B   4      12.770  12.251  10.4940  0.00  0.00     0.000 O
BRANCH 50 54
ATOM     51  C1  BDP B   4      12.525   9.023  12.9580  0.00  0.00     0.000 C
ATOM     52  C2  BDP B   4      13.798   9.845  13.1190  0.00  0.00     0.000 C
ATOM     53  C3  BDP B   4      13.600  11.172  12.4530  0.00  0.00     0.000 C
ATOM     54  C4  BDP B   4      13.175  10.957  10.9710  0.00  0.00     0.000 C
ATOM     55  C5  BDP B   4      12.024   9.970  10.8360  0.00  0.00     0.000 C
ATOM     56  O5  BDP B   4      12.293   8.785  11.5810  0.00  0.00     0.000 O
ATOM     57   O  BDP B   4      14.081  10.047  14.4880  0.00  0.00     0.000 O
ATOM     59  HD  BDP B   4      14.723   9.493  14.6620  0.00  0.00     0.000 HD
ATOM     59   O  BDP B   4      14.878  11.839  12.4560  0.00  0.00     0.000 O
ATOM     61  HD  BDP B   4      15.520  11.285  12.6310  0.00  0.00     0.000 HD
BRANCH 55 61
ATOM     61   C  BDP B   4      11.843   9.608   9.3720  0.00  0.00     0.000 C
ATOM     62   O  BDP B   4      11.108  10.347   8.6680  0.00  0.00     0.000 OA
ATOM     63   O  BDP B   4      12.443   8.581   8.9290  0.00  0.00     0.000 OA
ENDBRANCH 55 61
BRANCH 51 64
ATOM     64  O3  NAG B   5      12.725   7.783  13.6630  0.00  0.00     0.000 O
BRANCH 64 67
ATOM     65  C1  NAG B   5      10.033   6.284  15.6880  0.00  0.00     0.000 C
ATOM     66  C2  NAG B   5      11.184   7.207  15.3280  0.00  0.00     0.000 C
ATOM     67  C3  NAG B   5      11.523   7.062  13.8500  0.00  0.00     0.000 C
ATOM     68  C4  NAG B   5      11.746   5.590  13.4780  0.00  0.00     0.000 C
ATOM     69  C5  NAG B   5      10.587   4.732  13.9590  0.00  0.00     0.000 C
ATOM     70  O5  NAG B   5      10.363   4.954  15.3600  0.00  0.00     0.000 O
ATOM     71   O  NAG B   5      11.904   5.497  12.0780  0.00  0.00     0.000 O
ATOM     73  HD  NAG B   5      12.532   4.946  12.3070  0.00  0.00     0.000 HD
ATOM     73   C  NAG B   5      10.783   3.225  13.7430  0.00  0.00     0.000 C
ATOM     74   O  NAG B   5      11.901   2.765  14.5300  0.00  0.00     0.000 O
ATOM     76  HD  NAG B   5      12.529   2.214  14.7590  0.00  0.00     0.000 HD
BRANCH 66 78
ATOM     76   N  NAG B   5      10.749   8.570  15.6910  0.00  0.00     0.000 N
ATOM     78  HD  NAG B   5      11.366   8.013  15.9320  0.00  0.00     0.000 HD
ATOM     78   C  NAG B   5      11.426   9.436  16.4600  0.00  0.00     0.000 C
ATOM     79   C  NAG B   5      10.728  10.758  16.6320  0.00  0.00     0.000 C
ATOM     80   O  NAG B   5      12.555   9.161  17.0040  0.00  0.00     0.000 OA
ENDBRANCH 66 78
BRANCH 65 81
ATOM     81  O4  BDP B   6       9.741   6.382  17.0880  0.00  0.00     0.000 O
BRANCH 81 85
ATOM     82  C1  BDP B   6       6.574   5.563  19.8560  0.00  0.00     0.000 C
ATOM     83  C2  BDP B   6       7.032   4.423  18.9510  0.00  0.00     0.000 C
ATOM     84  C3  BDP B   6       8.399   4.683  18.3120  0.00  0.00     0.000 C
ATOM     85  C4  BDP B   6       8.458   6.048  17.6220  0.00  0.00     0.000 C
ATOM     86  C5  BDP B   6       7.940   7.109  18.6220  0.00  0.00     0.000 C
ATOM     87  O5  BDP B   6       6.605   6.780  19.1240  0.00  0.00     0.000 O
ATOM     88   O  BDP B   6       7.109   3.276  19.7930  0.00  0.00     0.000 O
ATOM     90  HD  BDP B   6       7.618   2.592  19.9430  0.00  0.00     0.000 HD
ATOM     90   O  BDP B   6       8.706   3.631  17.3930  0.00  0.00     0.000 O
ATOM     92  HD  BDP B   6       9.215   2.947  17.5440  0.00  0.00     0.000 HD
BRANCH 86 92
ATOM     92   C  BDP B   6       7.748   8.438  17.9320  0.00  0.00     0.000 C
ATOM     93   O  BDP B   6       8.072   9.506  18.5340  0.00  0.00     0.000 OA
ATOM     94   O  BDP B   6       7.283   8.423  16.7500  0.00  0.00     0.000 OA
ENDBRANCH 86 92
BRANCH 82 95
ATOM     95  O3  NAG B   7       5.209   5.315  20.2440  0.00  0.00     0.000 O
BRANCH 95 98
ATOM     96  C1  NAG B   7       3.442   5.822  23.4000  0.00  0.00     0.000 C
ATOM     97  C2  NAG B   7       3.989   5.026  22.2220  0.00  0.00     0.000 C
ATOM     98  C3  NAG B   7       4.642   6.068  21.3150  0.00  0.00     0.000 C
ATOM     99  C4  NAG B   7       3.601   7.089  20.8650  0.00  0.00     0.000 C
ATOM    100  C5  NAG B   7       2.882   7.703  22.0670  0.00  0.00     0.000 C
ATOM    101  O5  NAG B   7       2.395   6.658  22.8950  0.00  0.00     0.000 O
BRANCH 97 104
ATOM    102   N  NAG B   7       5.043   4.057  22.5520  0.00  0.00     0.000 N
ATOM    104  HD  NAG B   7       5.807   3.652  22.6000  0.00  0.00     0.000 HD
ATOM    104   O  NAG B   7       6.091   2.049  22.5680  0.00  0.00     0.000 OA
ATOM    105   C  NAG B   7       5.096   2.740  22.2740  0.00  0.00     0.000 C
ATOM    106   C  NAG B   7       3.940   2.097  21.5860  0.00  0.00     0.000 C
ENDBRANCH 97 104
ATOM    107   O  NAG B   7       1.353   9.361  22.7130  0.00  0.00     0.000 O
ATOM    109  HD  NAG B   7       2.088   8.955  22.9240  0.00  0.00     0.000 HD
ATOM    109   O  NAG B   7       1.353   9.361  22.7130  0.00  0.00     0.000 O
ATOM    111  HD  NAG B   7       2.088   8.955  22.9240  0.00  0.00     0.000 HD
ENDBRANCH 95 98
ENDBRANCH 82 95
ENDBRANCH 81 85
ENDBRANCH 65 81
ENDBRANCH 64 67
ENDBRANCH 51 64
ENDBRANCH 50 54
ENDBRANCH 34 50
ENDBRANCH 33 36
ENDBRANCH 20 33
ENDBRANCH 19 23
ENDBRANCH 1 19
TORSDOF 19
ENDMDL
MODEL 57
REMARK VINA RESULT:      -5.4      7.543     14.711
ROOT
ATOM      1  C1  NAG B   1      14.869  13.782   7.5200  0.00  0.00     0.000 C
ATOM      2  C2  NAG B   1      14.645  15.196   6.9920  0.00  0.00     0.000 C
ATOM      3  C3  NAG B   1      15.494  15.484   5.7710  0.00  0.00     0.000 C
ATOM      4  C4  NAG B   1      16.935  15.250   6.2120  0.00  0.00     0.000 C
ATOM      5  C5  NAG B   1      17.110  13.777   6.6010  0.00  0.00     0.000 C
ATOM      6  O5  NAG B   1      16.248  13.424   7.7040  0.00  0.00     0.000 O
ATOM      7   O  NAG B   1      15.315  16.835   5.2880  0.00  0.00     0.000 O
ATOM      9  HD  NAG B   1      14.524  16.633   5.5760  0.00  0.00     0.000 HD
ATOM      9   O  NAG B   1      17.827  15.578   5.1590  0.00  0.00     0.000 O
ATOM     11  HD  NAG B   1      17.035  15.377   5.4470  0.00  0.00     0.000 HD
ATOM     11   C  NAG B   1      18.583  13.490   6.9160  0.00  0.00     0.000 C
ATOM     12   O  NAG B   1      18.713  12.429   7.8620  0.00  0.00     0.000 O
ATOM     14  HD  NAG B   1      17.921  12.228   8.1500  0.00  0.00     0.000 HD
ENDROOT
BRANCH 2 16
ATOM     14   N  NAG B   1      13.172  15.245   6.9650  0.00  0.00     0.000 N
ATOM     16  HD  NAG B   1      12.470  15.140   7.4610  0.00  0.00     0.000 HD
ATOM     16   C  NAG B   1      12.463  16.293   7.4180  0.00  0.00     0.000 C
ATOM     17   C  NAG B   1      13.173  17.481   8.0120  0.00  0.00     0.000 C
ATOM     18   O  NAG B   1      11.235  16.318   7.3330  0.00  0.00     0.000 OA
ENDBRANCH 2 16
BRANCH 1 19
ATOM     19  O4  BDP B   2      14.300  13.829   8.8220  0.00  0.00     0.000 O
BRANCH 19 23
ATOM     20  C1  BDP B   2      13.495  10.999  11.7000  0.00  0.00     0.000 C
ATOM     21  C2  BDP B   2      14.834  11.699  11.8010  0.00  0.00     0.000 C
ATOM     22  C3  BDP B   2      14.850  12.971  10.9850  0.00  0.00     0.000 C
ATOM     23  C4  BDP B   2      14.425  12.636   9.5580  0.00  0.00     0.000 C
ATOM     24  C5  BDP B   2      13.071  11.952   9.5830  0.00  0.00     0.000 C
ATOM     25  O5  BDP B   2      13.156  10.761  10.3410  0.00  0.00     0.000 O
ATOM     26   O  BDP B   2      15.132  11.994  13.1480  0.00  0.00     0.000 O
ATOM     28  HD  BDP B   2      14.455  11.463  13.2490  0.00  0.00     0.000 HD
ATOM     28   O  BDP B   2      16.164  13.549  11.0340  0.00  0.00     0.000 O
ATOM     30  HD  BDP B   2      15.487  13.018  11.1350  0.00  0.00     0.000 HD
BRANCH 24 30
ATOM     30   C  BDP B   2      12.601  11.587   8.2210  0.00  0.00     0.000 C
ATOM     31   O  BDP B   2      11.832  12.390   7.6440  0.00  0.00     0.000 OA
ATOM     32   O  BDP B   2      12.991  10.492   7.7240  0.00  0.00     0.000 OA
ENDBRANCH 24 30
BRANCH 20 33
ATOM     33  O3  NAG B   3      13.705   9.767  12.3460  0.00  0.00     0.000 O
BRANCH 33 36
ATOM     34  C1  NAG B   3      10.821   8.027  14.0220  0.00  0.00     0.000 C
ATOM     35  C2  NAG B   3      11.970   9.003  13.8530  0.00  0.00     0.000 C
ATOM     36  C3  NAG B   3      12.505   8.993  12.4120  0.00  0.00     0.000 C
ATOM     37  C4  NAG B   3      12.820   7.557  12.0010  0.00  0.00     0.000 C
ATOM     38  C5  NAG B   3      11.628   6.649  12.2930  0.00  0.00     0.000 C
ATOM     39  O5  NAG B   3      11.282   6.732  13.6650  0.00  0.00     0.000 O
ATOM     40   O  NAG B   3      13.128   7.504  10.5990  0.00  0.00     0.000 O
ATOM     42  HD  NAG B   3      12.502   6.906  10.6100  0.00  0.00     0.000 HD
ATOM     42   C  NAG B   3      11.901   5.169  12.0330  0.00  0.00     0.000 C
ATOM     43   O  NAG B   3      12.893   4.696  12.9520  0.00  0.00     0.000 O
ATOM     45  HD  NAG B   3      12.267   4.099  12.9630  0.00  0.00     0.000 HD
BRANCH 35 47
ATOM     45   N  NAG B   3      12.560   9.830  14.8970  0.00  0.00     0.000 N
ATOM     47  HD  NAG B   3      13.126   9.271  14.5550  0.00  0.00     0.000 HD
ATOM     47   C  NAG B   3      12.259  11.103  15.0600  0.00  0.00     0.000 C
ATOM     48   C  NAG B   3      12.973  11.814  16.1710  0.00  0.00     0.000 C
ATOM     49   O  NAG B   3      11.461  11.682  14.3270  0.00  0.00     0.000 OA
ENDBRANCH 35 47
BRANCH 34 50
ATOM     50  O4  BDP B   4      10.535   8.084  15.4040  0.00  0.00     0.000 O
BRANCH 50 54
ATOM     51  C1  BDP B   4       7.380   8.431  17.9490  0.00  0.00     0.000 C
ATOM     52  C2  BDP B   4       7.996   7.038  17.8920  0.00  0.00     0.000 C
ATOM     53  C3  BDP B   4       9.338   7.133  17.2340  0.00  0.00     0.000 C
ATOM     54  C4  BDP B   4       9.193   7.812  15.8420  0.00  0.00     0.000 C
ATOM     55  C5  BDP B   4       8.396   9.108  15.9090  0.00  0.00     0.000 C
ATOM     56  O5  BDP B   4       7.184   8.910  16.6300  0.00  0.00     0.000 O
ATOM     57   O  BDP B   4       8.149   6.517  19.1950  0.00  0.00     0.000 O
ATOM     59  HD  BDP B   4       7.502   5.948  19.2800  0.00  0.00     0.000 HD
ATOM     59   O  BDP B   4       9.800   5.783  17.0240  0.00  0.00     0.000 O
ATOM     61  HD  BDP B   4       9.152   5.214  17.1090  0.00  0.00     0.000 HD
BRANCH 55 61
ATOM     61   C  BDP B   4       8.070   9.569  14.5000  0.00  0.00     0.000 C
ATOM     62   O  BDP B   4       8.619  10.621  14.0800  0.00  0.00     0.000 OA
ATOM     63   O  BDP B   4       7.262   8.873  13.8130  0.00  0.00     0.000 OA
ENDBRANCH 55 61
BRANCH 51 64
ATOM     64  O3  NAG B   5       6.123   8.315  18.6430  0.00  0.00     0.000 O
BRANCH 64 67
ATOM     65  C1  NAG B   5       4.493  11.301  20.0630  0.00  0.00     0.000 C
ATOM     66  C2  NAG B   5       5.466  10.140  19.9520  0.00  0.00     0.000 C
ATOM     67  C3  NAG B   5       5.353   9.499  18.5750  0.00  0.00     0.000 C
ATOM     68  C4  NAG B   5       3.895   9.142  18.2520  0.00  0.00     0.000 C
ATOM     69  C5  NAG B   5       2.985  10.339  18.4810  0.00  0.00     0.000 C
ATOM     70  O5  NAG B   5       3.181  10.855  19.8060  0.00  0.00     0.000 O
ATOM     71   O  NAG B   5       3.825   8.695  16.9150  0.00  0.00     0.000 O
ATOM     73  HD  NAG B   5       3.297   8.106  17.2660  0.00  0.00     0.000 HD
ATOM     73   C  NAG B   5       1.490  10.039  18.3050  0.00  0.00     0.000 C
ATOM     74   O  NAG B   5       1.066   9.088  19.3040  0.00  0.00     0.000 O
ATOM     76  HD  NAG B   5       0.538   8.499  19.6550  0.00  0.00     0.000 HD
BRANCH 66 78
ATOM     76   N  NAG B   5       6.659  10.821  20.4920  0.00  0.00     0.000 N
ATOM     78  HD  NAG B   5       6.299  10.035  20.5380  0.00  0.00     0.000 HD
ATOM     78   C  NAG B   5       7.690  10.230  21.1170  0.00  0.00     0.000 C
ATOM     79   C  NAG B   5       8.768  11.192  21.5360  0.00  0.00     0.000 C
ATOM     80   O  NAG B   5       7.745   8.969  21.3430  0.00  0.00     0.000 OA
ENDBRANCH 66 78
BRANCH 65 81
ATOM     81  O4  BDP B   6       4.563  11.879  21.3730  0.00  0.00     0.000 O
BRANCH 81 85
ATOM     82  C1  BDP B   6       3.742  15.604  23.3270  0.00  0.00     0.000 C
ATOM     83  C2  BDP B   6       2.595  14.604  23.2030  0.00  0.00     0.000 C
ATOM     84  C3  BDP B   6       3.074  13.187  22.8760  0.00  0.00     0.000 C
ATOM     85  C4  BDP B   6       4.012  13.165  21.6680  0.00  0.00     0.000 C
ATOM     86  C5  BDP B   6       5.104  14.237  21.8930  0.00  0.00     0.000 C
ATOM     87  O5  BDP B   6       4.527  15.559  22.1440  0.00  0.00     0.000 O
ATOM     88   O  BDP B   6       1.949  14.608  24.4740  0.00  0.00     0.000 O
ATOM     90  HD  BDP B   6       1.600  14.060  25.0460  0.00  0.00     0.000 HD
ATOM     90   O  BDP B   6       1.944  12.337  22.6640  0.00  0.00     0.000 O
ATOM     92  HD  BDP B   6       1.595  11.789  23.2370  0.00  0.00     0.000 HD
BRANCH 86 92
ATOM     92   C  BDP B   6       5.921  14.434  20.6390  0.00  0.00     0.000 C
ATOM     93   O  BDP B   6       5.458  15.146  19.6980  0.00  0.00     0.000 OA
ATOM     94   O  BDP B   6       7.065  13.884  20.5930  0.00  0.00     0.000 OA
ENDBRANCH 86 92
BRANCH 82 95
ATOM     95  O3  NAG B   7       3.181  16.927  23.4360  0.00  0.00     0.000 O
BRANCH 95 98
ATOM     96  C1  NAG B   7       3.614  19.793  25.6570  0.00  0.00     0.000 C
ATOM     97  C2  NAG B   7       2.838  18.760  24.8520  0.00  0.00     0.000 C
ATOM     98  C3  NAG B   7       3.907  17.934  24.1390  0.00  0.00     0.000 C
ATOM     99  C4  NAG B   7       4.741  18.836  23.2340  0.00  0.00     0.000 C
ATOM    100  C5  NAG B   7       5.316  20.016  24.0180  0.00  0.00     0.000 C
ATOM    101  O5  NAG B   7       4.262  20.659  24.7180  0.00  0.00     0.000 O
BRANCH 97 104
ATOM    102   N  NAG B   7       2.068  17.724  25.5550  0.00  0.00     0.000 N
ATOM    104  HD  NAG B   7       1.742  16.960  25.7980  0.00  0.00     0.000 HD
ATOM    104   O  NAG B   7       0.216  16.626  26.2580  0.00  0.00     0.000 OA
ATOM    105   C  NAG B   7       0.733  17.600  25.6760  0.00  0.00     0.000 C
ATOM    106   C  NAG B   7      -0.149  18.646  25.0840  0.00  0.00     0.000 C
ENDBRANCH 97 104
ATOM    107   O  NAG B   7       6.773  21.849  23.8800  0.00  0.00     0.000 O
ATOM    109  HD  NAG B   7       6.489  21.207  24.3860  0.00  0.00     0.000 HD
ATOM    109   O  NAG B   7       6.773  21.849  23.8800  0.00  0.00     0.000 O
ATOM    111  HD  NAG B   7       6.489  21.207  24.3860  0.00  0.00     0.000 HD
ENDBRANCH 95 98
ENDBRANCH 82 95
ENDBRANCH 81 85
ENDBRANCH 65 81
ENDBRANCH 64 67
ENDBRANCH 51 64
ENDBRANCH 50 54
ENDBRANCH 34 50
ENDBRANCH 33 36
ENDBRANCH 20 33
ENDBRANCH 19 23
ENDBRANCH 1 19
TORSDOF 19
ENDMDL
MODEL 58
REMARK VINA RESULT:      -5.4      7.696     15.892
ROOT
ATOM      1  C1  NAG B   1       8.246   7.990  16.8000  0.00  0.00     0.000 C
ATOM      2  C2  NAG B   1       8.482   7.160  18.0580  0.00  0.00     0.000 C
ATOM      3  C3  NAG B   1       7.805   7.768  19.2700  0.00  0.00     0.000 C
ATOM      4  C4  NAG B   1       8.373   9.179  19.3890  0.00  0.00     0.000 C
ATOM      5  C5  NAG B   1       7.981   9.986  18.1450  0.00  0.00     0.000 C
ATOM      6  O5  NAG B   1       8.523   9.392  16.9470  0.00  0.00     0.000 O
ATOM      7   O  NAG B   1       8.057   7.008  20.4740  0.00  0.00     0.000 O
ATOM      9  HD  NAG B   1       8.016   6.390  19.8680  0.00  0.00     0.000 HD
ATOM      9   O  NAG B   1       7.867   9.812  20.5520  0.00  0.00     0.000 O
ATOM     11  HD  NAG B   1       7.826   9.194  19.9470  0.00  0.00     0.000 HD
ATOM     11   C  NAG B   1       8.424  11.445  18.3070  0.00  0.00     0.000 C
ATOM     12   O  NAG B   1       8.695  12.047  17.0420  0.00  0.00     0.000 O
ATOM     14  HD  NAG B   1       8.654  11.430  16.4360  0.00  0.00     0.000 HD
ENDROOT
BRANCH 2 16
ATOM     14   N  NAG B   1       8.057   5.769  17.8210  0.00  0.00     0.000 N
ATOM     16  HD  NAG B   1       8.023   5.153  17.2130  0.00  0.00     0.000 HD
ATOM     16   C  NAG B   1       8.910   4.730  17.8180  0.00  0.00     0.000 C
ATOM     17   C  NAG B   1      10.381   4.965  18.0390  0.00  0.00     0.000 C
ATOM     18   O  NAG B   1       8.510   3.576  17.6660  0.00  0.00     0.000 OA
ENDBRANCH 2 16
BRANCH 1 19
ATOM     19  O4  BDP B   2       9.223   7.491  15.8950  0.00  0.00     0.000 O
BRANCH 19 23
ATOM     20  C1  BDP B   2      12.161   9.124  13.5200  0.00  0.00     0.000 C
ATOM     21  C2  BDP B   2      12.372   9.225  15.0160  0.00  0.00     0.000 C
ATOM     22  C3  BDP B   2      11.484   8.254  15.7620  0.00  0.00     0.000 C
ATOM     23  C4  BDP B   2      10.042   8.478  15.3160  0.00  0.00     0.000 C
ATOM     24  C5  BDP B   2       9.953   8.341  13.8090  0.00  0.00     0.000 C
ATOM     25  O5  BDP B   2      10.789   9.304  13.1950  0.00  0.00     0.000 O
ATOM     26   O  BDP B   2      13.724   8.977  15.3380  0.00  0.00     0.000 O
ATOM     28  HD  BDP B   2      13.779   9.058  14.4770  0.00  0.00     0.000 HD
ATOM     28   O  BDP B   2      11.650   8.450  17.1750  0.00  0.00     0.000 O
ATOM     30  HD  BDP B   2      11.705   8.531  16.3140  0.00  0.00     0.000 HD
BRANCH 24 30
ATOM     30   C  BDP B   2       8.571   8.560  13.3050  0.00  0.00     0.000 C
ATOM     31   O  BDP B   2       8.109   7.711  12.5090  0.00  0.00     0.000 OA
ATOM     32   O  BDP B   2       7.944   9.586  13.6970  0.00  0.00     0.000 OA
ENDBRANCH 24 30
BRANCH 20 33
ATOM     33  O3  NAG B   3      12.904  10.199  12.9980  0.00  0.00     0.000 O
BRANCH 33 36
ATOM     34  C1  NAG B   3      14.440  10.040   9.5680  0.00  0.00     0.000 C
ATOM     35  C2  NAG B   3      14.326   9.854  11.0690  0.00  0.00     0.000 C
ATOM     36  C3  NAG B   3      12.913  10.191  11.5690  0.00  0.00     0.000 C
ATOM     37  C4  NAG B   3      12.516  11.577  11.0650  0.00  0.00     0.000 C
ATOM     38  C5  NAG B   3      12.751  11.680   9.5600  0.00  0.00     0.000 C
ATOM     39  O5  NAG B   3      14.105  11.385   9.2610  0.00  0.00     0.000 O
ATOM     40   O  NAG B   3      11.131  11.825  11.3500  0.00  0.00     0.000 O
ATOM     42  HD  NAG B   3      11.112  11.984  10.4990  0.00  0.00     0.000 HD
ATOM     42   C  NAG B   3      12.504  13.075   8.9910  0.00  0.00     0.000 C
ATOM     43   O  NAG B   3      13.470  13.988   9.5260  0.00  0.00     0.000 O
ATOM     45  HD  NAG B   3      13.450  14.147   8.6750  0.00  0.00     0.000 HD
BRANCH 35 47
ATOM     45   N  NAG B   3      15.414   9.449  11.9510  0.00  0.00     0.000 N
ATOM     47  HD  NAG B   3      15.122  10.246  12.1250  0.00  0.00     0.000 HD
ATOM     47   C  NAG B   3      15.546   8.221  12.4100  0.00  0.00     0.000 C
ATOM     48   C  NAG B   3      16.711   7.979  13.3240  0.00  0.00     0.000 C
ATOM     49   O  NAG B   3      14.746   7.331  12.1290  0.00  0.00     0.000 OA
ENDBRANCH 35 47
BRANCH 34 50
ATOM     50  O4  BDP B   4      15.807   9.801   9.3050  0.00  0.00     0.000 O
BRANCH 50 54
ATOM     51  C1  BDP B   4      18.442   8.579   6.4560  0.00  0.00     0.000 C
ATOM     52  C2  BDP B   4      17.461   9.650   5.9920  0.00  0.00     0.000 C
ATOM     53  C3  BDP B   4      16.820  10.267   7.1970  0.00  0.00     0.000 C
ATOM     54  C4  BDP B   4      16.169   9.157   8.0720  0.00  0.00     0.000 C
ATOM     55  C5  BDP B   4      17.124   8.004   8.3490  0.00  0.00     0.000 C
ATOM     56  O5  BDP B   4      17.734   7.561   7.1390  0.00  0.00     0.000 O
ATOM     57   O  BDP B   4      18.137  10.649   5.2590  0.00  0.00     0.000 O
ATOM     59  HD  BDP B   4      17.946  10.479   4.4310  0.00  0.00     0.000 HD
ATOM     59   O  BDP B   4      15.767  11.129   6.7170  0.00  0.00     0.000 O
ATOM     61  HD  BDP B   4      15.576  10.959   5.8890  0.00  0.00     0.000 HD
BRANCH 55 61
ATOM     61   C  BDP B   4      16.352   6.853   8.9690  0.00  0.00     0.000 C
ATOM     62   O  BDP B   4      15.209   6.592   8.5100  0.00  0.00     0.000 OA
ATOM     63   O  BDP B   4      16.895   6.208   9.9180  0.00  0.00     0.000 OA
ENDBRANCH 55 61
BRANCH 51 64
ATOM     64  O3  NAG B   5      19.086   8.052   5.2800  0.00  0.00     0.000 O
BRANCH 64 67
ATOM     65  C1  NAG B   5      22.619   6.998   5.2970  0.00  0.00     0.000 C
ATOM     66  C2  NAG B   5      21.423   7.930   5.2180  0.00  0.00     0.000 C
ATOM     67  C3  NAG B   5      20.153   7.177   5.5910  0.00  0.00     0.000 C
ATOM     68  C4  NAG B   5      20.014   5.890   4.7660  0.00  0.00     0.000 C
ATOM     69  C5  NAG B   5      21.292   5.068   4.8320  0.00  0.00     0.000 C
ATOM     70  O5  NAG B   5      22.415   5.881   4.4610  0.00  0.00     0.000 O
ATOM     71   O  NAG B   5      18.910   5.158   5.2540  0.00  0.00     0.000 O
ATOM     73  HD  NAG B   5      18.766   5.042   4.4080  0.00  0.00     0.000 HD
ATOM     73   C  NAG B   5      21.290   3.824   3.9330  0.00  0.00     0.000 C
ATOM     74   O  NAG B   5      21.210   4.226   2.5500  0.00  0.00     0.000 O
ATOM     76  HD  NAG B   5      21.067   4.110   1.7040  0.00  0.00     0.000 HD
BRANCH 66 78
ATOM     76   N  NAG B   5      21.868   9.056   6.0620  0.00  0.00     0.000 N
ATOM     78  HD  NAG B   5      21.541   8.946   5.2680  0.00  0.00     0.000 HD
ATOM     78   C  NAG B   5      21.664  10.359   5.8120  0.00  0.00     0.000 C
ATOM     79   C  NAG B   5      22.223  11.268   6.8720  0.00  0.00     0.000 C
ATOM     80   O  NAG B   5      21.058  10.787   4.7660  0.00  0.00     0.000 OA
ENDBRANCH 66 78
BRANCH 65 81
ATOM     81  O4  BDP B   6      23.811   7.690   4.9020  0.00  0.00     0.000 O
BRANCH 81 85
ATOM     82  C1  BDP B   6      28.061   7.378   5.3570  0.00  0.00     0.000 C
ATOM     83  C2  BDP B   6      27.413   6.592   4.2200  0.00  0.00     0.000 C
ATOM     84  C3  BDP B   6      25.999   7.078   3.8900  0.00  0.00     0.000 C
ATOM     85  C4  BDP B   6      25.115   7.154   5.1370  0.00  0.00     0.000 C
ATOM     86  C5  BDP B   6      25.889   7.939   6.2220  0.00  0.00     0.000 C
ATOM     87  O5  BDP B   6      27.203   7.351   6.4890  0.00  0.00     0.000 O
ATOM     88   O  BDP B   6      28.261   6.788   3.0910  0.00  0.00     0.000 O
ATOM     90  HD  BDP B   6      28.213   6.941   2.2400  0.00  0.00     0.000 HD
ATOM     90   O  BDP B   6      25.418   6.225   2.9010  0.00  0.00     0.000 O
ATOM     92  HD  BDP B   6      25.371   6.378   2.0500  0.00  0.00     0.000 HD
BRANCH 86 92
ATOM     92   C  BDP B   6      25.178   7.848   7.5500  0.00  0.00     0.000 C
ATOM     93   O  BDP B   6      24.419   8.795   7.9180  0.00  0.00     0.000 OA
ATOM     94   O  BDP B   6      25.359   6.798   8.2410  0.00  0.00     0.000 OA
ENDBRANCH 86 92
BRANCH 82 95
ATOM     95  O3  NAG B   7      29.292   6.722   5.7190  0.00  0.00     0.000 O
BRANCH 95 98
ATOM     96  C1  NAG B   7      32.808   7.658   6.0370  0.00  0.00     0.000 C
ATOM     97  C2  NAG B   7      31.631   6.782   5.6290  0.00  0.00     0.000 C
ATOM     98  C3  NAG B   7      30.397   7.511   6.1560  0.00  0.00     0.000 C
ATOM     99  C4  NAG B   7      30.488   7.654   7.6730  0.00  0.00     0.000 C
ATOM    100  C5  NAG B   7      31.803   8.321   8.0810  0.00  0.00     0.000 C
ATOM    101  O5  NAG B   7      32.879   7.629   7.4670  0.00  0.00     0.000 O
BRANCH 97 104
ATOM    102   N  NAG B   7      31.364   6.633   4.1920  0.00  0.00     0.000 N
ATOM    104  HD  NAG B   7      30.972   6.639   3.4190  0.00  0.00     0.000 HD
ATOM    104   O  NAG B   7      31.095   5.536   2.2280  0.00  0.00     0.000 OA
ATOM    105   C  NAG B   7      31.408   5.520   3.4350  0.00  0.00     0.000 C
ATOM    106   C  NAG B   7      31.827   4.234   4.0610  0.00  0.00     0.000 C
ENDBRANCH 97 104
ATOM    107   O  NAG B   7      32.989   9.207   9.9010  0.00  0.00     0.000 O
ATOM    109  HD  NAG B   7      32.799   9.308   9.0620  0.00  0.00     0.000 HD
ATOM    109   O  NAG B   7      32.989   9.207   9.9010  0.00  0.00     0.000 O
ATOM    111  HD  NAG B   7      32.799   9.308   9.0620  0.00  0.00     0.000 HD
ENDBRANCH 95 98
ENDBRANCH 82 95
ENDBRANCH 81 85
ENDBRANCH 65 81
ENDBRANCH 64 67
ENDBRANCH 51 64
ENDBRANCH 50 54
ENDBRANCH 34 50
ENDBRANCH 33 36
ENDBRANCH 20 33
ENDBRANCH 19 23
ENDBRANCH 1 19
TORSDOF 19
ENDMDL
MODEL 59
REMARK VINA RESULT:      -5.4      3.539      3.916
ROOT
ATOM      1  C1  NAG B   1      11.706   4.363  16.3780  0.00  0.00     0.000 C
ATOM      2  C2  NAG B   1      10.813   4.218  17.6080  0.00  0.00     0.000 C
ATOM      3  C3  NAG B   1      10.972   2.861  18.2630  0.00  0.00     0.000 C
ATOM      4  C4  NAG B   1      10.637   1.842  17.1780  0.00  0.00     0.000 C
ATOM      5  C5  NAG B   1      11.658   1.966  16.0390  0.00  0.00     0.000 C
ATOM      6  O5  NAG B   1      11.614   3.279  15.4410  0.00  0.00     0.000 O
ATOM      7   O  NAG B   1      10.101   2.701  19.4060  0.00  0.00     0.000 O
ATOM      9  HD  NAG B   1      10.308   3.541  19.4440  0.00  0.00     0.000 HD
ATOM      9   O  NAG B   1      10.671   0.530  17.7130  0.00  0.00     0.000 O
ATOM     11  HD  NAG B   1      10.878   1.370  17.7510  0.00  0.00     0.000 HD
ATOM     11   C  NAG B   1      11.422   0.861  15.0020  0.00  0.00     0.000 C
ATOM     12   O  NAG B   1      11.834   1.275  13.7010  0.00  0.00     0.000 O
ATOM     14  HD  NAG B   1      12.041   2.115  13.7400  0.00  0.00     0.000 HD
ENDROOT
BRANCH 2 16
ATOM     14   N  NAG B   1      11.104   5.384  18.4610  0.00  0.00     0.000 N
ATOM     16  HD  NAG B   1      11.238   6.239  18.4370  0.00  0.00     0.000 HD
ATOM     16   C  NAG B   1      10.162   6.259  18.8540  0.00  0.00     0.000 C
ATOM     17   C  NAG B   1       8.738   6.086  18.3980  0.00  0.00     0.000 C
ATOM     18   O  NAG B   1      10.434   7.194  19.6080  0.00  0.00     0.000 OA
ENDBRANCH 2 16
BRANCH 1 19
ATOM     19  O4  BDP B   2      11.163   5.498  15.7170  0.00  0.00     0.000 O
BRANCH 19 23
ATOM     20  C1  BDP B   2      12.004   7.466  12.2010  0.00  0.00     0.000 C
ATOM     21  C2  BDP B   2      10.998   6.337  12.1170  0.00  0.00     0.000 C
ATOM     22  C3  BDP B   2      10.460   5.979  13.4830  0.00  0.00     0.000 C
ATOM     23  C4  BDP B   2      11.641   5.698  14.4080  0.00  0.00     0.000 C
ATOM     24  C5  BDP B   2      12.568   6.897  14.4210  0.00  0.00     0.000 C
ATOM     25  O5  BDP B   2      13.045   7.141  13.1120  0.00  0.00     0.000 O
ATOM     26   O  BDP B   2       9.931   6.695  11.2640  0.00  0.00     0.000 O
ATOM     28  HD  BDP B   2      10.492   7.331  11.0900  0.00  0.00     0.000 HD
ATOM     28   O  BDP B   2       9.585   4.846  13.3660  0.00  0.00     0.000 O
ATOM     30  HD  BDP B   2      10.146   5.482  13.1910  0.00  0.00     0.000 HD
BRANCH 24 30
ATOM     30   C  BDP B   2      13.750   6.684  15.2980  0.00  0.00     0.000 C
ATOM     31   O  BDP B   2      14.592   5.833  14.9290  0.00  0.00     0.000 OA
ATOM     32   O  BDP B   2      13.839   7.360  16.3620  0.00  0.00     0.000 OA
ENDBRANCH 24 30
BRANCH 20 33
ATOM     33  O3  NAG B   3      12.535   7.547  10.9010  0.00  0.00     0.000 O
BRANCH 33 36
ATOM     34  C1  NAG B   3      13.812  11.002  10.1350  0.00  0.00     0.000 C
ATOM     35  C2  NAG B   3      12.809   9.914  10.4690  0.00  0.00     0.000 C
ATOM     36  C3  NAG B   3      13.511   8.586  10.7920  0.00  0.00     0.000 C
ATOM     37  C4  NAG B   3      14.479   8.238   9.6640  0.00  0.00     0.000 C
ATOM     38  C5  NAG B   3      15.382   9.430   9.3550  0.00  0.00     0.000 C
ATOM     39  O5  NAG B   3      14.593  10.563   9.0330  0.00  0.00     0.000 O
ATOM     40   O  NAG B   3      15.287   7.112  10.0400  0.00  0.00     0.000 O
ATOM     42  HD  NAG B   3      15.927   7.661   9.8370  0.00  0.00     0.000 HD
ATOM     42   C  NAG B   3      16.295   9.216   8.1500  0.00  0.00     0.000 C
ATOM     43   O  NAG B   3      15.502   9.102   6.9620  0.00  0.00     0.000 O
ATOM     45  HD  NAG B   3      16.141   9.650   6.7600  0.00  0.00     0.000 HD
BRANCH 35 47
ATOM     45   N  NAG B   3      11.959  10.312  11.5830  0.00  0.00     0.000 N
ATOM     47  HD  NAG B   3      12.645  10.831  11.4860  0.00  0.00     0.000 HD
ATOM     47   C  NAG B   3      10.643  10.239  11.5430  0.00  0.00     0.000 C
ATOM     48   C  NAG B   3       9.917  10.709  12.7690  0.00  0.00     0.000 C
ATOM     49   O  NAG B   3      10.043   9.835  10.5490  0.00  0.00     0.000 OA
ENDBRANCH 35 47
BRANCH 34 50
ATOM     50  O4  BDP B   4      13.004  12.098   9.7610  0.00  0.00     0.000 O
BRANCH 50 54
ATOM     51  C1  BDP B   4      13.021  16.062   8.8480  0.00  0.00     0.000 C
ATOM     52  C2  BDP B   4      13.514  15.154   7.7270  0.00  0.00     0.000 C
ATOM     53  C3  BDP B   4      13.111  13.746   8.0400  0.00  0.00     0.000 C
ATOM     54  C4  BDP B   4      13.640  13.348   9.4480  0.00  0.00     0.000 C
ATOM     55  C5  BDP B   4      13.297  14.385  10.5090  0.00  0.00     0.000 C
ATOM     56  O5  BDP B   4      13.649  15.691  10.0610  0.00  0.00     0.000 O
ATOM     57   O  BDP B   4      12.943  15.541   6.4960  0.00  0.00     0.000 O
ATOM     59  HD  BDP B   4      13.577  15.964   6.0850  0.00  0.00     0.000 HD
ATOM     59   O  BDP B   4      13.757  12.899   7.0670  0.00  0.00     0.000 O
ATOM     61  HD  BDP B   4      14.391  13.322   6.6560  0.00  0.00     0.000 HD
BRANCH 55 61
ATOM     61   C  BDP B   4      14.063  14.070  11.7820  0.00  0.00     0.000 C
ATOM     62   O  BDP B   4      13.427  14.064  12.8680  0.00  0.00     0.000 OA
ATOM     63   O  BDP B   4      15.305  13.828  11.6910  0.00  0.00     0.000 OA
ENDBRANCH 55 61
BRANCH 51 64
ATOM     64  O3  NAG B   5      13.367  17.413   8.4860  0.00  0.00     0.000 O
BRANCH 64 67
ATOM     65  C1  NAG B   5      11.913  20.467   9.9540  0.00  0.00     0.000 C
ATOM     66  C2  NAG B   5      12.078  19.299   8.9970  0.00  0.00     0.000 C
ATOM     67  C3  NAG B   5      13.128  18.335   9.5320  0.00  0.00     0.000 C
ATOM     68  C4  NAG B   5      14.432  19.071   9.8700  0.00  0.00     0.000 C
ATOM     69  C5  NAG B   5      14.154  20.276  10.7560  0.00  0.00     0.000 C
ATOM     70  O5  NAG B   5      13.153  21.107  10.1500  0.00  0.00     0.000 O
ATOM     71   O  NAG B   5      15.312  18.166  10.5010  0.00  0.00     0.000 O
ATOM     73  HD  NAG B   5      15.889  18.557   9.9870  0.00  0.00     0.000 HD
ATOM     73   C  NAG B   5      15.385  21.148  11.0420  0.00  0.00     0.000 C
ATOM     74   O  NAG B   5      15.862  21.728   9.8100  0.00  0.00     0.000 O
ATOM     76  HD  NAG B   5      16.440  22.120   9.2960  0.00  0.00     0.000 HD
BRANCH 66 78
ATOM     76   N  NAG B   5      10.646  19.212   8.6520  0.00  0.00     0.000 N
ATOM     78  HD  NAG B   5      11.398  18.940   8.3210  0.00  0.00     0.000 HD
ATOM     78   C  NAG B   5      10.107  18.423   7.7090  0.00  0.00     0.000 C
ATOM     79   C  NAG B   5       8.611  18.546   7.6070  0.00  0.00     0.000 C
ATOM     80   O  NAG B   5      10.803  17.648   6.9610  0.00  0.00     0.000 OA
ENDBRANCH 66 78
BRANCH 65 81
ATOM     81  O4  BDP B   6      10.959  21.401   9.4330  0.00  0.00     0.000 O
BRANCH 81 85
ATOM     82  C1  BDP B   6       8.063  24.213  10.8700  0.00  0.00     0.000 C
ATOM     83  C2  BDP B   6       9.486  24.717  10.6490  0.00  0.00     0.000 C
ATOM     84  C3  BDP B   6      10.319  23.781   9.7700  0.00  0.00     0.000 C
ATOM     85  C4  BDP B   6      10.273  22.336  10.2690  0.00  0.00     0.000 C
ATOM     86  C5  BDP B   6       8.790  21.955  10.4870  0.00  0.00     0.000 C
ATOM     87  O5  BDP B   6       8.112  22.891  11.3850  0.00  0.00     0.000 O
ATOM     88   O  BDP B   6       9.347  25.980  10.0030  0.00  0.00     0.000 O
ATOM     90  HD  BDP B   6       9.699  26.444   9.3630  0.00  0.00     0.000 HD
ATOM     90   O  BDP B   6      11.666  24.257   9.7030  0.00  0.00     0.000 O
ATOM     92  HD  BDP B   6      12.018  24.722   9.0630  0.00  0.00     0.000 HD
BRANCH 86 92
ATOM     92   C  BDP B   6       8.682  20.629  11.2020  0.00  0.00     0.000 C
ATOM     93   O  BDP B   6       9.207  20.494  12.3490  0.00  0.00     0.000 OA
ATOM     94   O  BDP B   6       8.040  19.700  10.6210  0.00  0.00     0.000 OA
ENDBRANCH 86 92
BRANCH 82 95
ATOM     95  O3  NAG B   7       7.433  25.051  11.8590  0.00  0.00     0.000 O
BRANCH 95 98
ATOM     96  C1  NAG B   7       4.280  26.872  12.1470  0.00  0.00     0.000 C
ATOM     97  C2  NAG B   7       5.786  26.671  12.2450  0.00  0.00     0.000 C
ATOM     98  C3  NAG B   7       6.017  25.220  11.8280  0.00  0.00     0.000 C
ATOM     99  C4  NAG B   7       5.265  24.283  12.7700  0.00  0.00     0.000 C
ATOM    100  C5  NAG B   7       3.785  24.660  12.8490  0.00  0.00     0.000 C
ATOM    101  O5  NAG B   7       3.678  26.043  13.1480  0.00  0.00     0.000 O
BRANCH 97 104
ATOM    102   N  NAG B   7       6.644  27.430  11.3250  0.00  0.00     0.000 N
ATOM    104  HD  NAG B   7       7.235  27.634  10.7260  0.00  0.00     0.000 HD
ATOM    104   O  NAG B   7       8.249  28.908  10.7180  0.00  0.00     0.000 OA
ATOM    105   C  NAG B   7       7.545  28.389  11.6070  0.00  0.00     0.000 C
ATOM    106   C  NAG B   7       7.714  28.831  13.0200  0.00  0.00     0.000 C
ENDBRANCH 97 104
ATOM    107   O  NAG B   7       1.705  23.987  13.6990  0.00  0.00     0.000 O
ATOM    109  HD  NAG B   7       2.112  24.339  13.0210  0.00  0.00     0.000 HD
ATOM    109   O  NAG B   7       1.705  23.987  13.6990  0.00  0.00     0.000 O
ATOM    111  HD  NAG B   7       2.112  24.339  13.0210  0.00  0.00     0.000 HD
ENDBRANCH 95 98
ENDBRANCH 82 95
ENDBRANCH 81 85
ENDBRANCH 65 81
ENDBRANCH 64 67
ENDBRANCH 51 64
ENDBRANCH 50 54
ENDBRANCH 34 50
ENDBRANCH 33 36
ENDBRANCH 20 33
ENDBRANCH 19 23
ENDBRANCH 1 19
TORSDOF 19
ENDMDL
MODEL 60
REMARK VINA RESULT:      -5.4      7.056     11.026
ROOT
ATOM      1  C1  NAG B   1       2.309   9.085  18.9320  0.00  0.00     0.000 C
ATOM      2  C2  NAG B   1       1.960   7.642  18.5790  0.00  0.00     0.000 C
ATOM      3  C3  NAG B   1       1.818   7.446  17.0830  0.00  0.00     0.000 C
ATOM      4  C4  NAG B   1       0.738   8.429  16.6440  0.00  0.00     0.000 C
ATOM      5  C5  NAG B   1       1.221   9.860  16.9120  0.00  0.00     0.000 C
ATOM      6  O5  NAG B   1       1.464  10.072  18.3190  0.00  0.00     0.000 O
ATOM      7   O  NAG B   1       1.450   6.089  16.7440  0.00  0.00     0.000 O
ATOM      9  HD  NAG B   1       1.961   5.977  17.4330  0.00  0.00     0.000 HD
ATOM      9   O  NAG B   1       0.462   8.266  15.2630  0.00  0.00     0.000 O
ATOM     11  HD  NAG B   1       0.974   8.153  15.9520  0.00  0.00     0.000 HD
ATOM     11   C  NAG B   1       0.209  10.868  16.3520  0.00  0.00     0.000 C
ATOM     12   O  NAG B   1       0.229  12.087  17.0930  0.00  0.00     0.000 O
ATOM     14  HD  NAG B   1       0.741  11.974  17.7820  0.00  0.00     0.000 HD
ENDROOT
BRANCH 2 16
ATOM     14   N  NAG B   1       2.922   6.647  19.0860  0.00  0.00     0.000 N
ATOM     16  HD  NAG B   1       3.504   6.507  19.7120  0.00  0.00     0.000 HD
ATOM     16   C  NAG B   1       2.662   5.836  20.1250  0.00  0.00     0.000 C
ATOM     17   C  NAG B   1       1.344   5.939  20.8470  0.00  0.00     0.000 C
ATOM     18   O  NAG B   1       3.471   4.983  20.4880  0.00  0.00     0.000 OA
ENDBRANCH 2 16
BRANCH 1 19
ATOM     19  O4  BDP B   2       2.040   9.151  20.3260  0.00  0.00     0.000 O
BRANCH 19 23
ATOM     20  C1  BDP B   2       4.885  12.029  21.0780  0.00  0.00     0.000 C
ATOM     21  C2  BDP B   2       5.315  10.590  21.2750  0.00  0.00     0.000 C
ATOM     22  C3  BDP B   2       4.366   9.635  20.5860  0.00  0.00     0.000 C
ATOM     23  C4  BDP B   2       2.948   9.937  21.0610  0.00  0.00     0.000 C
ATOM     24  C5  BDP B   2       2.628  11.396  20.8020  0.00  0.00     0.000 C
ATOM     25  O5  BDP B   2       3.543  12.213  21.5070  0.00  0.00     0.000 O
ATOM     26   O  BDP B   2       6.624  10.398  20.7840  0.00  0.00     0.000 O
ATOM     28  HD  BDP B   2       6.575  11.262  20.7690  0.00  0.00     0.000 HD
ATOM     28   O  BDP B   2       4.758   8.285  20.8780  0.00  0.00     0.000 O
ATOM     30  HD  BDP B   2       4.710   9.149  20.8630  0.00  0.00     0.000 HD
BRANCH 24 30
ATOM     30   C  BDP B   2       1.260  11.760  21.2540  0.00  0.00     0.000 C
ATOM     31   O  BDP B   2       0.445  12.130  20.3770  0.00  0.00     0.000 OA
ATOM     32   O  BDP B   2       0.994  11.686  22.4880  0.00  0.00     0.000 OA
ENDBRANCH 24 30
BRANCH 20 33
ATOM     33  O3  NAG B   3       5.744  12.759  21.9200  0.00  0.00     0.000 O
BRANCH 33 36
ATOM     34  C1  NAG B   3       6.797  16.273  21.0880  0.00  0.00     0.000 C
ATOM     35  C2  NAG B   3       6.835  14.757  21.0950  0.00  0.00     0.000 C
ATOM     36  C3  NAG B   3       5.577  14.169  21.7520  0.00  0.00     0.000 C
ATOM     37  C4  NAG B   3       5.376  14.809  23.1230  0.00  0.00     0.000 C
ATOM     38  C5  NAG B   3       5.440  16.330  23.0110  0.00  0.00     0.000 C
ATOM     39  O5  NAG B   3       6.673  16.720  22.4300  0.00  0.00     0.000 O
ATOM     40   O  NAG B   3       4.103  14.423  23.6630  0.00  0.00     0.000 O
ATOM     42  HD  NAG B   3       4.008  15.282  23.7270  0.00  0.00     0.000 HD
ATOM     42   C  NAG B   3       5.379  17.051  24.3550  0.00  0.00     0.000 C
ATOM     43   O  NAG B   3       6.550  16.739  25.1200  0.00  0.00     0.000 O
ATOM     45  HD  NAG B   3       6.456  17.598  25.1840  0.00  0.00     0.000 HD
BRANCH 35 47
ATOM     45   N  NAG B   3       7.909  13.898  20.6120  0.00  0.00     0.000 N
ATOM     47  HD  NAG B   3       7.741  13.780  21.4530  0.00  0.00     0.000 HD
ATOM     47   C  NAG B   3       7.898  13.340  19.4170  0.00  0.00     0.000 C
ATOM     48   C  NAG B   3       9.072  12.467  19.0850  0.00  0.00     0.000 C
ATOM     49   O  NAG B   3       6.968  13.503  18.6310  0.00  0.00     0.000 OA
ENDBRANCH 35 47
BRANCH 34 50
ATOM     50  O4  BDP B   4       8.056  16.637  20.5630  0.00  0.00     0.000 O
BRANCH 50 54
ATOM     51  C1  BDP B   4       9.749  19.288  17.9820  0.00  0.00     0.000 C
ATOM     52  C2  BDP B   4       9.990  19.598  19.4550  0.00  0.00     0.000 C
ATOM     53  C3  BDP B   4       9.653  18.382  20.2620  0.00  0.00     0.000 C
ATOM     54  C4  BDP B   4       8.199  17.927  19.9470  0.00  0.00     0.000 C
ATOM     55  C5  BDP B   4       7.938  17.821  18.4500  0.00  0.00     0.000 C
ATOM     56  O5  BDP B   4       8.377  19.001  17.7830  0.00  0.00     0.000 O
ATOM     57   O  BDP B   4      11.342  19.942  19.6680  0.00  0.00     0.000 O
ATOM     59  HD  BDP B   4      11.337  20.804  19.7510  0.00  0.00     0.000 HD
ATOM     59   O  BDP B   4       9.706  18.772  21.6500  0.00  0.00     0.000 O
ATOM     61  HD  BDP B   4       9.701  19.634  21.7330  0.00  0.00     0.000 HD
BRANCH 55 61
ATOM     61   C  BDP B   4       6.449  17.638  18.2140  0.00  0.00     0.000 C
ATOM     62   O  BDP B   4       5.673  18.549  18.6030  0.00  0.00     0.000 OA
ATOM     63   O  BDP B   4       6.059  16.578  17.6350  0.00  0.00     0.000 OA
ENDBRANCH 55 61
BRANCH 51 64
ATOM     64  O3  NAG B   5      10.142  20.452  17.2300  0.00  0.00     0.000 O
BRANCH 64 67
ATOM     65  C1  NAG B   5      10.660  20.295  13.5830  0.00  0.00     0.000 C
ATOM     66  C2  NAG B   5      10.969  20.142  15.0620  0.00  0.00     0.000 C
ATOM     67  C3  NAG B   5       9.712  20.401  15.8840  0.00  0.00     0.000 C
ATOM     68  C4  NAG B   5       9.070  21.741  15.5010  0.00  0.00     0.000 C
ATOM     69  C5  NAG B   5       8.886  21.839  13.9950  0.00  0.00     0.000 C
ATOM     70  O5  NAG B   5      10.131  21.577  13.3320  0.00  0.00     0.000 O
ATOM     71   O  NAG B   5       7.836  21.860  16.1760  0.00  0.00     0.000 O
ATOM     73  HD  NAG B   5       8.114  22.672  16.2900  0.00  0.00     0.000 HD
ATOM     73   C  NAG B   5       8.366  23.199  13.5080  0.00  0.00     0.000 C
ATOM     74   O  NAG B   5       9.340  24.222  13.8030  0.00  0.00     0.000 O
ATOM     76  HD  NAG B   5       9.618  25.034  13.9170  0.00  0.00     0.000 HD
BRANCH 66 78
ATOM     76   N  NAG B   5      11.501  18.777  15.2350  0.00  0.00     0.000 N
ATOM     78  HD  NAG B   5      11.786  19.588  15.3320  0.00  0.00     0.000 HD
ATOM     78   C  NAG B   5      12.653  18.449  15.8410  0.00  0.00     0.000 C
ATOM     79   C  NAG B   5      12.912  16.967  15.8750  0.00  0.00     0.000 C
ATOM     80   O  NAG B   5      13.459  19.316  16.3350  0.00  0.00     0.000 OA
ENDBRANCH 66 78
BRANCH 65 81
ATOM     81  O4  BDP B   6      11.850  20.098  12.8080  0.00  0.00     0.000 O
BRANCH 81 85
ATOM     82  C1  BDP B   6      13.084  18.723   8.9420  0.00  0.00     0.000 C
ATOM     83  C2  BDP B   6      12.180  19.950   8.9980  0.00  0.00     0.000 C
ATOM     84  C3  BDP B   6      12.134  20.593  10.3870  0.00  0.00     0.000 C
ATOM     85  C4  BDP B   6      11.814  19.571  11.4800  0.00  0.00     0.000 C
ATOM     86  C5  BDP B   6      12.767  18.366  11.2980  0.00  0.00     0.000 C
ATOM     87  O5  BDP B   6      12.685  17.804   9.9490  0.00  0.00     0.000 O
ATOM     88   O  BDP B   6      12.733  20.873   8.0640  0.00  0.00     0.000 O
ATOM     90  HD  BDP B   6      12.905  21.718   7.9820  0.00  0.00     0.000 HD
ATOM     90   O  BDP B   6      11.184  21.661  10.3910  0.00  0.00     0.000 O
ATOM     92  HD  BDP B   6      11.356  22.506  10.3090  0.00  0.00     0.000 HD
BRANCH 86 92
ATOM     92   C  BDP B   6      12.351  17.221  12.1900  0.00  0.00     0.000 C
ATOM     93   O  BDP B   6      13.157  16.265  12.3960  0.00  0.00     0.000 OA
ATOM     94   O  BDP B   6      11.199  17.282  12.7220  0.00  0.00     0.000 OA
ENDBRANCH 86 92
BRANCH 82 95
ATOM     95  O3  NAG B   7      12.904  18.084   7.6630  0.00  0.00     0.000 O
BRANCH 95 98
ATOM     96  C1  NAG B   7      15.213  15.930   5.8280  0.00  0.00     0.000 C
ATOM     97  C2  NAG B   7      14.395  17.186   6.0970  0.00  0.00     0.000 C
ATOM     98  C3  NAG B   7      13.621  16.884   7.3780  0.00  0.00     0.000 C
ATOM     99  C4  NAG B   7      12.723  15.667   7.1670  0.00  0.00     0.000 C
ATOM    100  C5  NAG B   7      13.532  14.474   6.6550  0.00  0.00     0.000 C
ATOM    101  O5  NAG B   7      14.287  14.881   5.5240  0.00  0.00     0.000 O
BRANCH 97 104
ATOM    102   N  NAG B   7      14.921  18.505   6.4770  0.00  0.00     0.000 N
ATOM    104  HD  NAG B   7      14.984  19.310   6.7890  0.00  0.00     0.000 HD
ATOM    104   O  NAG B   7      15.802  20.566   6.1520  0.00  0.00     0.000 OA
ATOM    105   C  NAG B   7      15.448  19.463   5.6910  0.00  0.00     0.000 C
ATOM    106   C  NAG B   7      15.598  19.201   4.2310  0.00  0.00     0.000 C
ENDBRANCH 97 104
ATOM    107   O  NAG B   7      13.416  12.185   6.1550  0.00  0.00     0.000 O
ATOM    109  HD  NAG B   7      13.908  12.812   6.4950  0.00  0.00     0.000 HD
ATOM    109   O  NAG B   7      13.416  12.185   6.1550  0.00  0.00     0.000 O
ATOM    111  HD  NAG B   7      13.908  12.812   6.4950  0.00  0.00     0.000 HD
ENDBRANCH 95 98
ENDBRANCH 82 95
ENDBRANCH 81 85
ENDBRANCH 65 81
ENDBRANCH 64 67
ENDBRANCH 51 64
ENDBRANCH 50 54
ENDBRANCH 34 50
ENDBRANCH 33 36
ENDBRANCH 20 33
ENDBRANCH 19 23
ENDBRANCH 1 19
TORSDOF 19
ENDMDL
MODEL 61
REMARK VINA RESULT:      -5.4      3.593     16.921
ROOT
ATOM      1  C1  NAG B   1      13.364  16.684   6.6860  0.00  0.00     0.000 C
ATOM      2  C2  NAG B   1      13.232  18.093   7.2570  0.00  0.00     0.000 C
ATOM      3  C3  NAG B   1      14.029  19.103   6.4570  0.00  0.00     0.000 C
ATOM      4  C4  NAG B   1      15.468  18.598   6.4810  0.00  0.00     0.000 C
ATOM      5  C5  NAG B   1      15.537  17.240   5.7720  0.00  0.00     0.000 C
ATOM      6  O5  NAG B   1      14.715  16.260   6.4430  0.00  0.00     0.000 O
ATOM      7   O  NAG B   1      13.940  20.433   7.0160  0.00  0.00     0.000 O
ATOM      9  HD  NAG B   1      13.152  20.111   7.1760  0.00  0.00     0.000 HD
ATOM      9   O  NAG B   1      16.321  19.524   5.8290  0.00  0.00     0.000 O
ATOM     11  HD  NAG B   1      15.533  19.201   5.9890  0.00  0.00     0.000 HD
ATOM     11   C  NAG B   1      16.996  16.779   5.6640  0.00  0.00     0.000 C
ATOM     12   O  NAG B   1      17.089  15.355   5.6470  0.00  0.00     0.000 O
ATOM     14  HD  NAG B   1      16.301  15.032   5.8070  0.00  0.00     0.000 HD
ENDROOT
BRANCH 2 16
ATOM     14   N  NAG B   1      11.796  18.406   7.3590  0.00  0.00     0.000 N
ATOM     16  HD  NAG B   1      11.027  18.061   7.5610  0.00  0.00     0.000 HD
ATOM     16   C  NAG B   1      11.183  18.676   8.5250  0.00  0.00     0.000 C
ATOM     17   C  NAG B   1      11.965  18.638   9.8110  0.00  0.00     0.000 C
ATOM     18   O  NAG B   1       9.992  18.982   8.5640  0.00  0.00     0.000 OA
ENDBRANCH 2 16
BRANCH 1 19
ATOM     19  O4  BDP B   2      12.880  15.861   7.7390  0.00  0.00     0.000 O
BRANCH 19 23
ATOM     20  C1  BDP B   2      14.365  12.731   9.9610  0.00  0.00     0.000 C
ATOM     21  C2  BDP B   2      14.944  14.100  10.2560  0.00  0.00     0.000 C
ATOM     22  C3  BDP B   2      14.059  15.197   9.7100  0.00  0.00     0.000 C
ATOM     23  C4  BDP B   2      13.812  14.927   8.2280  0.00  0.00     0.000 C
ATOM     24  C5  BDP B   2      13.225  13.539   8.0600  0.00  0.00     0.000 C
ATOM     25  O5  BDP B   2      14.129  12.577   8.5690  0.00  0.00     0.000 O
ATOM     26   O  BDP B   2      15.111  14.272  11.6470  0.00  0.00     0.000 O
ATOM     28  HD  BDP B   2      14.947  13.422  11.6120  0.00  0.00     0.000 HD
ATOM     28   O  BDP B   2      14.691  16.468   9.9290  0.00  0.00     0.000 O
ATOM     30  HD  BDP B   2      14.527  15.619   9.8940  0.00  0.00     0.000 HD
BRANCH 24 30
ATOM     30   C  BDP B   2      12.970  13.207   6.6330  0.00  0.00     0.000 C
ATOM     31   O  BDP B   2      11.789  12.949   6.3060  0.00  0.00     0.000 OA
ATOM     32   O  BDP B   2      13.950  13.193   5.8350  0.00  0.00     0.000 OA
ENDBRANCH 24 30
BRANCH 20 33
ATOM     33  O3  NAG B   3      15.379  11.841  10.3590  0.00  0.00     0.000 O
BRANCH 33 36
ATOM     34  C1  NAG B   3      14.392   8.435  11.6140  0.00  0.00     0.000 C
ATOM     35  C2  NAG B   3      14.638   9.931  11.6500  0.00  0.00     0.000 C
ATOM     36  C3  NAG B   3      14.959  10.478  10.2510  0.00  0.00     0.000 C
ATOM     37  C4  NAG B   3      16.092   9.659   9.6360  0.00  0.00     0.000 C
ATOM     38  C5  NAG B   3      15.779   8.169   9.7300  0.00  0.00     0.000 C
ATOM     39  O5  NAG B   3      15.550   7.807  11.0820  0.00  0.00     0.000 O
ATOM     40   O  NAG B   3      16.269  10.024   8.2580  0.00  0.00     0.000 O
ATOM     42  HD  NAG B   3      16.172   9.171   8.1480  0.00  0.00     0.000 HD
ATOM     42   C  NAG B   3      16.916   7.268   9.2560  0.00  0.00     0.000 C
ATOM     43   O  NAG B   3      18.039   7.412  10.1350  0.00  0.00     0.000 O
ATOM     45  HD  NAG B   3      17.942   6.559  10.0250  0.00  0.00     0.000 HD
BRANCH 35 47
ATOM     45   N  NAG B   3      14.636  10.793  12.8250  0.00  0.00     0.000 N
ATOM     47  HD  NAG B   3      15.397  10.794  12.4120  0.00  0.00     0.000 HD
ATOM     47   C  NAG B   3      13.596  11.520  13.1800  0.00  0.00     0.000 C
ATOM     48   C  NAG B   3      13.769  12.368  14.4050  0.00  0.00     0.000 C
ATOM     49   O  NAG B   3      12.553  11.526  12.5290  0.00  0.00     0.000 OA
ENDBRANCH 35 47
BRANCH 34 50
ATOM     50  O4  BDP B   4      14.228   8.091  12.9740  0.00  0.00     0.000 O
BRANCH 50 54
ATOM     51  C1  BDP B   4      12.787   5.144  15.3810  0.00  0.00     0.000 C
ATOM     52  C2  BDP B   4      14.299   5.121  15.1900  0.00  0.00     0.000 C
ATOM     53  C3  BDP B   4      14.730   6.435  14.6160  0.00  0.00     0.000 C
ATOM     54  C4  BDP B   4      13.937   6.723  13.3090  0.00  0.00     0.000 C
ATOM     55  C5  BDP B   4      12.436   6.541  13.4900  0.00  0.00     0.000 C
ATOM     56  O5  BDP B   4      12.158   5.294  14.1200  0.00  0.00     0.000 O
ATOM     57   O  BDP B   4      14.946   4.916  16.4280  0.00  0.00     0.000 O
ATOM     59  HD  BDP B   4      15.188   4.085  16.4120  0.00  0.00     0.000 HD
ATOM     59   O  BDP B   4      16.124   6.306  14.2710  0.00  0.00     0.000 O
ATOM     61  HD  BDP B   4      16.367   5.475  14.2550  0.00  0.00     0.000 HD
BRANCH 55 61
ATOM     61   C  BDP B   4      11.760   6.574  12.1310  0.00  0.00     0.000 C
ATOM     62   O  BDP B   4      10.852   7.426  11.9430  0.00  0.00     0.000 OA
ATOM     63   O  BDP B   4      12.143   5.745  11.2490  0.00  0.00     0.000 OA
ENDBRANCH 55 61
BRANCH 51 64
ATOM     64  O3  NAG B   5      12.414   3.894  15.9920  0.00  0.00     0.000 O
BRANCH 64 67
ATOM     65  C1  NAG B   5       9.344   3.912  18.0330  0.00  0.00     0.000 C
ATOM     66  C2  NAG B   5      10.780   4.210  17.6370  0.00  0.00     0.000 C
ATOM     67  C3  NAG B   5      11.019   3.782  16.1950  0.00  0.00     0.000 C
ATOM     68  C4  NAG B   5      10.586   2.326  15.9740  0.00  0.00     0.000 C
ATOM     69  C5  NAG B   5       9.171   2.102  16.4850  0.00  0.00     0.000 C
ATOM     70  O5  NAG B   5       9.069   2.542  17.8470  0.00  0.00     0.000 O
ATOM     71   O  NAG B   5      10.685   2.030  14.5970  0.00  0.00     0.000 O
ATOM     73  HD  NAG B   5      11.014   1.290  14.9030  0.00  0.00     0.000 HD
ATOM     73   C  NAG B   5       8.699   0.643  16.4200  0.00  0.00     0.000 C
ATOM     74   O  NAG B   5       9.513  -0.167  17.2940  0.00  0.00     0.000 O
ATOM     76  HD  NAG B   5       9.842  -0.907  17.6000  0.00  0.00     0.000 HD
BRANCH 66 78
ATOM     76   N  NAG B   5      10.873   5.622  18.0560  0.00  0.00     0.000 N
ATOM     78  HD  NAG B   5      11.349   4.902  18.1310  0.00  0.00     0.000 HD
ATOM     78   C  NAG B   5      11.961   6.225  18.5620  0.00  0.00     0.000 C
ATOM     79   C  NAG B   5      11.747   7.680  18.8770  0.00  0.00     0.000 C
ATOM     80   O  NAG B   5      13.071   5.616  18.7660  0.00  0.00     0.000 OA
ENDBRANCH 66 78
BRANCH 65 81
ATOM     81  O4  BDP B   6       9.126   4.270  19.4040  0.00  0.00     0.000 O
BRANCH 81 85
ATOM     82  C1  BDP B   6       5.908   4.779  22.1870  0.00  0.00     0.000 C
ATOM     83  C2  BDP B   6       6.386   3.356  21.9150  0.00  0.00     0.000 C
ATOM     84  C3  BDP B   6       7.765   3.308  21.2500  0.00  0.00     0.000 C
ATOM     85  C4  BDP B   6       7.834   4.204  20.0120  0.00  0.00     0.000 C
ATOM     86  C5  BDP B   6       7.294   5.600  20.4030  0.00  0.00     0.000 C
ATOM     87  O5  BDP B   6       5.950   5.523  20.9780  0.00  0.00     0.000 O
ATOM     88   O  BDP B   6       6.450   2.725  23.1910  0.00  0.00     0.000 O
ATOM     90  HD  BDP B   6       6.958   2.193  23.6470  0.00  0.00     0.000 HD
ATOM     90   O  BDP B   6       8.094   1.956  20.9240  0.00  0.00     0.000 O
ATOM     92  HD  BDP B   6       8.601   1.423  21.3800  0.00  0.00     0.000 HD
BRANCH 86 92
ATOM     92   C  BDP B   6       7.111   6.461  19.1760  0.00  0.00     0.000 C
ATOM     93   O  BDP B   6       8.080   7.165  18.7580  0.00  0.00     0.000 OA
ATOM     94   O  BDP B   6       5.983   6.421  18.5950  0.00  0.00     0.000 OA
ENDBRANCH 86 92
BRANCH 82 95
ATOM     95  O3  NAG B   7       4.535   4.721  22.6230  0.00  0.00     0.000 O
BRANCH 95 98
ATOM     96  C1  NAG B   7       2.223   5.968  25.1600  0.00  0.00     0.000 C
ATOM     97  C2  NAG B   7       2.635   5.232  23.8920  0.00  0.00     0.000 C
ATOM     98  C3  NAG B   7       4.140   5.463  23.7760  0.00  0.00     0.000 C
ATOM     99  C4  NAG B   7       4.429   6.959  23.6720  0.00  0.00     0.000 C
ATOM    100  C5  NAG B   7       3.790   7.720  24.8350  0.00  0.00     0.000 C
ATOM    101  O5  NAG B   7       2.418   7.366  24.9180  0.00  0.00     0.000 O
BRANCH 97 104
ATOM    102   N  NAG B   7       2.436   3.777  23.9280  0.00  0.00     0.000 N
ATOM    104  HD  NAG B   7       2.583   2.923  23.9480  0.00  0.00     0.000 HD
ATOM    104   O  NAG B   7       1.758   1.751  23.1760  0.00  0.00     0.000 OA
ATOM    105   C  NAG B   7       1.795   2.989  23.0430  0.00  0.00     0.000 C
ATOM    106   C  NAG B   7       1.126   3.616  21.8680  0.00  0.00     0.000 C
ENDBRANCH 97 104
ATOM    107   O  NAG B   7       3.642   9.823  25.8650  0.00  0.00     0.000 O
ATOM    109  HD  NAG B   7       3.694   8.969  26.0020  0.00  0.00     0.000 HD
ATOM    109   O  NAG B   7       3.642   9.823  25.8650  0.00  0.00     0.000 O
ATOM    111  HD  NAG B   7       3.694   8.969  26.0020  0.00  0.00     0.000 HD
ENDBRANCH 95 98
ENDBRANCH 82 95
ENDBRANCH 81 85
ENDBRANCH 65 81
ENDBRANCH 64 67
ENDBRANCH 51 64
ENDBRANCH 50 54
ENDBRANCH 34 50
ENDBRANCH 33 36
ENDBRANCH 20 33
ENDBRANCH 19 23
ENDBRANCH 1 19
TORSDOF 19
ENDMDL
MODEL 62
REMARK VINA RESULT:      -5.3      7.997     13.318
ROOT
ATOM      1  C1  NAG B   1       7.659  15.156  24.6780  0.00  0.00     0.000 C
ATOM      2  C2  NAG B   1       8.332  16.489  24.9940  0.00  0.00     0.000 C
ATOM      3  C3  NAG B   1       7.360  17.483  25.5970  0.00  0.00     0.000 C
ATOM      4  C4  NAG B   1       6.237  17.627  24.5750  0.00  0.00     0.000 C
ATOM      5  C5  NAG B   1       5.528  16.276  24.4120  0.00  0.00     0.000 C
ATOM      6  O5  NAG B   1       6.438  15.265  23.9290  0.00  0.00     0.000 O
ATOM      7   O  NAG B   1       7.981  18.761  25.8640  0.00  0.00     0.000 O
ATOM      9  HD  NAG B   1       8.624  18.203  26.0240  0.00  0.00     0.000 HD
ATOM      9   O  NAG B   1       5.309  18.608  25.0050  0.00  0.00     0.000 O
ATOM     11  HD  NAG B   1       5.952  18.051  25.1650  0.00  0.00     0.000 HD
ATOM     11   C  NAG B   1       4.310  16.431  23.4930  0.00  0.00     0.000 C
ATOM     12   O  NAG B   1       4.028  15.217  22.7990  0.00  0.00     0.000 O
ATOM     14  HD  NAG B   1       4.670  14.660  22.9600  0.00  0.00     0.000 HD
ENDROOT
BRANCH 2 16
ATOM     14   N  NAG B   1       9.508  16.206  25.8360  0.00  0.00     0.000 N
ATOM     16  HD  NAG B   1      10.162  15.648  25.9420  0.00  0.00     0.000 HD
ATOM     16   C  NAG B   1      10.765  16.510  25.4680  0.00  0.00     0.000 C
ATOM     17   C  NAG B   1      11.023  17.146  24.1280  0.00  0.00     0.000 C
ATOM     18   O  NAG B   1      11.718  16.304  26.2190  0.00  0.00     0.000 OA
ENDBRANCH 2 16
BRANCH 1 19
ATOM     19  O4  BDP B   2       8.592  14.520  23.8150  0.00  0.00     0.000 O
BRANCH 19 23
ATOM     20  C1  BDP B   2       8.515  12.981  19.9980  0.00  0.00     0.000 C
ATOM     21  C2  BDP B   2       8.388  14.486  20.1200  0.00  0.00     0.000 C
ATOM     22  C3  BDP B   2       8.842  14.965  21.4800  0.00  0.00     0.000 C
ATOM     23  C4  BDP B   2       8.081  14.184  22.5470  0.00  0.00     0.000 C
ATOM     24  C5  BDP B   2       8.293  12.698  22.3300  0.00  0.00     0.000 C
ATOM     25  O5  BDP B   2       7.814  12.333  21.0500  0.00  0.00     0.000 O
ATOM     26   O  BDP B   2       9.143  15.124  19.1130  0.00  0.00     0.000 O
ATOM     28  HD  BDP B   2       9.163  14.306  18.8300  0.00  0.00     0.000 HD
ATOM     28   O  BDP B   2       8.616  16.380  21.5820  0.00  0.00     0.000 O
ATOM     30  HD  BDP B   2       8.636  15.562  21.2990  0.00  0.00     0.000 HD
BRANCH 24 30
ATOM     30   C  BDP B   2       7.566  11.875  23.3330  0.00  0.00     0.000 C
ATOM     31   O  BDP B   2       8.255  11.155  24.0930  0.00  0.00     0.000 OA
ATOM     32   O  BDP B   2       6.304  11.938  23.3620  0.00  0.00     0.000 OA
ENDBRANCH 24 30
BRANCH 20 33
ATOM     33  O3  NAG B   3       7.889  12.685  18.7730  0.00  0.00     0.000 O
BRANCH 33 36
ATOM     34  C1  NAG B   3       9.009   9.833  16.5910  0.00  0.00     0.000 C
ATOM     35  C2  NAG B   3       8.957  11.243  17.1470  0.00  0.00     0.000 C
ATOM     36  C3  NAG B   3       8.073  11.316  18.4030  0.00  0.00     0.000 C
ATOM     37  C4  NAG B   3       6.711  10.699  18.0990  0.00  0.00     0.000 C
ATOM     38  C5  NAG B   3       6.884   9.321  17.4650  0.00  0.00     0.000 C
ATOM     39  O5  NAG B   3       7.681   9.422  16.2980  0.00  0.00     0.000 O
ATOM     40   O  NAG B   3       5.947  10.576  19.3080  0.00  0.00     0.000 O
ATOM     42  HD  NAG B   3       5.897   9.752  19.0470  0.00  0.00     0.000 HD
ATOM     42   C  NAG B   3       5.575   8.683  17.0080  0.00  0.00     0.000 C
ATOM     43   O  NAG B   3       5.013   9.455  15.9400  0.00  0.00     0.000 O
ATOM     45  HD  NAG B   3       4.963   8.630  15.6780  0.00  0.00     0.000 HD
BRANCH 35 47
ATOM     45   N  NAG B   3       9.618  12.400  16.5580  0.00  0.00     0.000 N
ATOM     47  HD  NAG B   3       8.755  12.471  16.5540  0.00  0.00     0.000 HD
ATOM     47   C  NAG B   3      10.743  12.900  17.0280  0.00  0.00     0.000 C
ATOM     48   C  NAG B   3      11.279  14.106  16.3150  0.00  0.00     0.000 C
ATOM     49   O  NAG B   3      11.307  12.423  18.0100  0.00  0.00     0.000 OA
ENDBRANCH 35 47
BRANCH 34 50
ATOM     50  O4  BDP B   4       9.755   9.971  15.4000  0.00  0.00     0.000 O
BRANCH 50 54
ATOM     51  C1  BDP B   4      12.383   8.133  12.8960  0.00  0.00     0.000 C
ATOM     52  C2  BDP B   4      11.010   7.475  12.9650  0.00  0.00     0.000 C
ATOM     53  C3  BDP B   4      10.051   8.433  13.6020  0.00  0.00     0.000 C
ATOM     54  C4  BDP B   4      10.600   8.884  14.9860  0.00  0.00     0.000 C
ATOM     55  C5  BDP B   4      12.047   9.350  14.9110  0.00  0.00     0.000 C
ATOM     56  O5  BDP B   4      12.842   8.397  14.2100  0.00  0.00     0.000 O
ATOM     57   O  BDP B   4      10.557   7.152  11.6680  0.00  0.00     0.000 O
ATOM     59  HD  BDP B   4      10.680   6.297  11.6000  0.00  0.00     0.000 HD
ATOM     59   O  BDP B   4       8.822   7.710  13.8250  0.00  0.00     0.000 O
ATOM     61  HD  BDP B   4       8.945   6.856  13.7570  0.00  0.00     0.000 HD
BRANCH 55 61
ATOM     61   C  BDP B   4      12.593   9.517  16.3170  0.00  0.00     0.000 C
ATOM     62   O  BDP B   4      13.375  10.479  16.5370  0.00  0.00     0.000 OA
ATOM     63   O  BDP B   4      12.235   8.683  17.2040  0.00  0.00     0.000 OA
ENDBRANCH 55 61
BRANCH 51 64
ATOM     64  O3  NAG B   5      13.265   7.214  12.2230  0.00  0.00     0.000 O
BRANCH 64 67
ATOM     65  C1  NAG B   5      15.923   8.364   9.9410  0.00  0.00     0.000 C
ATOM     66  C2  NAG B   5      14.533   7.964  10.4040  0.00  0.00     0.000 C
ATOM     67  C3  NAG B   5      14.520   7.789  11.9170  0.00  0.00     0.000 C
ATOM     68  C4  NAG B   5      15.640   6.843  12.3710  0.00  0.00     0.000 C
ATOM     69  C5  NAG B   5      16.976   7.270  11.7840  0.00  0.00     0.000 C
ATOM     70  O5  NAG B   5      16.864   7.401  10.3590  0.00  0.00     0.000 O
ATOM     71   O  NAG B   5      15.680   6.835  13.7820  0.00  0.00     0.000 O
ATOM     73  HD  NAG B   5      15.788   5.986  13.6540  0.00  0.00     0.000 HD
ATOM     73   C  NAG B   5      18.134   6.307  12.0820  0.00  0.00     0.000 C
ATOM     74   O  NAG B   5      17.875   5.032  11.4580  0.00  0.00     0.000 O
ATOM     76  HD  NAG B   5      17.983   4.182  11.3300  0.00  0.00     0.000 HD
BRANCH 66 78
ATOM     76   N  NAG B   5      13.722   9.011   9.7510  0.00  0.00     0.000 N
ATOM     78  HD  NAG B   5      13.700   8.149   9.8370  0.00  0.00     0.000 HD
ATOM     78   C  NAG B   5      12.499   8.847   9.2240  0.00  0.00     0.000 C
ATOM     79   C  NAG B   5      11.922  10.110   8.6450  0.00  0.00     0.000 C
ATOM     80   O  NAG B   5      11.884   7.721   9.2080  0.00  0.00     0.000 OA
ENDBRANCH 66 78
BRANCH 65 81
ATOM     81  O4  BDP B   6      15.952   8.485   8.5130  0.00  0.00     0.000 O
BRANCH 81 85
ATOM     82  C1  BDP B   6      18.203  10.525   5.4910  0.00  0.00     0.000 C
ATOM     83  C2  BDP B   6      18.668   9.129   5.8950  0.00  0.00     0.000 C
ATOM     84  C3  BDP B   6      17.596   8.340   6.6520  0.00  0.00     0.000 C
ATOM     85  C4  BDP B   6      17.023   9.136   7.8260  0.00  0.00     0.000 C
ATOM     86  C5  BDP B   6      16.622  10.536   7.3020  0.00  0.00     0.000 C
ATOM     87  O5  BDP B   6      17.741  11.213   6.6450  0.00  0.00     0.000 O
ATOM     88   O  BDP B   6      18.976   8.463   4.6730  0.00  0.00     0.000 O
ATOM     90  HD  BDP B   6      18.879   7.692   4.2910  0.00  0.00     0.000 HD
ATOM     90   O  BDP B   6      18.140   7.094   7.0940  0.00  0.00     0.000 O
ATOM     92  HD  BDP B   6      18.043   6.323   6.7120  0.00  0.00     0.000 HD
BRANCH 86 92
ATOM     92   C  BDP B   6      16.272  11.451   8.4500  0.00  0.00     0.000 C
ATOM     93   O  BDP B   6      17.200  11.972   9.1390  0.00  0.00     0.000 OA
ATOM     94   O  BDP B   6      15.041  11.680   8.6620  0.00  0.00     0.000 OA
ENDBRANCH 86 92
BRANCH 82 95
ATOM     95  O3  NAG B   7      19.335  11.247   4.9690  0.00  0.00     0.000 O
BRANCH 95 98
ATOM     96  C1  NAG B   7      20.016  13.243   1.9870  0.00  0.00     0.000 C
ATOM     97  C2  NAG B   7      20.283  12.175   3.0390  0.00  0.00     0.000 C
ATOM     98  C3  NAG B   7      19.118  12.290   4.0190  0.00  0.00     0.000 C
ATOM     99  C4  NAG B   7      19.093  13.686   4.6350  0.00  0.00     0.000 C
ATOM    100  C5  NAG B   7      19.074  14.762   3.5470  0.00  0.00     0.000 C
ATOM    101  O5  NAG B   7      20.134  14.513   2.6370  0.00  0.00     0.000 O
BRANCH 97 104
ATOM    102   N  NAG B   7      20.253  10.781   2.5750  0.00  0.00     0.000 N
ATOM    104  HD  NAG B   7      20.036   9.948   2.4750  0.00  0.00     0.000 HD
ATOM    104   O  NAG B   7      21.030   8.678   2.2550  0.00  0.00     0.000 OA
ATOM    105   C  NAG B   7      21.222   9.848   2.6390  0.00  0.00     0.000 C
ATOM    106   C  NAG B   7      22.553  10.223   3.1980  0.00  0.00     0.000 C
ENDBRANCH 97 104
ATOM    107   O  NAG B   7      18.863  17.068   3.1710  0.00  0.00     0.000 O
ATOM    109  HD  NAG B   7      18.654  16.280   2.8780  0.00  0.00     0.000 HD
ATOM    109   O  NAG B   7      18.863  17.068   3.1710  0.00  0.00     0.000 O
ATOM    111  HD  NAG B   7      18.654  16.280   2.8780  0.00  0.00     0.000 HD
ENDBRANCH 95 98
ENDBRANCH 82 95
ENDBRANCH 81 85
ENDBRANCH 65 81
ENDBRANCH 64 67
ENDBRANCH 51 64
ENDBRANCH 50 54
ENDBRANCH 34 50
ENDBRANCH 33 36
ENDBRANCH 20 33
ENDBRANCH 19 23
ENDBRANCH 1 19
TORSDOF 19
ENDMDL
MODEL 63
REMARK VINA RESULT:      -5.3      5.530      8.467
ROOT
ATOM      1  C1  NAG B   1       9.865   8.441  14.8770  0.00  0.00     0.000 C
ATOM      2  C2  NAG B   1      10.326   7.337  13.9280  0.00  0.00     0.000 C
ATOM      3  C3  NAG B   1       9.724   7.493  12.5470  0.00  0.00     0.000 C
ATOM      4  C4  NAG B   1       8.213   7.484  12.7570  0.00  0.00     0.000 C
ATOM      5  C5  NAG B   1       7.817   8.697  13.6100  0.00  0.00     0.000 C
ATOM      6  O5  NAG B   1       8.444   8.647  14.9090  0.00  0.00     0.000 O
ATOM      7   O  NAG B   1      10.125   6.429  11.6540  0.00  0.00     0.000 O
ATOM      9  HD  NAG B   1      10.832   6.541  12.1410  0.00  0.00     0.000 HD
ATOM      9   O  NAG B   1       7.546   7.537  11.5080  0.00  0.00     0.000 O
ATOM     11  HD  NAG B   1       8.253   7.649  11.9950  0.00  0.00     0.000 HD
ATOM     11   C  NAG B   1       6.290   8.784  13.7190  0.00  0.00     0.000 C
ATOM     12   O  NAG B   1       5.893   9.408  14.9390  0.00  0.00     0.000 O
ATOM     14  HD  NAG B   1       6.600   9.519  15.4260  0.00  0.00     0.000 HD
ENDROOT
BRANCH 2 16
ATOM     14   N  NAG B   1      11.192   6.326  14.5600  0.00  0.00     0.000 N
ATOM     16  HD  NAG B   1      11.588   5.570  14.4140  0.00  0.00     0.000 HD
ATOM     16   C  NAG B   1      12.516   6.252  14.3410  0.00  0.00     0.000 C
ATOM     17   C  NAG B   1      13.176   7.216  13.3900  0.00  0.00     0.000 C
ATOM     18   O  NAG B   1      13.215   5.424  14.9250  0.00  0.00     0.000 OA
ENDBRANCH 2 16
BRANCH 1 19
ATOM     19  O4  BDP B   2      10.216   7.934  16.1570  0.00  0.00     0.000 O
BRANCH 19 23
ATOM     20  C1  BDP B   2      10.749  11.668  17.8070  0.00  0.00     0.000 C
ATOM     21  C2  BDP B   2      12.003  10.941  17.3670  0.00  0.00     0.000 C
ATOM     22  C3  BDP B   2      11.677   9.808  16.4200  0.00  0.00     0.000 C
ATOM     23  C4  BDP B   2      10.632   8.913  17.0800  0.00  0.00     0.000 C
ATOM     24  C5  BDP B   2       9.424   9.745  17.4630  0.00  0.00     0.000 C
ATOM     25  O5  BDP B   2       9.815  10.757  18.3710  0.00  0.00     0.000 O
ATOM     26   O  BDP B   2      12.897  11.839  16.7460  0.00  0.00     0.000 O
ATOM     28  HD  BDP B   2      12.328  12.395  17.0880  0.00  0.00     0.000 HD
ATOM     28   O  BDP B   2      12.881   9.092  16.1060  0.00  0.00     0.000 O
ATOM     30  HD  BDP B   2      12.313   9.648  16.4490  0.00  0.00     0.000 HD
BRANCH 24 30
ATOM     30   C  BDP B   2       8.369   8.932  18.1240  0.00  0.00     0.000 C
ATOM     31   O  BDP B   2       8.725   8.178  19.0580  0.00  0.00     0.000 OA
ATOM     32   O  BDP B   2       7.180   9.037  17.7070  0.00  0.00     0.000 OA
ENDBRANCH 24 30
BRANCH 20 33
ATOM     33  O3  NAG B   3      11.198  12.548  18.8080  0.00  0.00     0.000 O
BRANCH 33 36
ATOM     34  C1  NAG B   3       9.813  16.038  19.0310  0.00  0.00     0.000 C
ATOM     35  C2  NAG B   3      10.704  14.905  18.5590  0.00  0.00     0.000 C
ATOM     36  C3  NAG B   3      10.225  13.552  19.1060  0.00  0.00     0.000 C
ATOM     37  C4  NAG B   3      10.062  13.648  20.6210  0.00  0.00     0.000 C
ATOM     38  C5  NAG B   3       9.221  14.868  20.9860  0.00  0.00     0.000 C
ATOM     39  O5  NAG B   3       9.812  16.040  20.4510  0.00  0.00     0.000 O
ATOM     40   O  NAG B   3       9.426  12.462  21.1220  0.00  0.00     0.000 O
ATOM     42  HD  NAG B   3       8.883  13.045  21.4600  0.00  0.00     0.000 HD
ATOM     42   C  NAG B   3       9.115  15.117  22.4880  0.00  0.00     0.000 C
ATOM     43   O  NAG B   3      10.406  15.453  23.0110  0.00  0.00     0.000 O
ATOM     45  HD  NAG B   3       9.863  16.037  23.3490  0.00  0.00     0.000 HD
BRANCH 35 47
ATOM     45   N  NAG B   3      11.859  15.155  17.7060  0.00  0.00     0.000 N
ATOM     47  HD  NAG B   3      12.082  14.929  18.5120  0.00  0.00     0.000 HD
ATOM     47   C  NAG B   3      11.900  14.810  16.4350  0.00  0.00     0.000 C
ATOM     48   C  NAG B   3      13.174  15.122  15.7060  0.00  0.00     0.000 C
ATOM     49   O  NAG B   3      10.961  14.241  15.8830  0.00  0.00     0.000 OA
ENDBRANCH 35 47
BRANCH 34 50
ATOM     50  O4  BDP B   4      10.454  17.195  18.5370  0.00  0.00     0.000 O
BRANCH 50 54
ATOM     51  C1  BDP B   4       9.200  20.715  16.9270  0.00  0.00     0.000 C
ATOM     52  C2  BDP B   4      10.149  20.864  18.1110  0.00  0.00     0.000 C
ATOM     53  C3  BDP B   4      10.815  19.546  18.3610  0.00  0.00     0.000 C
ATOM     54  C4  BDP B   4       9.737  18.441  18.5560  0.00  0.00     0.000 C
ATOM     55  C5  BDP B   4       8.688  18.454  17.4520  0.00  0.00     0.000 C
ATOM     56  O5  BDP B   4       8.192  19.774  17.2510  0.00  0.00     0.000 O
ATOM     57   O  BDP B   4      11.131  21.840  17.8320  0.00  0.00     0.000 O
ATOM     59  HD  BDP B   4      10.877  22.538  18.2760  0.00  0.00     0.000 HD
ATOM     59   O  BDP B   4      11.550  19.674  19.5950  0.00  0.00     0.000 O
ATOM     61  HD  BDP B   4      11.296  20.373  20.0390  0.00  0.00     0.000 HD
BRANCH 55 61
ATOM     61   C  BDP B   4       7.539  17.543  17.8440  0.00  0.00     0.000 C
ATOM     62   O  BDP B   4       6.956  17.764  18.9380  0.00  0.00     0.000 OA
ATOM     63   O  BDP B   4       7.218  16.605  17.0510  0.00  0.00     0.000 OA
ENDBRANCH 55 61
BRANCH 51 64
ATOM     64  O3  NAG B   5       8.626  22.012  16.6740  0.00  0.00     0.000 O
BRANCH 64 67
ATOM     65  C1  NAG B   5       7.728  22.776  13.1810  0.00  0.00     0.000 C
ATOM     66  C2  NAG B   5       8.611  22.515  14.3880  0.00  0.00     0.000 C
ATOM     67  C3  NAG B   5       7.765  22.016  15.5520  0.00  0.00     0.000 C
ATOM     68  C4  NAG B   5       6.584  22.959  15.8180  0.00  0.00     0.000 C
ATOM     69  C5  NAG B   5       5.815  23.234  14.5350  0.00  0.00     0.000 C
ATOM     70  O5  NAG B   5       6.715  23.696  13.5160  0.00  0.00     0.000 O
ATOM     71   O  NAG B   5       5.751  22.376  16.7980  0.00  0.00     0.000 O
ATOM     73  HD  NAG B   5       5.734  23.190  17.0940  0.00  0.00     0.000 HD
ATOM     73   C  NAG B   5       4.691  24.269  14.6800  0.00  0.00     0.000 C
ATOM     74   O  NAG B   5       5.256  25.551  15.0250  0.00  0.00     0.000 O
ATOM     76  HD  NAG B   5       5.239  26.365  15.3210  0.00  0.00     0.000 HD
BRANCH 66 78
ATOM     76   N  NAG B   5       9.633  21.577  13.8850  0.00  0.00     0.000 N
ATOM     78  HD  NAG B   5       9.614  22.359  14.2560  0.00  0.00     0.000 HD
ATOM     78   C  NAG B   5      10.957  21.668  14.0870  0.00  0.00     0.000 C
ATOM     79   C  NAG B   5      11.739  20.546  13.4600  0.00  0.00     0.000 C
ATOM     80   O  NAG B   5      11.503  22.625  14.7440  0.00  0.00     0.000 OA
ENDBRANCH 66 78
BRANCH 65 81
ATOM     81  O4  BDP B   6       8.513  23.289  12.0970  0.00  0.00     0.000 O
BRANCH 81 85
ATOM     82  C1  BDP B   6       8.359  23.199   7.8150  0.00  0.00     0.000 C
ATOM     83  C2  BDP B   6       7.059  22.946   8.5740  0.00  0.00     0.000 C
ATOM     84  C3  BDP B   6       7.125  23.396  10.0360  0.00  0.00     0.000 C
ATOM     85  C4  BDP B   6       8.350  22.827  10.7540  0.00  0.00     0.000 C
ATOM     86  C5  BDP B   6       9.592  23.114   9.8770  0.00  0.00     0.000 C
ATOM     87  O5  BDP B   6       9.433  22.592   8.5190  0.00  0.00     0.000 O
ATOM     88   O  BDP B   6       6.065  23.701   7.8870  0.00  0.00     0.000 O
ATOM     90  HD  BDP B   6       5.385  24.213   8.0490  0.00  0.00     0.000 HD
ATOM     90   O  BDP B   6       5.919  23.024  10.7070  0.00  0.00     0.000 O
ATOM     92  HD  BDP B   6       5.239  23.536  10.8690  0.00  0.00     0.000 HD
BRANCH 86 92
ATOM     92   C  BDP B   6      10.797  22.376  10.4070  0.00  0.00     0.000 C
ATOM     93   O  BDP B   6      10.863  21.116  10.2800  0.00  0.00     0.000 OA
ATOM     94   O  BDP B   6      11.717  23.066  10.9460  0.00  0.00     0.000 OA
ENDBRANCH 86 92
BRANCH 82 95
ATOM     95  O3  NAG B   7       8.261  22.566   6.5240  0.00  0.00     0.000 O
BRANCH 95 98
ATOM     96  C1  NAG B   7       8.382  23.498   2.9950  0.00  0.00     0.000 C
ATOM     97  C2  NAG B   7       7.915  22.712   4.2130  0.00  0.00     0.000 C
ATOM     98  C3  NAG B   7       8.744  23.258   5.3730  0.00  0.00     0.000 C
ATOM     99  C4  NAG B   7      10.229  23.035   5.1000  0.00  0.00     0.000 C
ATOM    100  C5  NAG B   7      10.629  23.620   3.7450  0.00  0.00     0.000 C
ATOM    101  O5  NAG B   7       9.744  23.128   2.7510  0.00  0.00     0.000 O
BRANCH 97 104
ATOM    102   N  NAG B   7       6.500  22.910   4.5560  0.00  0.00     0.000 N
ATOM    104  HD  NAG B   7       5.775  23.157   4.9600  0.00  0.00     0.000 HD
ATOM    104   O  NAG B   7       4.401  22.306   5.1570  0.00  0.00     0.000 OA
ATOM    105   C  NAG B   7       5.557  21.985   4.8180  0.00  0.00     0.000 C
ATOM    106   C  NAG B   7       5.910  20.540   4.7130  0.00  0.00     0.000 C
ENDBRANCH 97 104
ATOM    107   O  NAG B   7      12.457  24.076   2.3470  0.00  0.00     0.000 O
ATOM    109  HD  NAG B   7      11.696  24.371   2.6360  0.00  0.00     0.000 HD
ATOM    109   O  NAG B   7      12.457  24.076   2.3470  0.00  0.00     0.000 O
ATOM    111  HD  NAG B   7      11.696  24.371   2.6360  0.00  0.00     0.000 HD
ENDBRANCH 95 98
ENDBRANCH 82 95
ENDBRANCH 81 85
ENDBRANCH 65 81
ENDBRANCH 64 67
ENDBRANCH 51 64
ENDBRANCH 50 54
ENDBRANCH 34 50
ENDBRANCH 33 36
ENDBRANCH 20 33
ENDBRANCH 19 23
ENDBRANCH 1 19
TORSDOF 19
ENDMDL
MODEL 64
REMARK VINA RESULT:      -5.3      7.905     14.467
ROOT
ATOM      1  C1  NAG B   1      25.850   5.959   8.8880  0.00  0.00     0.000 C
ATOM      2  C2  NAG B   1      27.185   5.350   9.3080  0.00  0.00     0.000 C
ATOM      3  C3  NAG B   1      27.761   6.040  10.5280  0.00  0.00     0.000 C
ATOM      4  C4  NAG B   1      27.888   7.510  10.1430  0.00  0.00     0.000 C
ATOM      5  C5  NAG B   1      26.491   8.080   9.8640  0.00  0.00     0.000 C
ATOM      6  O5  NAG B   1      25.857   7.390   8.7660  0.00  0.00     0.000 O
ATOM      7   O  NAG B   1      29.044   5.494  10.9090  0.00  0.00     0.000 O
ATOM      9  HD  NAG B   1      28.624   4.796  10.6150  0.00  0.00     0.000 HD
ATOM      9   O  NAG B   1      28.503   8.238  11.1920  0.00  0.00     0.000 O
ATOM     11  HD  NAG B   1      28.083   7.540  10.8980  0.00  0.00     0.000 HD
ATOM     11   C  NAG B   1      26.583   9.590   9.6090  0.00  0.00     0.000 C
ATOM     12   O  NAG B   1      25.538  10.033   8.7440  0.00  0.00     0.000 O
ATOM     14  HD  NAG B   1      25.118   9.335   8.4500  0.00  0.00     0.000 HD
ENDROOT
BRANCH 2 16
ATOM     14   N  NAG B   1      27.685   4.282   8.4240  0.00  0.00     0.000 N
ATOM     16  HD  NAG B   1      28.361   3.756   8.2920  0.00  0.00     0.000 HD
ATOM     16   C  NAG B   1      27.640   2.978   8.7480  0.00  0.00     0.000 C
ATOM     17   C  NAG B   1      27.083   2.554  10.0810  0.00  0.00     0.000 C
ATOM     18   O  NAG B   1      28.023   2.112   7.9620  0.00  0.00     0.000 OA
ENDBRANCH 2 16
BRANCH 1 19
ATOM     19  O4  BDP B   2      25.665   5.455   7.5720  0.00  0.00     0.000 O
BRANCH 19 23
ATOM     20  C1  BDP B   2      21.568   5.848   7.6400  0.00  0.00     0.000 C
ATOM     21  C2  BDP B   2      22.121   4.492   8.0270  0.00  0.00     0.000 C
ATOM     22  C3  BDP B   2      23.591   4.577   8.3720  0.00  0.00     0.000 C
ATOM     23  C4  BDP B   2      24.322   5.243   7.2090  0.00  0.00     0.000 C
ATOM     24  C5  BDP B   2      23.691   6.592   6.9230  0.00  0.00     0.000 C
ATOM     25  O5  BDP B   2      22.329   6.415   6.5820  0.00  0.00     0.000 O
ATOM     26   O  BDP B   2      21.405   3.966   9.1240  0.00  0.00     0.000 O
ATOM     28  HD  BDP B   2      20.894   4.631   8.9070  0.00  0.00     0.000 HD
ATOM     28   O  BDP B   2      24.091   3.258   8.6400  0.00  0.00     0.000 O
ATOM     30  HD  BDP B   2      23.581   3.923   8.4220  0.00  0.00     0.000 HD
BRANCH 24 30
ATOM     30   C  BDP B   2      24.351   7.291   5.7900  0.00  0.00     0.000 C
ATOM     31   O  BDP B   2      24.742   8.465   5.9890  0.00  0.00     0.000 OA
ATOM     32   O  BDP B   2      24.474   6.676   4.6930  0.00  0.00     0.000 OA
ENDBRANCH 24 30
BRANCH 20 33
ATOM     33  O3  NAG B   3      20.270   5.567   7.1780  0.00  0.00     0.000 O
BRANCH 33 36
ATOM     34  C1  NAG B   3      17.482   8.062   7.5720  0.00  0.00     0.000 C
ATOM     35  C2  NAG B   3      18.418   6.927   7.9420  0.00  0.00     0.000 C
ATOM     36  C3  NAG B   3      19.537   6.763   6.9010  0.00  0.00     0.000 C
ATOM     37  C4  NAG B   3      18.920   6.654   5.5090  0.00  0.00     0.000 C
ATOM     38  C5  NAG B   3      17.933   7.795   5.2770  0.00  0.00     0.000 C
ATOM     39  O5  NAG B   3      16.940   7.789   6.2880  0.00  0.00     0.000 O
ATOM     40   O  NAG B   3      19.950   6.703   4.5100  0.00  0.00     0.000 O
ATOM     42  HD  NAG B   3      19.455   7.345   4.2080  0.00  0.00     0.000 HD
ATOM     42   C  NAG B   3      17.170   7.693   3.9580  0.00  0.00     0.000 C
ATOM     43   O  NAG B   3      16.321   6.539   3.9850  0.00  0.00     0.000 O
ATOM     45  HD  NAG B   3      15.826   7.182   3.6820  0.00  0.00     0.000 HD
BRANCH 35 47
ATOM     45   N  NAG B   3      18.240   6.093   9.1230  0.00  0.00     0.000 N
ATOM     47  HD  NAG B   3      18.124   5.655   8.3850  0.00  0.00     0.000 HD
ATOM     47   C  NAG B   3      18.983   6.213  10.2050  0.00  0.00     0.000 C
ATOM     48   C  NAG B   3      18.681   5.261  11.3240  0.00  0.00     0.000 C
ATOM     49   O  NAG B   3      19.890   7.039  10.2840  0.00  0.00     0.000 OA
ENDBRANCH 35 47
BRANCH 34 50
ATOM     50  O4  BDP B   4      16.472   7.996   8.5570  0.00  0.00     0.000 O
BRANCH 50 54
ATOM     51  C1  BDP B   4      13.852  10.187  10.7670  0.00  0.00     0.000 C
ATOM     52  C2  BDP B   4      13.678  10.327   9.2590  0.00  0.00     0.000 C
ATOM     53  C3  BDP B   4      14.423   9.216   8.5860  0.00  0.00     0.000 C
ATOM     54  C4  BDP B   4      15.908   9.223   9.0490  0.00  0.00     0.000 C
ATOM     55  C5  BDP B   4      16.042   9.286  10.5640  0.00  0.00     0.000 C
ATOM     56  O5  BDP B   4      15.223  10.324  11.0940  0.00  0.00     0.000 O
ATOM     57   O  BDP B   4      12.311  10.250   8.9150  0.00  0.00     0.000 O
ATOM     59  HD  BDP B   4      12.078  11.069   8.7600  0.00  0.00     0.000 HD
ATOM     59   O  BDP B   4      14.397   9.491   7.1700  0.00  0.00     0.000 O
ATOM     61  HD  BDP B   4      14.164  10.311   7.0150  0.00  0.00     0.000 HD
BRANCH 55 61
ATOM     61   C  BDP B   4      17.491   9.558  10.9280  0.00  0.00     0.000 C
ATOM     62   O  BDP B   4      17.935   9.062  11.9970  0.00  0.00     0.000 OA
ATOM     63   O  BDP B   4      18.185  10.268  10.1390  0.00  0.00     0.000 OA
ENDBRANCH 55 61
BRANCH 51 64
ATOM     64  O3  NAG B   5      13.073  11.229  11.3860  0.00  0.00     0.000 O
BRANCH 64 67
ATOM     65  C1  NAG B   5      11.175  10.538  14.4710  0.00  0.00     0.000 C
ATOM     66  C2  NAG B   5      11.509  10.549  12.9890  0.00  0.00     0.000 C
ATOM     67  C3  NAG B   5      12.933  11.048  12.7810  0.00  0.00     0.000 C
ATOM     68  C4  NAG B   5      13.156  12.389  13.4950  0.00  0.00     0.000 C
ATOM     69  C5  NAG B   5      12.708  12.306  14.9460  0.00  0.00     0.000 C
ATOM     70  O5  NAG B   5      11.358  11.826  15.0140  0.00  0.00     0.000 O
ATOM     71   O  NAG B   5      14.523  12.728  13.4000  0.00  0.00     0.000 O
ATOM     73  HD  NAG B   5      14.193  13.514  13.2440  0.00  0.00     0.000 HD
ATOM     73   C  NAG B   5      12.776  13.639  15.7050  0.00  0.00     0.000 C
ATOM     74   O  NAG B   5      11.857  14.580  15.1140  0.00  0.00     0.000 O
ATOM     76  HD  NAG B   5      11.526  15.365  14.9570  0.00  0.00     0.000 HD
BRANCH 66 78
ATOM     76   N  NAG B   5      11.260   9.165  12.5420  0.00  0.00     0.000 N
ATOM     78  HD  NAG B   5      10.969   9.958  12.3520  0.00  0.00     0.000 HD
ATOM     78   C  NAG B   5      10.555   8.800  11.4590  0.00  0.00     0.000 C
ATOM     79   C  NAG B   5      10.495   7.310  11.2570  0.00  0.00     0.000 C
ATOM     80   O  NAG B   5       9.980   9.640  10.6790  0.00  0.00     0.000 OA
ENDBRANCH 66 78
BRANCH 65 81
ATOM     81  O4  BDP B   6       9.821  10.113  14.6680  0.00  0.00     0.000 O
BRANCH 81 85
ATOM     82  C1  BDP B   6       7.289   8.490  17.7210  0.00  0.00     0.000 C
ATOM     83  C2  BDP B   6       7.685   9.959  17.8410  0.00  0.00     0.000 C
ATOM     84  C3  BDP B   6       8.228  10.538  16.5310  0.00  0.00     0.000 C
ATOM     85  C4  BDP B   6       9.341   9.670  15.9400  0.00  0.00     0.000 C
ATOM     86  C5  BDP B   6       8.835   8.208  15.9020  0.00  0.00     0.000 C
ATOM     87  O5  BDP B   6       8.392   7.750  17.2200  0.00  0.00     0.000 O
ATOM     88   O  BDP B   6       6.492  10.647  18.2080  0.00  0.00     0.000 O
ATOM     90  HD  BDP B   6       6.060  11.375  18.0280  0.00  0.00     0.000 HD
ATOM     90   O  BDP B   6       8.683  11.875  16.7500  0.00  0.00     0.000 O
ATOM     92  HD  BDP B   6       8.250  12.604  16.5700  0.00  0.00     0.000 HD
BRANCH 86 92
ATOM     92   C  BDP B   6       9.962   7.266  15.5540  0.00  0.00     0.000 C
ATOM     93   O  BDP B   6      10.849   7.006  16.4220  0.00  0.00     0.000 OA
ATOM     94   O  BDP B   6       9.957   6.751  14.3930  0.00  0.00     0.000 OA
ENDBRANCH 86 92
BRANCH 82 95
ATOM     95  O3  NAG B   7       6.984   7.994  19.0390  0.00  0.00     0.000 O
BRANCH 95 98
ATOM     96  C1  NAG B   7       4.333   5.950  20.5000  0.00  0.00     0.000 C
ATOM     97  C2  NAG B   7       5.276   7.141  20.3950  0.00  0.00     0.000 C
ATOM     98  C3  NAG B   7       6.144   6.848  19.1730  0.00  0.00     0.000 C
ATOM     99  C4  NAG B   7       6.911   5.545  19.3820  0.00  0.00     0.000 C
ATOM    100  C5  NAG B   7       5.958   4.401  19.7330  0.00  0.00     0.000 C
ATOM    101  O5  NAG B   7       5.133   4.805  20.8150  0.00  0.00     0.000 O
BRANCH 97 104
ATOM    102   N  NAG B   7       4.716   8.463  20.0810  0.00  0.00     0.000 N
ATOM    104  HD  NAG B   7       4.575   9.234  19.7120  0.00  0.00     0.000 HD
ATOM    104   O  NAG B   7       4.171  10.631  20.4430  0.00  0.00     0.000 OA
ATOM    105   C  NAG B   7       4.620   9.549  20.8700  0.00  0.00     0.000 C
ATOM    106   C  NAG B   7       5.078   9.459  22.2860  0.00  0.00     0.000 C
ENDBRANCH 97 104
ATOM    107   O  NAG B   7       5.832   2.085  20.0820  0.00  0.00     0.000 O
ATOM    109  HD  NAG B   7       5.431   2.772  19.7420  0.00  0.00     0.000 HD
ATOM    109   O  NAG B   7       5.832   2.085  20.0820  0.00  0.00     0.000 O
ATOM    111  HD  NAG B   7       5.431   2.772  19.7420  0.00  0.00     0.000 HD
ENDBRANCH 95 98
ENDBRANCH 82 95
ENDBRANCH 81 85
ENDBRANCH 65 81
ENDBRANCH 64 67
ENDBRANCH 51 64
ENDBRANCH 50 54
ENDBRANCH 34 50
ENDBRANCH 33 36
ENDBRANCH 20 33
ENDBRANCH 19 23
ENDBRANCH 1 19
TORSDOF 19
ENDMDL
MODEL 65
REMARK VINA RESULT:      -5.3      7.827     15.051
ROOT
ATOM      1  C1  NAG B   1      26.900   3.828   6.9280  0.00  0.00     0.000 C
ATOM      2  C2  NAG B   1      28.260   3.159   7.1130  0.00  0.00     0.000 C
ATOM      3  C3  NAG B   1      28.995   3.701   8.3220  0.00  0.00     0.000 C
ATOM      4  C4  NAG B   1      29.113   5.204   8.0880  0.00  0.00     0.000 C
ATOM      5  C5  NAG B   1      27.708   5.818   8.0470  0.00  0.00     0.000 C
ATOM      6  O5  NAG B   1      26.929   5.263   6.9660  0.00  0.00     0.000 O
ATOM      7   O  NAG B   1      30.301   3.100   8.4800  0.00  0.00     0.000 O
ATOM      9  HD  NAG B   1      29.831   2.445   8.1650  0.00  0.00     0.000 HD
ATOM      9   O  NAG B   1      29.868   5.801   9.1290  0.00  0.00     0.000 O
ATOM     11  HD  NAG B   1      29.398   5.146   8.8130  0.00  0.00     0.000 HD
ATOM     11   C  NAG B   1      27.807   7.345   7.9500  0.00  0.00     0.000 C
ATOM     12   O  NAG B   1      26.678   7.896   7.2750  0.00  0.00     0.000 O
ATOM     14  HD  NAG B   1      26.208   7.241   6.9590  0.00  0.00     0.000 HD
ENDROOT
BRANCH 2 16
ATOM     14   N  NAG B   1      28.571   2.190   6.0470  0.00  0.00     0.000 N
ATOM     16  HD  NAG B   1      29.204   1.690   5.7340  0.00  0.00     0.000 HD
ATOM     16   C  NAG B   1      28.584   0.861   6.2430  0.00  0.00     0.000 C
ATOM     17   C  NAG B   1      28.298   0.300   7.6110  0.00  0.00     0.000 C
ATOM     18   O  NAG B   1      28.799   0.081   5.3160  0.00  0.00     0.000 OA
ENDBRANCH 2 16
BRANCH 1 19
ATOM     19  O4  BDP B   2      26.545   3.478   5.5980  0.00  0.00     0.000 O
BRANCH 19 23
ATOM     20  C1  BDP B   2      22.484   3.890   6.1260  0.00  0.00     0.000 C
ATOM     21  C2  BDP B   2      23.074   2.539   6.4730  0.00  0.00     0.000 C
ATOM     22  C3  BDP B   2      24.574   2.624   6.6460  0.00  0.00     0.000 C
ATOM     23  C4  BDP B   2      25.169   3.265   5.3950  0.00  0.00     0.000 C
ATOM     24  C5  BDP B   2      24.512   4.611   5.1570  0.00  0.00     0.000 C
ATOM     25  O5  BDP B   2      23.120   4.434   4.9780  0.00  0.00     0.000 O
ATOM     26   O  BDP B   2      22.487   2.037   7.6540  0.00  0.00     0.000 O
ATOM     28  HD  BDP B   2      21.957   2.700   7.4840  0.00  0.00     0.000 HD
ATOM     28   O  BDP B   2      25.099   1.308   6.8800  0.00  0.00     0.000 O
ATOM     30  HD  BDP B   2      24.568   1.971   6.7100  0.00  0.00     0.000 HD
BRANCH 24 30
ATOM     30   C  BDP B   2      25.040   5.287   3.9430  0.00  0.00     0.000 C
ATOM     31   O  BDP B   2      25.638   6.375   4.1060  0.00  0.00     0.000 OA
ATOM     32   O  BDP B   2      24.853   4.737   2.8200  0.00  0.00     0.000 OA
ENDBRANCH 24 30
BRANCH 20 33
ATOM     33  O3  NAG B   3      21.141   3.607   5.8200  0.00  0.00     0.000 O
BRANCH 33 36
ATOM     34  C1  NAG B   3      18.518   6.261   6.2940  0.00  0.00     0.000 C
ATOM     35  C2  NAG B   3      19.467   5.137   6.6660  0.00  0.00     0.000 C
ATOM     36  C3  NAG B   3      20.409   4.793   5.5030  0.00  0.00     0.000 C
ATOM     37  C4  NAG B   3      19.585   4.543   4.2420  0.00  0.00     0.000 C
ATOM     38  C5  NAG B   3      18.608   5.693   4.0120  0.00  0.00     0.000 C
ATOM     39  O5  NAG B   3      17.779   5.858   5.1500  0.00  0.00     0.000 O
ATOM     40   O  NAG B   3      20.453   4.418   3.1050  0.00  0.00     0.000 O
ATOM     42  HD  NAG B   3      19.936   5.042   2.7980  0.00  0.00     0.000 HD
ATOM     42   C  NAG B   3      17.651   5.465   2.8440  0.00  0.00     0.000 C
ATOM     43   O  NAG B   3      16.783   4.365   3.1430  0.00  0.00     0.000 O
ATOM     45  HD  NAG B   3      16.266   4.989   2.8360  0.00  0.00     0.000 HD
BRANCH 35 47
ATOM     45   N  NAG B   3      19.508   4.396   7.9200  0.00  0.00     0.000 N
ATOM     47  HD  NAG B   3      19.359   3.886   7.2360  0.00  0.00     0.000 HD
ATOM     47   C  NAG B   3      20.348   4.681   8.8950  0.00  0.00     0.000 C
ATOM     48   C  NAG B   3      20.272   3.806  10.1110  0.00  0.00     0.000 C
ATOM     49   O  NAG B   3      21.165   5.595   8.8040  0.00  0.00     0.000 OA
ENDBRANCH 35 47
BRANCH 34 50
ATOM     50  O4  BDP B   4      17.668   6.366   7.4170  0.00  0.00     0.000 O
BRANCH 50 54
ATOM     51  C1  BDP B   4      15.185   9.033   9.2260  0.00  0.00     0.000 C
ATOM     52  C2  BDP B   4      15.366   9.254   7.7280  0.00  0.00     0.000 C
ATOM     53  C3  BDP B   4      15.975   8.022   7.1330  0.00  0.00     0.000 C
ATOM     54  C4  BDP B   4      17.295   7.675   7.8800  0.00  0.00     0.000 C
ATOM     55  C5  BDP B   4      17.118   7.660   9.3920  0.00  0.00     0.000 C
ATOM     56  O5  BDP B   4      16.453   8.843   9.8270  0.00  0.00     0.000 O
ATOM     57   O  BDP B   4      14.118   9.502   7.1160  0.00  0.00     0.000 O
ATOM     59  HD  BDP B   4      14.108  10.357   6.9800  0.00  0.00     0.000 HD
ATOM     59   O  BDP B   4      16.307   8.337   5.7650  0.00  0.00     0.000 O
ATOM     61  HD  BDP B   4      16.297   9.192   5.6300  0.00  0.00     0.000 HD
BRANCH 55 61
ATOM     61   C  BDP B   4      18.482   7.582  10.0550  0.00  0.00     0.000 C
ATOM     62   O  BDP B   4      19.415   8.273   9.5690  0.00  0.00     0.000 OA
ATOM     63   O  BDP B   4      18.616   6.828  11.0660  0.00  0.00     0.000 OA
ENDBRANCH 55 61
BRANCH 51 64
ATOM     64  O3  NAG B   5      14.540  10.208   9.7560  0.00  0.00     0.000 O
BRANCH 64 67
ATOM     65  C1  NAG B   5      12.669   9.812  12.9080  0.00  0.00     0.000 C
ATOM     66  C2  NAG B   5      12.994   9.675  11.4300  0.00  0.00     0.000 C
ATOM     67  C3  NAG B   5      14.410  10.169  11.1630  0.00  0.00     0.000 C
ATOM     68  C4  NAG B   5      14.619  11.578  11.7340  0.00  0.00     0.000 C
ATOM     69  C5  NAG B   5      14.180  11.639  13.1890  0.00  0.00     0.000 C
ATOM     70  O5  NAG B   5      12.836  11.151  13.3150  0.00  0.00     0.000 O
ATOM     71   O  NAG B   5      15.981  11.924  11.5960  0.00  0.00     0.000 O
ATOM     73  HD  NAG B   5      15.639  12.684  11.3620  0.00  0.00     0.000 HD
ATOM     73   C  NAG B   5      14.234  13.043  13.8070  0.00  0.00     0.000 C
ATOM     74   O  NAG B   5      13.299  13.907  13.1290  0.00  0.00     0.000 O
ATOM     76  HD  NAG B   5      12.957  14.668  12.8950  0.00  0.00     0.000 HD
BRANCH 66 78
ATOM     76   N  NAG B   5      12.527   8.289  11.2370  0.00  0.00     0.000 N
ATOM     78  HD  NAG B   5      12.504   9.035  10.7990  0.00  0.00     0.000 HD
ATOM     78   C  NAG B   5      12.055   7.767  10.0940  0.00  0.00     0.000 C
ATOM     79   C  NAG B   5      11.676   6.315  10.2090  0.00  0.00     0.000 C
ATOM     80   O  NAG B   5      11.931   8.443   9.0110  0.00  0.00     0.000 OA
ENDBRANCH 66 78
BRANCH 65 81
ATOM     81  O4  BDP B   6      11.321   9.392  13.1570  0.00  0.00     0.000 O
BRANCH 81 85
ATOM     82  C1  BDP B   6       8.808   8.227  16.4270  0.00  0.00     0.000 C
ATOM     83  C2  BDP B   6       9.007   9.721  16.1880  0.00  0.00     0.000 C
ATOM     84  C3  BDP B   6       9.561  10.032  14.7950  0.00  0.00     0.000 C
ATOM     85  C4  BDP B   6      10.813   9.210  14.4810  0.00  0.00     0.000 C
ATOM     86  C5  BDP B   6      10.500   7.728  14.7940  0.00  0.00     0.000 C
ATOM     87  O5  BDP B   6      10.029   7.548  16.1680  0.00  0.00     0.000 O
ATOM     88   O  BDP B   6       7.714  10.303  16.3270  0.00  0.00     0.000 O
ATOM     90  HD  BDP B   6       7.206  10.898  15.9550  0.00  0.00     0.000 HD
ATOM     90   O  BDP B   6       9.827  11.433  14.6860  0.00  0.00     0.000 O
ATOM     92  HD  BDP B   6       9.319  12.027  14.3140  0.00  0.00     0.000 HD
BRANCH 86 92
ATOM     92   C  BDP B   6      11.759   6.896  14.7340  0.00  0.00     0.000 C
ATOM     93   O  BDP B   6      12.014   6.225  13.6890  0.00  0.00     0.000 OA
ATOM     94   O  BDP B   6      12.530   6.926  15.7430  0.00  0.00     0.000 OA
ENDBRANCH 86 92
BRANCH 82 95
ATOM     95  O3  NAG B   7       8.478   8.030  17.8160  0.00  0.00     0.000 O
BRANCH 95 98
ATOM     96  C1  NAG B   7       5.602   6.851  19.7340  0.00  0.00     0.000 C
ATOM     97  C2  NAG B   7       6.781   7.758  19.4060  0.00  0.00     0.000 C
ATOM     98  C3  NAG B   7       7.413   7.145  18.1580  0.00  0.00     0.000 C
ATOM     99  C4  NAG B   7       7.869   5.718  18.4540  0.00  0.00     0.000 C
ATOM    100  C5  NAG B   7       6.720   4.883  19.0210  0.00  0.00     0.000 C
ATOM    101  O5  NAG B   7       6.141   5.580  20.1130  0.00  0.00     0.000 O
BRANCH 97 104
ATOM    102   N  NAG B   7       6.463   9.139  19.0210  0.00  0.00     0.000 N
ATOM    104  HD  NAG B   7       6.398   9.878  18.5730  0.00  0.00     0.000 HD
ATOM    104   O  NAG B   7       6.542  11.400  19.1310  0.00  0.00     0.000 OA
ATOM    105   C  NAG B   7       6.843  10.289  19.6100  0.00  0.00     0.000 C
ATOM    106   C  NAG B   7       7.656  10.230  20.8590  0.00  0.00     0.000 C
ENDBRANCH 97 104
ATOM    107   O  NAG B   7       6.092   2.714  19.6540  0.00  0.00     0.000 O
ATOM    109  HD  NAG B   7       5.828   3.444  19.2700  0.00  0.00     0.000 HD
ATOM    109   O  NAG B   7       6.092   2.714  19.6540  0.00  0.00     0.000 O
ATOM    111  HD  NAG B   7       5.828   3.444  19.2700  0.00  0.00     0.000 HD
ENDBRANCH 95 98
ENDBRANCH 82 95
ENDBRANCH 81 85
ENDBRANCH 65 81
ENDBRANCH 64 67
ENDBRANCH 51 64
ENDBRANCH 50 54
ENDBRANCH 34 50
ENDBRANCH 33 36
ENDBRANCH 20 33
ENDBRANCH 19 23
ENDBRANCH 1 19
TORSDOF 19
ENDMDL
MODEL 66
REMARK VINA RESULT:      -5.3      4.746     11.592
ROOT
ATOM      1  C1  NAG B   1       5.899  10.582  24.2220  0.00  0.00     0.000 C
ATOM      2  C2  NAG B   1       5.259  11.725  25.0060  0.00  0.00     0.000 C
ATOM      3  C3  NAG B   1       6.203  12.899  25.1650  0.00  0.00     0.000 C
ATOM      4  C4  NAG B   1       7.438  12.337  25.8620  0.00  0.00     0.000 C
ATOM      5  C5  NAG B   1       8.096  11.291  24.9520  0.00  0.00     0.000 C
ATOM      6  O5  NAG B   1       7.199  10.191  24.6900  0.00  0.00     0.000 O
ATOM      7   O  NAG B   1       5.617  13.969  25.9400  0.00  0.00     0.000 O
ATOM      9  HD  NAG B   1       4.934  13.655  25.5090  0.00  0.00     0.000 HD
ATOM      9   O  NAG B   1       8.359  13.379  26.1400  0.00  0.00     0.000 O
ATOM     11  HD  NAG B   1       7.676  13.065  25.7090  0.00  0.00     0.000 HD
ATOM     11   C  NAG B   1       9.415  10.813  25.5730  0.00  0.00     0.000 C
ATOM     12   O  NAG B   1       9.716   9.474  25.1820  0.00  0.00     0.000 O
ATOM     14  HD  NAG B   1       9.033   9.160  24.7520  0.00  0.00     0.000 HD
ENDROOT
BRANCH 2 16
ATOM     14   N  NAG B   1       3.992  12.156  24.3880  0.00  0.00     0.000 N
ATOM     16  HD  NAG B   1       3.313  11.868  23.9350  0.00  0.00     0.000 HD
ATOM     16   C  NAG B   1       2.792  11.963  24.9600  0.00  0.00     0.000 C
ATOM     17   C  NAG B   1       2.696  11.252  26.2840  0.00  0.00     0.000 C
ATOM     18   O  NAG B   1       1.760  12.382  24.4370  0.00  0.00     0.000 OA
ENDBRANCH 2 16
BRANCH 1 19
ATOM     19  O4  BDP B   2       5.039   9.483  24.4920  0.00  0.00     0.000 O
BRANCH 19 23
ATOM     20  C1  BDP B   2       6.038   7.445  21.0580  0.00  0.00     0.000 C
ATOM     21  C2  BDP B   2       4.794   8.306  20.9920  0.00  0.00     0.000 C
ATOM     22  C3  BDP B   2       4.759   9.307  22.1240  0.00  0.00     0.000 C
ATOM     23  C4  BDP B   2       4.930   8.554  23.4400  0.00  0.00     0.000 C
ATOM     24  C5  BDP B   2       6.209   7.741  23.3940  0.00  0.00     0.000 C
ATOM     25  O5  BDP B   2       6.143   6.814  22.3270  0.00  0.00     0.000 O
ATOM     26   O  BDP B   2       4.732   8.983  19.7550  0.00  0.00     0.000 O
ATOM     28  HD  BDP B   2       5.370   8.420  19.5950  0.00  0.00     0.000 HD
ATOM     28   O  BDP B   2       3.521  10.034  22.0750  0.00  0.00     0.000 O
ATOM     30  HD  BDP B   2       4.159   9.470  21.9140  0.00  0.00     0.000 HD
BRANCH 24 30
ATOM     30   C  BDP B   2       6.432   6.971  24.6460  0.00  0.00     0.000 C
ATOM     31   O  BDP B   2       5.507   6.218  25.0290  0.00  0.00     0.000 OA
ATOM     32   O  BDP B   2       7.528   7.121  25.2570  0.00  0.00     0.000 OA
ENDBRANCH 24 30
BRANCH 20 33
ATOM     33  O3  NAG B   3       5.828   6.465  20.0710  0.00  0.00     0.000 O
BRANCH 33 36
ATOM     34  C1  NAG B   3       8.749   5.038  18.1780  0.00  0.00     0.000 C
ATOM     35  C2  NAG B   3       7.641   6.012  18.5310  0.00  0.00     0.000 C
ATOM     36  C3  NAG B   3       6.988   5.654  19.8750  0.00  0.00     0.000 C
ATOM     37  C4  NAG B   3       6.568   4.186  19.8570  0.00  0.00     0.000 C
ATOM     38  C5  NAG B   3       7.732   3.307  19.4070  0.00  0.00     0.000 C
ATOM     39  O5  NAG B   3       8.195   3.731  18.1370  0.00  0.00     0.000 O
ATOM     40   O  NAG B   3       6.142   3.781  21.1670  0.00  0.00     0.000 O
ATOM     42  HD  NAG B   3       6.736   3.165  21.0350  0.00  0.00     0.000 HD
ATOM     42   C  NAG B   3       7.364   1.836  19.2350  0.00  0.00     0.000 C
ATOM     43   O  NAG B   3       6.428   1.699  18.1580  0.00  0.00     0.000 O
ATOM     45  HD  NAG B   3       7.023   1.083  18.0250  0.00  0.00     0.000 HD
BRANCH 35 47
ATOM     45   N  NAG B   3       8.208   7.352  18.4500  0.00  0.00     0.000 N
ATOM     47  HD  NAG B   3       8.795   6.733  18.3040  0.00  0.00     0.000 HD
ATOM     47   C  NAG B   3       7.560   8.375  17.9270  0.00  0.00     0.000 C
ATOM     48   C  NAG B   3       8.296   9.681  17.9030  0.00  0.00     0.000 C
ATOM     49   O  NAG B   3       6.428   8.260  17.4620  0.00  0.00     0.000 OA
ENDBRANCH 35 47
BRANCH 34 50
ATOM     50  O4  BDP B   4       9.151   5.444  16.8870  0.00  0.00     0.000 O
BRANCH 50 54
ATOM     51  C1  BDP B   4      12.340   5.707  14.3740  0.00  0.00     0.000 C
ATOM     52  C2  BDP B   4      11.625   4.361  14.3480  0.00  0.00     0.000 C
ATOM     53  C3  BDP B   4      10.289   4.515  15.0070  0.00  0.00     0.000 C
ATOM     54  C4  BDP B   4      10.473   5.101  16.4370  0.00  0.00     0.000 C
ATOM     55  C5  BDP B   4      11.362   6.337  16.4460  0.00  0.00     0.000 C
ATOM     56  O5  BDP B   4      12.562   6.093  15.7180  0.00  0.00     0.000 O
ATOM     57   O  BDP B   4      11.442   3.928  13.0170  0.00  0.00     0.000 O
ATOM     59  HD  BDP B   4      12.048   3.320  12.9000  0.00  0.00     0.000 HD
ATOM     59   O  BDP B   4       9.729   3.192  15.1370  0.00  0.00     0.000 O
ATOM     61  HD  BDP B   4      10.334   2.584  15.0210  0.00  0.00     0.000 HD
BRANCH 55 61
ATOM     61   C  BDP B   4      11.712   6.691  17.8810  0.00  0.00     0.000 C
ATOM     62   O  BDP B   4      11.210   7.737  18.3700  0.00  0.00     0.000 OA
ATOM     63   O  BDP B   4      12.490   5.917  18.5180  0.00  0.00     0.000 OA
ENDBRANCH 55 61
BRANCH 51 64
ATOM     64  O3  NAG B   5      13.590   5.539  13.6770  0.00  0.00     0.000 O
BRANCH 64 67
ATOM     65  C1  NAG B   5      14.597   8.516  11.7480  0.00  0.00     0.000 C
ATOM     66  C2  NAG B   5      13.763   7.317  12.1640  0.00  0.00     0.000 C
ATOM     67  C3  NAG B   5      14.275   6.762  13.4870  0.00  0.00     0.000 C
ATOM     68  C4  NAG B   5      15.785   6.498  13.4260  0.00  0.00     0.000 C
ATOM     69  C5  NAG B   5      16.525   7.723  12.9120  0.00  0.00     0.000 C
ATOM     70  O5  NAG B   5      15.956   8.151  11.6660  0.00  0.00     0.000 O
ATOM     71   O  NAG B   5      16.232   6.133  14.7140  0.00  0.00     0.000 O
ATOM     73  HD  NAG B   5      16.686   5.551  14.2600  0.00  0.00     0.000 HD
ATOM     73   C  NAG B   5      18.030   7.508  12.6970  0.00  0.00     0.000 C
ATOM     74   O  NAG B   5      18.235   6.523  11.6630  0.00  0.00     0.000 O
ATOM     76  HD  NAG B   5      18.689   5.941  11.2090  0.00  0.00     0.000 HD
BRANCH 66 78
ATOM     76   N  NAG B   5      12.376   7.819  12.1920  0.00  0.00     0.000 N
ATOM     78  HD  NAG B   5      12.822   7.205  11.7760  0.00  0.00     0.000 HD
ATOM     78   C  NAG B   5      11.310   7.229  11.6290  0.00  0.00     0.000 C
ATOM     79   C  NAG B   5      10.024   7.977  11.8480  0.00  0.00     0.000 C
ATOM     80   O  NAG B   5      11.383   6.136  10.9610  0.00  0.00     0.000 OA
ENDBRANCH 66 78
BRANCH 65 81
ATOM     81  O4  BDP B   6      14.149   9.013  10.4800  0.00  0.00     0.000 O
BRANCH 81 85
ATOM     82  C1  BDP B   6      14.252  12.618   8.1660  0.00  0.00     0.000 C
ATOM     83  C2  BDP B   6      15.468  11.698   8.0940  0.00  0.00     0.000 C
ATOM     84  C3  BDP B   6      15.177  10.285   8.6060  0.00  0.00     0.000 C
ATOM     85  C4  BDP B   6      14.528  10.302   9.9920  0.00  0.00     0.000 C
ATOM     86  C5  BDP B   6      13.337  11.289   9.9480  0.00  0.00     0.000 C
ATOM     87  O5  BDP B   6      13.748  12.619   9.4940  0.00  0.00     0.000 O
ATOM     88   O  BDP B   6      15.820  11.642   6.7140  0.00  0.00     0.000 O
ATOM     90  HD  BDP B   6      16.076  11.073   6.1140  0.00  0.00     0.000 HD
ATOM     90   O  BDP B   6      16.384   9.520   8.6150  0.00  0.00     0.000 O
ATOM     92  HD  BDP B   6      16.639   8.951   8.0140  0.00  0.00     0.000 HD
BRANCH 86 92
ATOM     92   C  BDP B   6      12.800  11.534  11.3380  0.00  0.00     0.000 C
ATOM     93   O  BDP B   6      11.768  10.909  11.7270  0.00  0.00     0.000 OA
ATOM     94   O  BDP B   6      13.432  12.353  12.0750  0.00  0.00     0.000 OA
ENDBRANCH 86 92
BRANCH 82 95
ATOM     95  O3  NAG B   7      14.678  13.959   7.8530  0.00  0.00     0.000 O
BRANCH 95 98
ATOM     96  C1  NAG B   7      13.832  16.780   5.6940  0.00  0.00     0.000 C
ATOM     97  C2  NAG B   7      14.727  15.923   6.5790  0.00  0.00     0.000 C
ATOM     98  C3  NAG B   7      13.823  14.796   7.0750  0.00  0.00     0.000 C
ATOM     99  C4  NAG B   7      12.651  15.378   7.8620  0.00  0.00     0.000 C
ATOM    100  C5  NAG B   7      11.907  16.428   7.0350  0.00  0.00     0.000 C
ATOM    101  O5  NAG B   7      12.843  17.374   6.5420  0.00  0.00     0.000 O
BRANCH 97 104
ATOM    102   N  NAG B   7      15.843  15.155   6.0110  0.00  0.00     0.000 N
ATOM    104  HD  NAG B   7      16.407  14.520   5.8410  0.00  0.00     0.000 HD
ATOM    104   O  NAG B   7      18.004  14.655   5.5530  0.00  0.00     0.000 OA
ATOM    105   C  NAG B   7      17.160  15.438   6.0300  0.00  0.00     0.000 C
ATOM    106   C  NAG B   7      17.617  16.713   6.6520  0.00  0.00     0.000 C
ENDBRANCH 97 104
ATOM    107   O  NAG B   7      10.009  17.805   6.9940  0.00  0.00     0.000 O
ATOM    109  HD  NAG B   7      10.527  17.300   6.5190  0.00  0.00     0.000 HD
ATOM    109   O  NAG B   7      10.009  17.805   6.9940  0.00  0.00     0.000 O
ATOM    111  HD  NAG B   7      10.527  17.300   6.5190  0.00  0.00     0.000 HD
ENDBRANCH 95 98
ENDBRANCH 82 95
ENDBRANCH 81 85
ENDBRANCH 65 81
ENDBRANCH 64 67
ENDBRANCH 51 64
ENDBRANCH 50 54
ENDBRANCH 34 50
ENDBRANCH 33 36
ENDBRANCH 20 33
ENDBRANCH 19 23
ENDBRANCH 1 19
TORSDOF 19
ENDMDL
MODEL 67
REMARK VINA RESULT:      -5.3      3.249      5.277
ROOT
ATOM      1  C1  NAG B   1      11.629   9.551  13.1210  0.00  0.00     0.000 C
ATOM      2  C2  NAG B   1      10.501   8.929  13.9390  0.00  0.00     0.000 C
ATOM      3  C3  NAG B   1       9.627   9.983  14.5880  0.00  0.00     0.000 C
ATOM      4  C4  NAG B   1      10.569  10.824  15.4430  0.00  0.00     0.000 C
ATOM      5  C5  NAG B   1      11.589  11.519  14.5330  0.00  0.00     0.000 C
ATOM      6  O5  NAG B   1      12.388  10.554  13.8150  0.00  0.00     0.000 O
ATOM      7   O  NAG B   1       8.579   9.401  15.3960  0.00  0.00     0.000 O
ATOM      9  HD  NAG B   1       8.650   8.834  14.7450  0.00  0.00     0.000 HD
ATOM      9   O  NAG B   1       9.833  11.795  16.1690  0.00  0.00     0.000 O
ATOM     11  HD  NAG B   1       9.904  11.228  15.5180  0.00  0.00     0.000 HD
ATOM     11   C  NAG B   1      12.460  12.476  15.3570  0.00  0.00     0.000 C
ATOM     12   O  NAG B   1      13.755  12.626  14.7780  0.00  0.00     0.000 O
ATOM     14  HD  NAG B   1      13.826  12.059  14.1280  0.00  0.00     0.000 HD
ENDROOT
BRANCH 2 16
ATOM     14   N  NAG B   1      10.558   7.457  13.9540  0.00  0.00     0.000 N
ATOM     16  HD  NAG B   1      10.208   6.757  14.3260  0.00  0.00     0.000 HD
ATOM     16   C  NAG B   1       9.673   6.680  13.3060  0.00  0.00     0.000 C
ATOM     17   C  NAG B   1       8.540   7.310  12.5400  0.00  0.00     0.000 C
ATOM     18   O  NAG B   1       9.783   5.454  13.3010  0.00  0.00     0.000 OA
ENDBRANCH 2 16
BRANCH 1 19
ATOM     19  O4  BDP B   2      12.518   8.462  12.9140  0.00  0.00     0.000 O
BRANCH 19 23
ATOM     20  C1  BDP B   2      14.061   9.984   9.4150  0.00  0.00     0.000 C
ATOM     21  C2  BDP B   2      12.953   8.962   9.2730  0.00  0.00     0.000 C
ATOM     22  C3  BDP B   2      12.192   8.794  10.5690  0.00  0.00     0.000 C
ATOM     23  C4  BDP B   2      13.192   8.483  11.6790  0.00  0.00     0.000 C
ATOM     24  C5  BDP B   2      14.242   9.576  11.7330  0.00  0.00     0.000 C
ATOM     25  O5  BDP B   2      14.921   9.642  10.4940  0.00  0.00     0.000 O
ATOM     26   O  BDP B   2      12.063   9.344   8.2460  0.00  0.00     0.000 O
ATOM     28  HD  BDP B   2      12.713   9.899   8.1060  0.00  0.00     0.000 HD
ATOM     28   O  BDP B   2      11.217   7.752  10.4140  0.00  0.00     0.000 O
ATOM     30  HD  BDP B   2      11.866   8.307  10.2740  0.00  0.00     0.000 HD
BRANCH 24 30
ATOM     30   C  BDP B   2      15.258   9.328  12.7900  0.00  0.00     0.000 C
ATOM     31   O  BDP B   2      15.845   8.222  12.7740  0.00  0.00     0.000 OA
ATOM     32   O  BDP B   2      15.468  10.234  13.6460  0.00  0.00     0.000 OA
ENDBRANCH 24 30
BRANCH 20 33
ATOM     33  O3  NAG B   3      14.774   9.884   8.2060  0.00  0.00     0.000 O
BRANCH 33 36
ATOM     34  C1  NAG B   3      17.230  12.603   7.3540  0.00  0.00     0.000 C
ATOM     35  C2  NAG B   3      15.885  11.917   7.5030  0.00  0.00     0.000 C
ATOM     36  C3  NAG B   3      16.016  10.589   8.2650  0.00  0.00     0.000 C
ATOM     37  C4  NAG B   3      17.100   9.735   7.6100  0.00  0.00     0.000 C
ATOM     38  C5  NAG B   3      18.379  10.549   7.4320  0.00  0.00     0.000 C
ATOM     39  O5  NAG B   3      18.108  11.716   6.6750  0.00  0.00     0.000 O
ATOM     40   O  NAG B   3      17.375   8.584   8.4220  0.00  0.00     0.000 O
ATOM     42  HD  NAG B   3      18.184   8.888   8.3610  0.00  0.00     0.000 HD
ATOM     42   C  NAG B   3      19.476   9.814   6.6660  0.00  0.00     0.000 C
ATOM     43   O  NAG B   3      19.051   9.592   5.3160  0.00  0.00     0.000 O
ATOM     45  HD  NAG B   3      19.859   9.896   5.2550  0.00  0.00     0.000 HD
BRANCH 35 47
ATOM     45   N  NAG B   3      14.941  12.814   8.1570  0.00  0.00     0.000 N
ATOM     47  HD  NAG B   3      15.754  13.111   8.1800  0.00  0.00     0.000 HD
ATOM     47   C  NAG B   3      13.722  13.027   7.7030  0.00  0.00     0.000 C
ATOM     48   C  NAG B   3      12.886  13.996   8.4840  0.00  0.00     0.000 C
ATOM     49   O  NAG B   3      13.303  12.485   6.6820  0.00  0.00     0.000 OA
ENDBRANCH 35 47
BRANCH 34 50
ATOM     50  O4  BDP B   4      16.944  13.726   6.5480  0.00  0.00     0.000 O
BRANCH 50 54
ATOM     51  C1  BDP B   4      17.192  17.781   6.7740  0.00  0.00     0.000 C
ATOM     52  C2  BDP B   4      18.095  17.151   5.7200  0.00  0.00     0.000 C
ATOM     53  C3  BDP B   4      17.644  15.742   5.4820  0.00  0.00     0.000 C
ATOM     54  C4  BDP B   4      17.616  14.965   6.8300  0.00  0.00     0.000 C
ATOM     55  C5  BDP B   4      16.872  15.724   7.9210  0.00  0.00     0.000 C
ATOM     56  O5  BDP B   4      17.329  17.071   7.9920  0.00  0.00     0.000 O
ATOM     57   O  BDP B   4      18.017  17.876   4.5110  0.00  0.00     0.000 O
ATOM     59  HD  BDP B   4      18.747  18.342   4.4890  0.00  0.00     0.000 HD
ATOM     59   O  BDP B   4      18.631  15.123   4.6320  0.00  0.00     0.000 O
ATOM     61  HD  BDP B   4      19.361  15.588   4.6100  0.00  0.00     0.000 HD
BRANCH 55 61
ATOM     61   C  BDP B   4      17.112  15.044   9.2570  0.00  0.00     0.000 C
ATOM     62   O  BDP B   4      18.303  14.868   9.6240  0.00  0.00     0.000 OA
ATOM     63   O  BDP B   4      16.104  14.688   9.9400  0.00  0.00     0.000 OA
ENDBRANCH 55 61
BRANCH 51 64
ATOM     64  O3  NAG B   5      17.611  19.151   6.9310  0.00  0.00     0.000 O
BRANCH 64 67
ATOM     65  C1  NAG B   5      14.589  21.199   7.4480  0.00  0.00     0.000 C
ATOM     66  C2  NAG B   5      15.521  20.196   6.7910  0.00  0.00     0.000 C
ATOM     67  C3  NAG B   5      16.705  19.911   7.7060  0.00  0.00     0.000 C
ATOM     68  C4  NAG B   5      17.383  21.214   8.1520  0.00  0.00     0.000 C
ATOM     69  C5  NAG B   5      16.358  22.189   8.7100  0.00  0.00     0.000 C
ATOM     70  O5  NAG B   5      15.296  22.377   7.7630  0.00  0.00     0.000 O
ATOM     71   O  NAG B   5      18.369  20.904   9.1130  0.00  0.00     0.000 O
ATOM     73  HD  NAG B   5      18.821  21.489   8.6610  0.00  0.00     0.000 HD
ATOM     73   C  NAG B   5      16.927  23.570   9.0640  0.00  0.00     0.000 C
ATOM     74   O  NAG B   5      17.404  24.219   7.8670  0.00  0.00     0.000 O
ATOM     76  HD  NAG B   5      17.855  24.804   7.4150  0.00  0.00     0.000 HD
BRANCH 66 78
ATOM     76   N  NAG B   5      14.693  19.008   6.5060  0.00  0.00     0.000 N
ATOM     78  HD  NAG B   5      15.148  19.591   6.0540  0.00  0.00     0.000 HD
ATOM     78   C  NAG B   5      14.600  18.376   5.3250  0.00  0.00     0.000 C
ATOM     79   C  NAG B   5      13.685  17.182   5.3550  0.00  0.00     0.000 C
ATOM     80   O  NAG B   5      15.223  18.759   4.2710  0.00  0.00     0.000 OA
ENDBRANCH 66 78
BRANCH 65 81
ATOM     81  O4  BDP B   6      13.498  21.506   6.5710  0.00  0.00     0.000 O
BRANCH 81 85
ATOM     82  C1  BDP B   6       9.280  22.141   6.9880  0.00  0.00     0.000 C
ATOM     83  C2  BDP B   6      10.148  23.354   6.6650  0.00  0.00     0.000 C
ATOM     84  C3  BDP B   6      11.535  22.972   6.1410  0.00  0.00     0.000 C
ATOM     85  C4  BDP B   6      12.237  21.969   7.0590  0.00  0.00     0.000 C
ATOM     86  C5  BDP B   6      11.251  20.811   7.3410  0.00  0.00     0.000 C
ATOM     87  O5  BDP B   6       9.982  21.294   7.8870  0.00  0.00     0.000 O
ATOM     88   O  BDP B   6       9.439  24.071   5.6580  0.00  0.00     0.000 O
ATOM     90  HD  BDP B   6       9.580  24.496   4.9160  0.00  0.00     0.000 HD
ATOM     90   O  BDP B   6      12.325  24.151   5.9700  0.00  0.00     0.000 O
ATOM     92  HD  BDP B   6      12.466  24.575   5.2280  0.00  0.00     0.000 HD
BRANCH 86 92
ATOM     92   C  BDP B   6      11.789  19.909   8.4250  0.00  0.00     0.000 C
ATOM     93   O  BDP B   6      11.920  20.359   9.6030  0.00  0.00     0.000 OA
ATOM     94   O  BDP B   6      12.071  18.712   8.1060  0.00  0.00     0.000 OA
ENDBRANCH 86 92
BRANCH 82 95
ATOM     95  O3  NAG B   7       8.087  22.601   7.6530  0.00  0.00     0.000 O
BRANCH 95 98
ATOM     96  C1  NAG B   7       4.623  21.491   7.3310  0.00  0.00     0.000 C
ATOM     97  C2  NAG B   7       5.787  22.469   7.2370  0.00  0.00     0.000 C
ATOM     98  C3  NAG B   7       6.985  21.707   7.8000  0.00  0.00     0.000 C
ATOM     99  C4  NAG B   7       6.710  21.302   9.2460  0.00  0.00     0.000 C
ATOM    100  C5  NAG B   7       5.397  20.526   9.3550  0.00  0.00     0.000 C
ATOM    101  O5  NAG B   7       4.368  21.271   8.7230  0.00  0.00     0.000 O
BRANCH 97 104
ATOM    102   N  NAG B   7       6.188  23.478   6.2480  0.00  0.00     0.000 N
ATOM    104  HD  NAG B   7       6.200  24.185   5.7470  0.00  0.00     0.000 HD
ATOM    104   O  NAG B   7       6.676  24.299   4.1940  0.00  0.00     0.000 OA
ATOM    105   C  NAG B   7       6.394  23.330   4.9250  0.00  0.00     0.000 C
ATOM    106   C  NAG B   7       6.266  21.974   4.3200  0.00  0.00     0.000 C
ENDBRANCH 97 104
ATOM    107   O  NAG B   7       4.044  19.296  10.8250  0.00  0.00     0.000 O
ATOM    109  HD  NAG B   7       4.345  19.347  10.0150  0.00  0.00     0.000 HD
ATOM    109   O  NAG B   7       4.044  19.296  10.8250  0.00  0.00     0.000 O
ATOM    111  HD  NAG B   7       4.345  19.347  10.0150  0.00  0.00     0.000 HD
ENDBRANCH 95 98
ENDBRANCH 82 95
ENDBRANCH 81 85
ENDBRANCH 65 81
ENDBRANCH 64 67
ENDBRANCH 51 64
ENDBRANCH 50 54
ENDBRANCH 34 50
ENDBRANCH 33 36
ENDBRANCH 20 33
ENDBRANCH 19 23
ENDBRANCH 1 19
TORSDOF 19
ENDMDL
MODEL 68
REMARK VINA RESULT:      -5.3      7.932     11.445
ROOT
ATOM      1  C1  NAG B   1       3.783  10.051  18.4630  0.00  0.00     0.000 C
ATOM      2  C2  NAG B   1       3.799   8.581  18.0540  0.00  0.00     0.000 C
ATOM      3  C3  NAG B   1       3.054   8.348  16.7550  0.00  0.00     0.000 C
ATOM      4  C4  NAG B   1       1.641   8.870  16.9960  0.00  0.00     0.000 C
ATOM      5  C5  NAG B   1       1.701  10.378  17.2690  0.00  0.00     0.000 C
ATOM      6  O5  NAG B   1       2.483  10.663  18.4490  0.00  0.00     0.000 O
ATOM      7   O  NAG B   1       3.032   6.952  16.3820  0.00  0.00     0.000 O
ATOM      9  HD  NAG B   1       3.809   7.033  16.7550  0.00  0.00     0.000 HD
ATOM      9   O  NAG B   1       0.829   8.620  15.8610  0.00  0.00     0.000 O
ATOM     11  HD  NAG B   1       1.606   8.701  16.2340  0.00  0.00     0.000 HD
ATOM     11   C  NAG B   1       0.282  10.948  17.3780  0.00  0.00     0.000 C
ATOM     12   O  NAG B   1       0.245  12.089  18.2330  0.00  0.00     0.000 O
ATOM     14  HD  NAG B   1       1.023  12.170  18.6060  0.00  0.00     0.000 HD
ENDROOT
BRANCH 2 16
ATOM     14   N  NAG B   1       5.141   7.989  17.9120  0.00  0.00     0.000 N
ATOM     16  HD  NAG B   1       5.961   8.069  18.1770  0.00  0.00     0.000 HD
ATOM     16   C  NAG B   1       5.676   7.153  18.8180  0.00  0.00     0.000 C
ATOM     17   C  NAG B   1       4.906   6.804  20.0640  0.00  0.00     0.000 C
ATOM     18   O  NAG B   1       6.780   6.640  18.6400  0.00  0.00     0.000 OA
ENDBRANCH 2 16
BRANCH 1 19
ATOM     19  O4  BDP B   2       4.183  10.012  19.8260  0.00  0.00     0.000 O
BRANCH 19 23
ATOM     20  C1  BDP B   2       5.520  13.890  20.1670  0.00  0.00     0.000 C
ATOM     21  C2  BDP B   2       6.425  12.929  19.4250  0.00  0.00     0.000 C
ATOM     22  C3  BDP B   2       5.675  11.687  19.0000  0.00  0.00     0.000 C
ATOM     23  C4  BDP B   2       4.997  11.088  20.2280  0.00  0.00     0.000 C
ATOM     24  C5  BDP B   2       4.112  12.134  20.8770  0.00  0.00     0.000 C
ATOM     25  O5  BDP B   2       4.899  13.243  21.2680  0.00  0.00     0.000 O
ATOM     26   O  BDP B   2       6.984  13.558  18.2920  0.00  0.00     0.000 O
ATOM     28  HD  BDP B   2       6.645  14.242  18.7010  0.00  0.00     0.000 HD
ATOM     28   O  BDP B   2       6.591  10.767  18.3860  0.00  0.00     0.000 O
ATOM     30  HD  BDP B   2       6.252  11.451  18.7940  0.00  0.00     0.000 HD
BRANCH 24 30
ATOM     30   C  BDP B   2       3.428  11.617  22.0910  0.00  0.00     0.000 C
ATOM     31   O  BDP B   2       4.151  11.272  23.0540  0.00  0.00     0.000 OA
ATOM     32   O  BDP B   2       2.166  11.546  22.0860  0.00  0.00     0.000 OA
ENDBRANCH 24 30
BRANCH 20 33
ATOM     33  O3  NAG B   3       6.395  14.881  20.6460  0.00  0.00     0.000 O
BRANCH 33 36
ATOM     34  C1  NAG B   3       5.701  18.578  20.7150  0.00  0.00     0.000 C
ATOM     35  C2  NAG B   3       6.261  17.260  20.2140  0.00  0.00     0.000 C
ATOM     36  C3  NAG B   3       5.696  16.074  21.0110  0.00  0.00     0.000 C
ATOM     37  C4  NAG B   3       5.895  16.327  22.5030  0.00  0.00     0.000 C
ATOM     38  C5  NAG B   3       5.375  17.711  22.8800  0.00  0.00     0.000 C
ATOM     39  O5  NAG B   3       6.019  18.700  22.0940  0.00  0.00     0.000 O
ATOM     40   O  NAG B   3       5.198  15.331  23.2680  0.00  0.00     0.000 O
ATOM     42  HD  NAG B   3       4.850  16.033  23.6350  0.00  0.00     0.000 HD
ATOM     42   C  NAG B   3       5.651  18.102  24.3290  0.00  0.00     0.000 C
ATOM     43   O  NAG B   3       7.064  18.229  24.5300  0.00  0.00     0.000 O
ATOM     45  HD  NAG B   3       6.716  18.931  24.8980  0.00  0.00     0.000 HD
BRANCH 35 47
ATOM     45   N  NAG B   3       7.223  17.205  19.1210  0.00  0.00     0.000 N
ATOM     47  HD  NAG B   3       7.575  17.004  19.8860  0.00  0.00     0.000 HD
ATOM     47   C  NAG B   3       6.918  16.759  17.9190  0.00  0.00     0.000 C
ATOM     48   C  NAG B   3       8.032  16.752  16.9140  0.00  0.00     0.000 C
ATOM     49   O  NAG B   3       5.793  16.348  17.6430  0.00  0.00     0.000 OA
ENDBRANCH 35 47
BRANCH 34 50
ATOM     50  O4  BDP B   4       6.401  19.546  19.9610  0.00  0.00     0.000 O
BRANCH 50 54
ATOM     51  C1  BDP B   4       5.441  22.367  17.1910  0.00  0.00     0.000 C
ATOM     52  C2  BDP B   4       6.156  22.909  18.4240  0.00  0.00     0.000 C
ATOM     53  C3  BDP B   4       6.774  21.762  19.1630  0.00  0.00     0.000 C
ATOM     54  C4  BDP B   4       5.685  20.699  19.4860  0.00  0.00     0.000 C
ATOM     55  C5  BDP B   4       4.856  20.328  18.2640  0.00  0.00     0.000 C
ATOM     56  O5  BDP B   4       4.397  21.502  17.5990  0.00  0.00     0.000 O
ATOM     57   O  BDP B   4       7.167  23.819  18.0440  0.00  0.00     0.000 O
ATOM     59  HD  BDP B   4       6.831  24.600  18.2100  0.00  0.00     0.000 HD
ATOM     59   O  BDP B   4       7.269  22.286  20.4130  0.00  0.00     0.000 O
ATOM     61  HD  BDP B   4       6.933  23.067  20.5800  0.00  0.00     0.000 HD
BRANCH 55 61
ATOM     61   C  BDP B   4       3.660  19.502  18.7020  0.00  0.00     0.000 C
ATOM     62   O  BDP B   4       2.893  19.989  19.5730  0.00  0.00     0.000 OA
ATOM     63   O  BDP B   4       3.489  18.364  18.1690  0.00  0.00     0.000 OA
ENDBRANCH 55 61
BRANCH 51 64
ATOM     64  O3  NAG B   5       4.916  23.498  16.4700  0.00  0.00     0.000 O
BRANCH 64 67
ATOM     65  C1  NAG B   5       4.977  23.538  12.7840  0.00  0.00     0.000 C
ATOM     66  C2  NAG B   5       5.493  23.655  14.2080  0.00  0.00     0.000 C
ATOM     67  C3  NAG B   5       4.440  23.150  15.1850  0.00  0.00     0.000 C
ATOM     68  C4  NAG B   5       3.088  23.834  14.9390  0.00  0.00     0.000 C
ATOM     69  C5  NAG B   5       2.699  23.745  13.4720  0.00  0.00     0.000 C
ATOM     70  O5  NAG B   5       3.766  24.247  12.6530  0.00  0.00     0.000 O
ATOM     71   O  NAG B   5       2.117  23.225  15.7630  0.00  0.00     0.000 O
ATOM     73  HD  NAG B   5       1.871  24.047  15.8760  0.00  0.00     0.000 HD
ATOM     73   C  NAG B   5       1.421  24.513  13.1080  0.00  0.00     0.000 C
ATOM     74   O  NAG B   5       1.626  25.924  13.3250  0.00  0.00     0.000 O
ATOM     76  HD  NAG B   5       1.381  26.747  13.4380  0.00  0.00     0.000 HD
BRANCH 66 78
ATOM     76   N  NAG B   5       6.756  22.892  14.2220  0.00  0.00     0.000 N
ATOM     78  HD  NAG B   5       6.503  23.707  14.3650  0.00  0.00     0.000 HD
ATOM     78   C  NAG B   5       7.932  23.320  14.7060  0.00  0.00     0.000 C
ATOM     79   C  NAG B   5       9.034  22.301  14.5940  0.00  0.00     0.000 C
ATOM     80   O  NAG B   5       8.103  24.488  15.2070  0.00  0.00     0.000 OA
ENDBRANCH 66 78
BRANCH 65 81
ATOM     81  O4  BDP B   6       5.946  24.055  11.8640  0.00  0.00     0.000 O
BRANCH 81 85
ATOM     82  C1  BDP B   6       7.030  23.443   7.7630  0.00  0.00     0.000 C
ATOM     83  C2  BDP B   6       5.600  23.101   8.1730  0.00  0.00     0.000 C
ATOM     84  C3  BDP B   6       5.201  23.725   9.5140  0.00  0.00     0.000 C
ATOM     85  C4  BDP B   6       6.221  23.420  10.6130  0.00  0.00     0.000 C
ATOM     86  C5  BDP B   6       7.626  23.772  10.0680  0.00  0.00     0.000 C
ATOM     87  O5  BDP B   6       7.915  23.078   8.8130  0.00  0.00     0.000 O
ATOM     88   O  BDP B   6       4.772  23.625   7.1390  0.00  0.00     0.000 O
ATOM     90  HD  BDP B   6       4.026  24.053   7.0330  0.00  0.00     0.000 HD
ATOM     90   O  BDP B   6       3.897  23.270   9.8850  0.00  0.00     0.000 O
ATOM     92  HD  BDP B   6       3.151  23.697   9.7790  0.00  0.00     0.000 HD
BRANCH 86 92
ATOM     92   C  BDP B   6       8.698  23.277  11.0080  0.00  0.00     0.000 C
ATOM     93   O  BDP B   6       9.427  24.114  11.6200  0.00  0.00     0.000 OA
ATOM     94   O  BDP B   6       8.807  22.021  11.1620  0.00  0.00     0.000 OA
ENDBRANCH 86 92
BRANCH 82 95
ATOM     95  O3  NAG B   7       7.369  22.656   6.6040  0.00  0.00     0.000 O
BRANCH 95 98
ATOM     96  C1  NAG B   7       8.331  23.312   3.1420  0.00  0.00     0.000 C
ATOM     97  C2  NAG B   7       7.579  22.621   4.2720  0.00  0.00     0.000 C
ATOM     98  C3  NAG B   7       8.119  23.258   5.5510  0.00  0.00     0.000 C
ATOM     99  C4  NAG B   7       9.624  23.021   5.6530  0.00  0.00     0.000 C
ATOM    100  C5  NAG B   7      10.340  23.501   4.3900  0.00  0.00     0.000 C
ATOM    101  O5  NAG B   7       9.706  22.930   3.2560  0.00  0.00     0.000 O
BRANCH 97 104
ATOM    102   N  NAG B   7       6.125  22.825   4.2020  0.00  0.00     0.000 N
ATOM    104  HD  NAG B   7       5.325  23.123   4.3460  0.00  0.00     0.000 HD
ATOM    104   O  NAG B   7       3.936  22.275   4.3880  0.00  0.00     0.000 OA
ATOM    105   C  NAG B   7       5.136  21.940   4.4280  0.00  0.00     0.000 C
ATOM    106   C  NAG B   7       5.487  20.527   4.7480  0.00  0.00     0.000 C
ENDBRANCH 97 104
ATOM    107   O  NAG B   7      12.452  23.855   3.4320  0.00  0.00     0.000 O
ATOM    109  HD  NAG B   7      11.649  24.168   3.5110  0.00  0.00     0.000 HD
ATOM    109   O  NAG B   7      12.452  23.855   3.4320  0.00  0.00     0.000 O
ATOM    111  HD  NAG B   7      11.649  24.168   3.5110  0.00  0.00     0.000 HD
ENDBRANCH 95 98
ENDBRANCH 82 95
ENDBRANCH 81 85
ENDBRANCH 65 81
ENDBRANCH 64 67
ENDBRANCH 51 64
ENDBRANCH 50 54
ENDBRANCH 34 50
ENDBRANCH 33 36
ENDBRANCH 20 33
ENDBRANCH 19 23
ENDBRANCH 1 19
TORSDOF 19
ENDMDL
MODEL 69
REMARK VINA RESULT:      -5.3      7.879     11.352
ROOT
ATOM      1  C1  NAG B   1       4.191   9.730  19.5030  0.00  0.00     0.000 C
ATOM      2  C2  NAG B   1       2.932   9.013  19.9840  0.00  0.00     0.000 C
ATOM      3  C3  NAG B   1       1.765   9.966  20.1400  0.00  0.00     0.000 C
ATOM      4  C4  NAG B   1       2.237  11.033  21.1220  0.00  0.00     0.000 C
ATOM      5  C5  NAG B   1       3.419  11.794  20.5070  0.00  0.00     0.000 C
ATOM      6  O5  NAG B   1       4.530  10.909  20.2490  0.00  0.00     0.000 O
ATOM      7   O  NAG B   1       0.579   9.301  20.6330  0.00  0.00     0.000 O
ATOM      9  HD  NAG B   1       0.943   8.691  20.1360  0.00  0.00     0.000 HD
ATOM      9   O  NAG B   1       1.182  11.936  21.4070  0.00  0.00     0.000 O
ATOM     11  HD  NAG B   1       1.545  11.326  20.9110  0.00  0.00     0.000 HD
ATOM     11   C  NAG B   1       3.822  12.960  21.4180  0.00  0.00     0.000 C
ATOM     12   O  NAG B   1       5.209  13.265  21.2860  0.00  0.00     0.000 O
ATOM     14  HD  NAG B   1       5.572  12.656  20.7900  0.00  0.00     0.000 HD
ENDROOT
BRANCH 2 16
ATOM     14   N  NAG B   1       2.849   7.589  20.3560  0.00  0.00     0.000 N
ATOM     16  HD  NAG B   1       2.287   6.946  20.4980  0.00  0.00     0.000 HD
ATOM     16   C  NAG B   1       2.660   6.605  19.4600  0.00  0.00     0.000 C
ATOM     17   C  NAG B   1       2.494   6.939  18.0010  0.00  0.00     0.000 C
ATOM     18   O  NAG B   1       2.645   5.424  19.8030  0.00  0.00     0.000 OA
ENDBRANCH 2 16
BRANCH 1 19
ATOM     19  O4  BDP B   2       5.221   8.788  19.7690  0.00  0.00     0.000 O
BRANCH 19 23
ATOM     20  C1  BDP B   2       8.266   7.805  17.1790  0.00  0.00     0.000 C
ATOM     21  C2  BDP B   2       7.268   8.832  16.6860  0.00  0.00     0.000 C
ATOM     22  C3  BDP B   2       6.472   9.416  17.8310  0.00  0.00     0.000 C
ATOM     23  C4  BDP B   2       5.850   8.269  18.6210  0.00  0.00     0.000 C
ATOM     24  C5  BDP B   2       6.941   7.316  19.0700  0.00  0.00     0.000 C
ATOM     25  O5  BDP B   2       7.612   6.797  17.9380  0.00  0.00     0.000 O
ATOM     26   O  BDP B   2       7.932   9.866  15.9920  0.00  0.00     0.000 O
ATOM     28  HD  BDP B   2       8.572   9.287  16.0620  0.00  0.00     0.000 HD
ATOM     28   O  BDP B   2       5.478  10.312  17.3080  0.00  0.00     0.000 O
ATOM     30  HD  BDP B   2       6.118   9.733  17.3770  0.00  0.00     0.000 HD
BRANCH 24 30
ATOM     30   C  BDP B   2       6.400   6.165  19.8390  0.00  0.00     0.000 C
ATOM     31   O  BDP B   2       5.906   5.218  19.1850  0.00  0.00     0.000 OA
ATOM     32   O  BDP B   2       6.458   6.204  21.1010  0.00  0.00     0.000 OA
ENDBRANCH 24 30
BRANCH 20 33
ATOM     33  O3  NAG B   3       8.779   7.235  16.0000  0.00  0.00     0.000 O
BRANCH 33 36
ATOM     34  C1  NAG B   3      12.350   6.476  15.0960  0.00  0.00     0.000 C
ATOM     35  C2  NAG B   3      11.006   7.176  15.0510  0.00  0.00     0.000 C
ATOM     36  C3  NAG B   3      10.093   6.708  16.1950  0.00  0.00     0.000 C
ATOM     37  C4  NAG B   3      10.020   5.183  16.1910  0.00  0.00     0.000 C
ATOM     38  C5  NAG B   3      11.424   4.586  16.1500  0.00  0.00     0.000 C
ATOM     39  O5  NAG B   3      12.125   5.076  15.0190  0.00  0.00     0.000 O
ATOM     40   O  NAG B   3       9.339   4.721  17.3680  0.00  0.00     0.000 O
ATOM     42  HD  NAG B   3      10.064   4.256  17.4550  0.00  0.00     0.000 HD
ATOM     42   C  NAG B   3      11.444   3.066  16.0120  0.00  0.00     0.000 C
ATOM     43   O  NAG B   3      10.903   2.693  14.7390  0.00  0.00     0.000 O
ATOM     45  HD  NAG B   3      11.628   2.227  14.8250  0.00  0.00     0.000 HD
BRANCH 35 47
ATOM     45   N  NAG B   3      10.651   8.144  14.0210  0.00  0.00     0.000 N
ATOM     47  HD  NAG B   3      10.192   7.412  13.9630  0.00  0.00     0.000 HD
ATOM     47   C  NAG B   3      10.594   9.442  14.2460  0.00  0.00     0.000 C
ATOM     48   C  NAG B   3      10.192  10.297  13.0810  0.00  0.00     0.000 C
ATOM     49   O  NAG B   3      10.830   9.923  15.3520  0.00  0.00     0.000 OA
ENDBRANCH 35 47
BRANCH 34 50
ATOM     50  O4  BDP B   4      13.004   6.933  13.9300  0.00  0.00     0.000 O
BRANCH 50 54
ATOM     51  C1  BDP B   4      16.627   7.782  12.2850  0.00  0.00     0.000 C
ATOM     52  C2  BDP B   4      16.491   6.359  12.8140  0.00  0.00     0.000 C
ATOM     53  C3  BDP B   4      15.039   6.067  13.0380  0.00  0.00     0.000 C
ATOM     54  C4  BDP B   4      14.425   7.146  13.9750  0.00  0.00     0.000 C
ATOM     55  C5  BDP B   4      14.753   8.562  13.5210  0.00  0.00     0.000 C
ATOM     56  O5  BDP B   4      16.147   8.691  13.2590  0.00  0.00     0.000 O
ATOM     57   O  BDP B   4      17.015   5.437  11.8820  0.00  0.00     0.000 O
ATOM     59  HD  BDP B   4      17.785   5.211  12.2070  0.00  0.00     0.000 HD
ATOM     59   O  BDP B   4      14.966   4.795  13.7160  0.00  0.00     0.000 O
ATOM     61  HD  BDP B   4      15.736   4.570  14.0410  0.00  0.00     0.000 HD
BRANCH 55 61
ATOM     61   C  BDP B   4      14.358   9.541  14.6120  0.00  0.00     0.000 C
ATOM     62   O  BDP B   4      13.918  10.668  14.2630  0.00  0.00     0.000 OA
ATOM     63   O  BDP B   4      14.487   9.179  15.8210  0.00  0.00     0.000 OA
ENDBRANCH 55 61
BRANCH 51 64
ATOM     64  O3  NAG B   5      18.025   8.007  12.0200  0.00  0.00     0.000 O
BRANCH 64 67
ATOM     65  C1  NAG B   5      19.141  10.123   9.2140  0.00  0.00     0.000 C
ATOM     66  C2  NAG B   5      18.642   8.886   9.9400  0.00  0.00     0.000 C
ATOM     67  C3  NAG B   5      18.264   9.241  11.3720  0.00  0.00     0.000 C
ATOM     68  C4  NAG B   5      19.412   9.975  12.0790  0.00  0.00     0.000 C
ATOM     69  C5  NAG B   5      19.905  11.140  11.2350  0.00  0.00     0.000 C
ATOM     70  O5  NAG B   5      20.228  10.684   9.9130  0.00  0.00     0.000 O
ATOM     71   O  NAG B   5      18.958  10.414  13.3410  0.00  0.00     0.000 O
ATOM     73  HD  NAG B   5      19.741  10.136  13.5850  0.00  0.00     0.000 HD
ATOM     73   C  NAG B   5      21.137  11.857  11.8040  0.00  0.00     0.000 C
ATOM     74   O  NAG B   5      22.258  10.948  11.8250  0.00  0.00     0.000 O
ATOM     76  HD  NAG B   5      23.041  10.670  12.0690  0.00  0.00     0.000 HD
BRANCH 66 78
ATOM     76   N  NAG B   5      17.645   8.404   8.9640  0.00  0.00     0.000 N
ATOM     78  HD  NAG B   5      18.284   8.066   9.4420  0.00  0.00     0.000 HD
ATOM     78   C  NAG B   5      17.354   7.120   8.7020  0.00  0.00     0.000 C
ATOM     79   C  NAG B   5      16.276   6.948   7.6660  0.00  0.00     0.000 C
ATOM     80   O  NAG B   5      17.944   6.134   9.2730  0.00  0.00     0.000 OA
ENDBRANCH 66 78
BRANCH 65 81
ATOM     81  O4  BDP B   6      19.541   9.785   7.8800  0.00  0.00     0.000 O
BRANCH 81 85
ATOM     82  C1  BDP B   6      20.054  11.726   4.0950  0.00  0.00     0.000 C
ATOM     83  C2  BDP B   6      21.283  11.586   4.9880  0.00  0.00     0.000 C
ATOM     84  C3  BDP B   6      21.098  10.547   6.0970  0.00  0.00     0.000 C
ATOM     85  C4  BDP B   6      19.812  10.781   6.8920  0.00  0.00     0.000 C
ATOM     86  C5  BDP B   6      18.651  10.941   5.8810  0.00  0.00     0.000 C
ATOM     87  O5  BDP B   6      18.919  11.997   4.9050  0.00  0.00     0.000 O
ATOM     88   O  BDP B   6      22.338  11.177   4.1220  0.00  0.00     0.000 O
ATOM     90  HD  BDP B   6      23.007  10.627   4.0980  0.00  0.00     0.000 HD
ATOM     90   O  BDP B   6      22.241  10.554   6.9570  0.00  0.00     0.000 O
ATOM     92  HD  BDP B   6      22.909  10.003   6.9330  0.00  0.00     0.000 HD
BRANCH 86 92
ATOM     92   C  BDP B   6      17.399  11.409   6.5830  0.00  0.00     0.000 C
ATOM     93   O  BDP B   6      16.533  10.557   6.9480  0.00  0.00     0.000 OA
ATOM     94   O  BDP B   6      17.279  12.654   6.8000  0.00  0.00     0.000 OA
ENDBRANCH 86 92
BRANCH 82 95
ATOM     95  O3  NAG B   7      20.254  12.855   3.2210  0.00  0.00     0.000 O
BRANCH 95 98
ATOM     96  C1  NAG B   7      18.926  13.524  -0.1140  0.00  0.00     0.000 C
ATOM     97  C2  NAG B   7      20.003  13.252   0.9270  0.00  0.00     0.000 C
ATOM     98  C3  NAG B   7      19.253  13.172   2.2550  0.00  0.00     0.000 C
ATOM     99  C4  NAG B   7      18.535  14.492   2.5260  0.00  0.00     0.000 C
ATOM    100  C5  NAG B   7      17.637  14.877   1.3490  0.00  0.00     0.000 C
ATOM    101  O5  NAG B   7      18.401  14.829   0.1530  0.00  0.00     0.000 O
BRANCH 97 104
ATOM    102   N  NAG B   7      21.226  12.437   0.9390  0.00  0.00     0.000 N
ATOM    104  HD  NAG B   7      22.020  12.138   0.7690  0.00  0.00     0.000 HD
ATOM    104   O  NAG B   7      22.495  10.586   0.6390  0.00  0.00     0.000 OA
ATOM    105   C  NAG B   7      21.375  11.132   0.6420  0.00  0.00     0.000 C
ATOM    106   C  NAG B   7      20.170  10.326   0.2940  0.00  0.00     0.000 C
ENDBRANCH 97 104
ATOM    107   O  NAG B   7      16.013  16.409   0.6300  0.00  0.00     0.000 O
ATOM    109  HD  NAG B   7      16.258  15.578   0.6180  0.00  0.00     0.000 HD
ATOM    109   O  NAG B   7      16.013  16.409   0.6300  0.00  0.00     0.000 O
ATOM    111  HD  NAG B   7      16.258  15.578   0.6180  0.00  0.00     0.000 HD
ENDBRANCH 95 98
ENDBRANCH 82 95
ENDBRANCH 81 85
ENDBRANCH 65 81
ENDBRANCH 64 67
ENDBRANCH 51 64
ENDBRANCH 50 54
ENDBRANCH 34 50
ENDBRANCH 33 36
ENDBRANCH 20 33
ENDBRANCH 19 23
ENDBRANCH 1 19
TORSDOF 19
ENDMDL
MODEL 70
REMARK VINA RESULT:      -5.3      7.591     13.069
ROOT
ATOM      1  C1  NAG B   1       3.528   7.338  18.6420  0.00  0.00     0.000 C
ATOM      2  C2  NAG B   1       2.459   6.460  19.2860  0.00  0.00     0.000 C
ATOM      3  C3  NAG B   1       1.447   5.967  18.2710  0.00  0.00     0.000 C
ATOM      4  C4  NAG B   1       0.862   7.224  17.6350  0.00  0.00     0.000 C
ATOM      5  C5  NAG B   1       1.975   7.980  16.8980  0.00  0.00     0.000 C
ATOM      6  O5  NAG B   1       3.016   8.391  17.8090  0.00  0.00     0.000 O
ATOM      7   O  NAG B   1       0.409   5.167  18.8810  0.00  0.00     0.000 O
ATOM      9  HD  NAG B   1       1.105   4.961  19.3530  0.00  0.00     0.000 HD
ATOM      9   O  NAG B   1      -0.167   6.876  16.7240  0.00  0.00     0.000 O
ATOM     11  HD  NAG B   1       0.529   6.670  17.1970  0.00  0.00     0.000 HD
ATOM     11   C  NAG B   1       1.382   9.173  16.1380  0.00  0.00     0.000 C
ATOM     12   O  NAG B   1       2.334  10.228  16.0060  0.00  0.00     0.000 O
ATOM     14  HD  NAG B   1       3.030  10.022  16.4790  0.00  0.00     0.000 HD
ENDROOT
BRANCH 2 16
ATOM     14   N  NAG B   1       3.138   5.379  20.0220  0.00  0.00     0.000 N
ATOM     16  HD  NAG B   1       3.827   5.211  20.5190  0.00  0.00     0.000 HD
ATOM     16   C  NAG B   1       3.028   5.214  21.3520  0.00  0.00     0.000 C
ATOM     17   C  NAG B   1       2.201   6.177  22.1630  0.00  0.00     0.000 C
ATOM     18   O  NAG B   1       3.570   4.270  21.9250  0.00  0.00     0.000 OA
ENDBRANCH 2 16
BRANCH 1 19
ATOM     19  O4  BDP B   2       4.134   7.980  19.7560  0.00  0.00     0.000 O
BRANCH 19 23
ATOM     20  C1  BDP B   2       7.508   9.209  17.7430  0.00  0.00     0.000 C
ATOM     21  C2  BDP B   2       7.551   7.819  18.3440  0.00  0.00     0.000 C
ATOM     22  C3  BDP B   2       6.163   7.322  18.6750  0.00  0.00     0.000 C
ATOM     23  C4  BDP B   2       5.473   8.363  19.5530  0.00  0.00     0.000 C
ATOM     24  C5  BDP B   2       5.480   9.703  18.8460  0.00  0.00     0.000 C
ATOM     25  O5  BDP B   2       6.815  10.104  18.6020  0.00  0.00     0.000 O
ATOM     26   O  BDP B   2       8.179   6.921  17.4550  0.00  0.00     0.000 O
ATOM     28  HD  BDP B   2       8.372   7.676  17.0770  0.00  0.00     0.000 HD
ATOM     28   O  BDP B   2       6.260   6.045  19.3270  0.00  0.00     0.000 O
ATOM     30  HD  BDP B   2       6.453   6.801  18.9490  0.00  0.00     0.000 HD
BRANCH 24 30
ATOM     30   C  BDP B   2       4.832  10.769  19.6550  0.00  0.00     0.000 C
ATOM     31   O  BDP B   2       5.467  11.208  20.6410  0.00  0.00     0.000 OA
ATOM     32   O  BDP B   2       3.681  11.166  19.3130  0.00  0.00     0.000 OA
ENDBRANCH 24 30
BRANCH 20 33
ATOM     33  O3  NAG B   3       8.860   9.591  17.6700  0.00  0.00     0.000 O
BRANCH 33 36
ATOM     34  C1  NAG B   3      10.708  11.137  14.7820  0.00  0.00     0.000 C
ATOM     35  C2  NAG B   3      10.293  10.073  15.7790  0.00  0.00     0.000 C
ATOM     36  C3  NAG B   3       9.088  10.529  16.6160  0.00  0.00     0.000 C
ATOM     37  C4  NAG B   3       9.386  11.896  17.2270  0.00  0.00     0.000 C
ATOM     38  C5  NAG B   3       9.875  12.862  16.1510  0.00  0.00     0.000 C
ATOM     39  O5  NAG B   3      11.013  12.324  15.5000  0.00  0.00     0.000 O
ATOM     40   O  NAG B   3       8.202  12.427  17.8430  0.00  0.00     0.000 O
ATOM     42  HD  NAG B   3       8.384  13.098  17.3270  0.00  0.00     0.000 HD
ATOM     42   C  NAG B   3      10.320  14.217  16.6940  0.00  0.00     0.000 C
ATOM     43   O  NAG B   3      11.481  14.045  17.5170  0.00  0.00     0.000 O
ATOM     45  HD  NAG B   3      11.662  14.717  17.0010  0.00  0.00     0.000 HD
BRANCH 35 47
ATOM     45   N  NAG B   3      10.970   8.794  15.9570  0.00  0.00     0.000 N
ATOM     47  HD  NAG B   3      11.025   9.301  16.6570  0.00  0.00     0.000 HD
ATOM     47   C  NAG B   3      10.501   7.661  15.4740  0.00  0.00     0.000 C
ATOM     48   C  NAG B   3      11.311   6.433  15.7650  0.00  0.00     0.000 C
ATOM     49   O  NAG B   3       9.446   7.608  14.8450  0.00  0.00     0.000 OA
ENDBRANCH 35 47
BRANCH 34 50
ATOM     50  O4  BDP B   4      11.875  10.605  14.1910  0.00  0.00     0.000 O
BRANCH 50 54
ATOM     51  C1  BDP B   4      14.175  10.655  10.8350  0.00  0.00     0.000 C
ATOM     52  C2  BDP B   4      13.799  12.035  11.3640  0.00  0.00     0.000 C
ATOM     53  C3  BDP B   4      13.293  11.889  12.7660  0.00  0.00     0.000 C
ATOM     54  C4  BDP B   4      12.123  10.865  12.7990  0.00  0.00     0.000 C
ATOM     55  C5  BDP B   4      12.469   9.566  12.0830  0.00  0.00     0.000 C
ATOM     56  O5  BDP B   4      13.019   9.839  10.7960  0.00  0.00     0.000 O
ATOM     57   O  BDP B   4      14.925  12.885  11.3590  0.00  0.00     0.000 O
ATOM     59  HD  BDP B   4      14.808  13.399  10.6720  0.00  0.00     0.000 HD
ATOM     59   O  BDP B   4      12.770  13.175  13.1600  0.00  0.00     0.000 O
ATOM     61  HD  BDP B   4      12.652  13.688  12.4720  0.00  0.00     0.000 HD
BRANCH 55 61
ATOM     61   C  BDP B   4      11.211   8.732  11.9220  0.00  0.00     0.000 C
ATOM     62   O  BDP B   4      10.133   9.331  11.6700  0.00  0.00     0.000 OA
ATOM     63   O  BDP B   4      11.306   7.473  12.0470  0.00  0.00     0.000 OA
ENDBRANCH 55 61
BRANCH 51 64
ATOM     64  O3  NAG B   5      14.716  10.838   9.5120  0.00  0.00     0.000 O
BRANCH 64 67
ATOM     65  C1  NAG B   5      18.061  10.178   8.1100  0.00  0.00     0.000 C
ATOM     66  C2  NAG B   5      16.870  10.978   8.6080  0.00  0.00     0.000 C
ATOM     67  C3  NAG B   5      15.868  10.051   9.2820  0.00  0.00     0.000 C
ATOM     68  C4  NAG B   5      15.506   8.872   8.3680  0.00  0.00     0.000 C
ATOM     69  C5  NAG B   5      16.762   8.192   7.8460  0.00  0.00     0.000 C
ATOM     70  O5  NAG B   5      17.625   9.162   7.2350  0.00  0.00     0.000 O
ATOM     71   O  NAG B   5      14.699   7.969   9.0930  0.00  0.00     0.000 O
ATOM     73  HD  NAG B   5      14.262   7.947   8.3450  0.00  0.00     0.000 HD
ATOM     73   C  NAG B   5      16.499   7.080   6.8210  0.00  0.00     0.000 C
ATOM     74   O  NAG B   5      15.897   7.645   5.6380  0.00  0.00     0.000 O
ATOM     76  HD  NAG B   5      15.460   7.623   4.8910  0.00  0.00     0.000 HD
BRANCH 66 78
ATOM     76   N  NAG B   5      17.526  12.027   9.4140  0.00  0.00     0.000 N
ATOM     78  HD  NAG B   5      16.945  11.986   8.7730  0.00  0.00     0.000 HD
ATOM     78   C  NAG B   5      17.179  13.323   9.4550  0.00  0.00     0.000 C
ATOM     79   C  NAG B   5      18.030  14.141  10.3880  0.00  0.00     0.000 C
ATOM     80   O  NAG B   5      16.222  13.817   8.7600  0.00  0.00     0.000 OA
ENDBRANCH 66 78
BRANCH 65 81
ATOM     81  O4  BDP B   6      18.986  11.040   7.4340  0.00  0.00     0.000 O
BRANCH 81 85
ATOM     82  C1  BDP B   6      23.120  11.215   6.3200  0.00  0.00     0.000 C
ATOM     83  C2  BDP B   6      22.230  10.223   5.5760  0.00  0.00     0.000 C
ATOM     84  C3  BDP B   6      20.738  10.517   5.7470  0.00  0.00     0.000 C
ATOM     85  C4  BDP B   6      20.350  10.672   7.2190  0.00  0.00     0.000 C
ATOM     86  C5  BDP B   6      21.339  11.669   7.8690  0.00  0.00     0.000 C
ATOM     87  O5  BDP B   6      22.731  11.255   7.6850  0.00  0.00     0.000 O
ATOM     88   O  BDP B   6      22.587  10.349   4.2020  0.00  0.00     0.000 O
ATOM     90  HD  BDP B   6      22.221  10.381   3.4180  0.00  0.00     0.000 HD
ATOM     90   O  BDP B   6      19.970   9.486   5.1210  0.00  0.00     0.000 O
ATOM     92  HD  BDP B   6      19.604   9.518   4.3370  0.00  0.00     0.000 HD
BRANCH 86 92
ATOM     92   C  BDP B   6      21.164  11.688   9.3680  0.00  0.00     0.000 C
ATOM     93   O  BDP B   6      21.188  12.795   9.9860  0.00  0.00     0.000 OA
ATOM     94   O  BDP B   6      20.976  10.574   9.9500  0.00  0.00     0.000 OA
ENDBRANCH 86 92
BRANCH 82 95
ATOM     95  O3  NAG B   7      24.479  10.739   6.2600  0.00  0.00     0.000 O
BRANCH 95 98
ATOM     96  C1  NAG B   7      27.729  12.112   5.3160  0.00  0.00     0.000 C
ATOM     97  C2  NAG B   7      26.616  11.073   5.3640  0.00  0.00     0.000 C
ATOM     98  C3  NAG B   7      25.548  11.685   6.2670  0.00  0.00     0.000 C
ATOM     99  C4  NAG B   7      26.128  11.945   7.6550  0.00  0.00     0.000 C
ATOM    100  C5  NAG B   7      27.399  12.792   7.5650  0.00  0.00     0.000 C
ATOM    101  O5  NAG B   7      28.286  12.194   6.6330  0.00  0.00     0.000 O
BRANCH 97 104
ATOM    102   N  NAG B   7      25.857  10.777   4.1410  0.00  0.00     0.000 N
ATOM    104  HD  NAG B   7      25.207  10.638   3.5860  0.00  0.00     0.000 HD
ATOM    104   O  NAG B   7      25.132   9.533   2.3920  0.00  0.00     0.000 OA
ATOM    105   C  NAG B   7      25.884   9.668   3.3780  0.00  0.00     0.000 C
ATOM    106   C  NAG B   7      26.827   8.569   3.7300  0.00  0.00     0.000 C
ENDBRANCH 97 104
ATOM    107   O  NAG B   7      28.999  13.942   8.8370  0.00  0.00     0.000 O
ATOM    109  HD  NAG B   7      28.524  13.960   8.1140  0.00  0.00     0.000 HD
ATOM    109   O  NAG B   7      28.999  13.942   8.8370  0.00  0.00     0.000 O
ATOM    111  HD  NAG B   7      28.524  13.960   8.1140  0.00  0.00     0.000 HD
ENDBRANCH 95 98
ENDBRANCH 82 95
ENDBRANCH 81 85
ENDBRANCH 65 81
ENDBRANCH 64 67
ENDBRANCH 51 64
ENDBRANCH 50 54
ENDBRANCH 34 50
ENDBRANCH 33 36
ENDBRANCH 20 33
ENDBRANCH 19 23
ENDBRANCH 1 19
TORSDOF 19
ENDMDL
MODEL 71
REMARK VINA RESULT:      -5.3      6.606      9.793
ROOT
ATOM      1  C1  NAG B   1       2.689   9.138  19.9410  0.00  0.00     0.000 C
ATOM      2  C2  NAG B   1       2.422   8.183  18.7810  0.00  0.00     0.000 C
ATOM      3  C3  NAG B   1       2.299   6.748  19.2490  0.00  0.00     0.000 C
ATOM      4  C4  NAG B   1       3.609   6.439  19.9670  0.00  0.00     0.000 C
ATOM      5  C5  NAG B   1       3.737   7.350  21.1940  0.00  0.00     0.000 C
ATOM      6  O5  NAG B   1       3.763   8.741  20.8090  0.00  0.00     0.000 O
ATOM      7   O  NAG B   1       2.085   5.832  18.1510  0.00  0.00     0.000 O
ATOM      9  HD  NAG B   1       1.656   6.538  17.8920  0.00  0.00     0.000 HD
ATOM      9   O  NAG B   1       3.634   5.081  20.3730  0.00  0.00     0.000 O
ATOM     11  HD  NAG B   1       3.205   5.787  20.1140  0.00  0.00     0.000 HD
ATOM     11   C  NAG B   1       4.979   6.963  22.0070  0.00  0.00     0.000 C
ATOM     12   O  NAG B   1       5.509   8.086  22.7080  0.00  0.00     0.000 O
ATOM     14  HD  NAG B   1       5.080   8.793  22.4490  0.00  0.00     0.000 HD
ENDROOT
BRANCH 2 16
ATOM     14   N  NAG B   1       2.383   8.567  17.3590  0.00  0.00     0.000 N
ATOM     16  HD  NAG B   1       2.129   8.292  16.5780  0.00  0.00     0.000 HD
ATOM     16   C  NAG B   1       1.283   9.055  16.7600  0.00  0.00     0.000 C
ATOM     17   C  NAG B   1       0.005   9.207  17.5420  0.00  0.00     0.000 C
ATOM     18   O  NAG B   1       1.302   9.411  15.5820  0.00  0.00     0.000 OA
ENDBRANCH 2 16
BRANCH 1 19
ATOM     19  O4  BDP B   2       3.128  10.323  19.2910  0.00  0.00     0.000 O
BRANCH 19 23
ATOM     20  C1  BDP B   2       6.459  12.735  19.4740  0.00  0.00     0.000 C
ATOM     21  C2  BDP B   2       6.674  11.328  18.9530  0.00  0.00     0.000 C
ATOM     22  C3  BDP B   2       5.367  10.692  18.5370  0.00  0.00     0.000 C
ATOM     23  C4  BDP B   2       4.391  10.785  19.7070  0.00  0.00     0.000 C
ATOM     24  C5  BDP B   2       4.248  12.233  20.1310  0.00  0.00     0.000 C
ATOM     25  O5  BDP B   2       5.509  12.737  20.5300  0.00  0.00     0.000 O
ATOM     26   O  BDP B   2       7.565  11.342  17.8590  0.00  0.00     0.000 O
ATOM     28  HD  BDP B   2       7.666  12.150  18.1540  0.00  0.00     0.000 HD
ATOM     28   O  BDP B   2       5.607   9.333  18.1410  0.00  0.00     0.000 O
ATOM     30  HD  BDP B   2       5.708  10.141  18.4360  0.00  0.00     0.000 HD
BRANCH 24 30
ATOM     30   C  BDP B   2       3.317  12.394  21.2790  0.00  0.00     0.000 C
ATOM     31   O  BDP B   2       3.693  11.953  22.3900  0.00  0.00     0.000 OA
ATOM     32   O  BDP B   2       2.202  12.954  21.0750  0.00  0.00     0.000 OA
ENDBRANCH 24 30
BRANCH 20 33
ATOM     33  O3  NAG B   3       7.717  13.105  19.9820  0.00  0.00     0.000 O
BRANCH 33 36
ATOM     34  C1  NAG B   3       9.361  16.440  19.4090  0.00  0.00     0.000 C
ATOM     35  C2  NAG B   3       9.038  14.974  19.1910  0.00  0.00     0.000 C
ATOM     36  C3  NAG B   3       7.857  14.526  20.0650  0.00  0.00     0.000 C
ATOM     37  C4  NAG B   3       8.127  14.911  21.5170  0.00  0.00     0.000 C
ATOM     38  C5  NAG B   3       8.524  16.382  21.6090  0.00  0.00     0.000 C
ATOM     39  O5  NAG B   3       9.651  16.631  20.7860  0.00  0.00     0.000 O
ATOM     40   O  NAG B   3       6.953  14.683  22.3130  0.00  0.00     0.000 O
ATOM     42  HD  NAG B   3       7.083  15.514  22.5200  0.00  0.00     0.000 HD
ATOM     42   C  NAG B   3       8.940  16.823  23.0100  0.00  0.00     0.000 C
ATOM     43   O  NAG B   3      10.144  16.145  23.3890  0.00  0.00     0.000 O
ATOM     45  HD  NAG B   3      10.273  16.976  23.5960  0.00  0.00     0.000 HD
BRANCH 35 47
ATOM     45   N  NAG B   3       9.794  14.123  18.2810  0.00  0.00     0.000 N
ATOM     47  HD  NAG B   3       9.903  13.903  19.1120  0.00  0.00     0.000 HD
ATOM     47   C  NAG B   3       9.329  13.734  17.1110  0.00  0.00     0.000 C
ATOM     48   C  NAG B   3      10.228  12.843  16.3060  0.00  0.00     0.000 C
ATOM     49   O  NAG B   3       8.213  14.060  16.7120  0.00  0.00     0.000 OA
ENDBRANCH 35 47
BRANCH 34 50
ATOM     50  O4  BDP B   4      10.519  16.646  18.6290  0.00  0.00     0.000 O
BRANCH 50 54
ATOM     51  C1  BDP B   4      11.753  19.029  15.5700  0.00  0.00     0.000 C
ATOM     52  C2  BDP B   4      12.492  19.255  16.8840  0.00  0.00     0.000 C
ATOM     53  C3  BDP B   4      12.220  18.095  17.7930  0.00  0.00     0.000 C
ATOM     54  C4  BDP B   4      10.684  17.908  17.9600  0.00  0.00     0.000 C
ATOM     55  C5  BDP B   4       9.954  17.888  16.6240  0.00  0.00     0.000 C
ATOM     56  O5  BDP B   4      10.359  18.990  15.8180  0.00  0.00     0.000 O
ATOM     57   O  BDP B   4      13.881  19.353  16.6550  0.00  0.00     0.000 O
ATOM     59  HD  BDP B   4      14.052  20.200  16.7090  0.00  0.00     0.000 HD
ATOM     59   O  BDP B   4      12.770  18.434  19.0820  0.00  0.00     0.000 O
ATOM     61  HD  BDP B   4      12.941  19.281  19.1370  0.00  0.00     0.000 HD
BRANCH 55 61
ATOM     61   C  BDP B   4       8.458  17.972  16.8700  0.00  0.00     0.000 C
ATOM     62   O  BDP B   4       7.727  17.072  16.3810  0.00  0.00     0.000 OA
ATOM     63   O  BDP B   4       8.016  18.943  17.5570  0.00  0.00     0.000 OA
ENDBRANCH 55 61
BRANCH 51 64
ATOM     64  O3  NAG B   5      12.087  20.127  14.6990  0.00  0.00     0.000 O
BRANCH 64 67
ATOM     65  C1  NAG B   5      12.735  19.674  11.0980  0.00  0.00     0.000 C
ATOM     66  C2  NAG B   5      13.013  19.707  12.5910  0.00  0.00     0.000 C
ATOM     67  C3  NAG B   5      11.709  19.890  13.3570  0.00  0.00     0.000 C
ATOM     68  C4  NAG B   5      10.923  21.097  12.8270  0.00  0.00     0.000 C
ATOM     69  C5  NAG B   5      10.776  21.022  11.3150  0.00  0.00     0.000 C
ATOM     70  O5  NAG B   5      12.064  20.850  10.7070  0.00  0.00     0.000 O
ATOM     71   O  NAG B   5       9.663  21.131  13.4620  0.00  0.00     0.000 O
ATOM     73  HD  NAG B   5       9.838  21.978  13.4980  0.00  0.00     0.000 HD
ATOM     73   C  NAG B   5      10.113  22.253  10.6820  0.00  0.00     0.000 C
ATOM     74   O  NAG B   5      10.947  23.412  10.8890  0.00  0.00     0.000 O
ATOM     76  HD  NAG B   5      11.122  24.259  10.9250  0.00  0.00     0.000 HD
BRANCH 66 78
ATOM     76   N  NAG B   5      13.789  18.466  12.7780  0.00  0.00     0.000 N
ATOM     78  HD  NAG B   5      13.871  19.305  12.9760  0.00  0.00     0.000 HD
ATOM     78   C  NAG B   5      14.862  18.319  13.5700  0.00  0.00     0.000 C
ATOM     79   C  NAG B   5      15.425  16.923  13.5640  0.00  0.00     0.000 C
ATOM     80   O  NAG B   5      15.365  19.277  14.2590  0.00  0.00     0.000 OA
ENDBRANCH 66 78
BRANCH 65 81
ATOM     81  O4  BDP B   6      13.963  19.548  10.3700  0.00  0.00     0.000 O
BRANCH 81 85
ATOM     82  C1  BDP B   6      15.377  19.217   6.3380  0.00  0.00     0.000 C
ATOM     83  C2  BDP B   6      14.938  20.597   6.8210  0.00  0.00     0.000 C
ATOM     84  C3  BDP B   6      14.847  20.693   8.3460  0.00  0.00     0.000 C
ATOM     85  C4  BDP B   6      14.006  19.562   8.9410  0.00  0.00     0.000 C
ATOM     86  C5  BDP B   6      14.521  18.226   8.3540  0.00  0.00     0.000 C
ATOM     87  O5  BDP B   6      14.513  18.235   6.8900  0.00  0.00     0.000 O
ATOM     88   O  BDP B   6      15.931  21.500   6.3440  0.00  0.00     0.000 O
ATOM     90  HD  BDP B   6      16.386  22.190   6.6050  0.00  0.00     0.000 HD
ATOM     90   O  BDP B   6      14.322  21.970   8.7160  0.00  0.00     0.000 O
ATOM     92  HD  BDP B   6      14.777  22.660   8.9760  0.00  0.00     0.000 HD
BRANCH 86 92
ATOM     92   C  BDP B   6      13.588  17.095   8.7120  0.00  0.00     0.000 C
ATOM     93   O  BDP B   6      13.928  16.266   9.6090  0.00  0.00     0.000 OA
ATOM     94   O  BDP B   6      12.475  17.038   8.1030  0.00  0.00     0.000 OA
ENDBRANCH 86 92
BRANCH 82 95
ATOM     95  O3  NAG B   7      15.239  19.173   4.9040  0.00  0.00     0.000 O
BRANCH 95 98
ATOM     96  C1  NAG B   7      17.459  18.622   2.0570  0.00  0.00     0.000 C
ATOM     97  C2  NAG B   7      16.359  19.312   2.8520  0.00  0.00     0.000 C
ATOM     98  C3  NAG B   7      16.225  18.489   4.1320  0.00  0.00     0.000 C
ATOM     99  C4  NAG B   7      15.847  17.051   3.7870  0.00  0.00     0.000 C
ATOM    100  C5  NAG B   7      16.836  16.452   2.7860  0.00  0.00     0.000 C
ATOM    101  O5  NAG B   7      16.962  17.333   1.6800  0.00  0.00     0.000 O
BRANCH 97 104
ATOM    102   N  NAG B   7      16.572  20.661   3.3940  0.00  0.00     0.000 N
ATOM    104  HD  NAG B   7      16.590  21.344   3.9260  0.00  0.00     0.000 HD
ATOM    104   O  NAG B   7      16.297  22.903   3.5600  0.00  0.00     0.000 OA
ATOM    105   C  NAG B   7      16.075  21.835   2.9580  0.00  0.00     0.000 C
ATOM    106   C  NAG B   7      15.227  21.852   1.7320  0.00  0.00     0.000 C
ENDBRANCH 97 104
ATOM    107   O  NAG B   7      17.449  14.471   1.6880  0.00  0.00     0.000 O
ATOM    109  HD  NAG B   7      17.745  15.188   2.0740  0.00  0.00     0.000 HD
ATOM    109   O  NAG B   7      17.449  14.471   1.6880  0.00  0.00     0.000 O
ATOM    111  HD  NAG B   7      17.745  15.188   2.0740  0.00  0.00     0.000 HD
ENDBRANCH 95 98
ENDBRANCH 82 95
ENDBRANCH 81 85
ENDBRANCH 65 81
ENDBRANCH 64 67
ENDBRANCH 51 64
ENDBRANCH 50 54
ENDBRANCH 34 50
ENDBRANCH 33 36
ENDBRANCH 20 33
ENDBRANCH 19 23
ENDBRANCH 1 19
TORSDOF 19
ENDMDL
MODEL 72
REMARK VINA RESULT:      -5.3      6.853      9.839
ROOT
ATOM      1  C1  NAG B   1      19.612   3.994   3.8570  0.00  0.00     0.000 C
ATOM      2  C2  NAG B   1      18.685   2.786   3.9530  0.00  0.00     0.000 C
ATOM      3  C3  NAG B   1      18.592   2.041   2.6370  0.00  0.00     0.000 C
ATOM      4  C4  NAG B   1      18.104   3.068   1.6200  0.00  0.00     0.000 C
ATOM      5  C5  NAG B   1      19.152   4.180   1.4870  0.00  0.00     0.000 C
ATOM      6  O5  NAG B   1      19.350   4.863   2.7430  0.00  0.00     0.000 O
ATOM      7   O  NAG B   1      17.685   0.917   2.7090  0.00  0.00     0.000 O
ATOM      9  HD  NAG B   1      18.035   0.926   3.5020  0.00  0.00     0.000 HD
ATOM      9   O  NAG B   1      17.897   2.449   0.3620  0.00  0.00     0.000 O
ATOM     11  HD  NAG B   1      18.247   2.458   1.1540  0.00  0.00     0.000 HD
ATOM     11   C  NAG B   1      18.747   5.151   0.3710  0.00  0.00     0.000 C
ATOM     12   O  NAG B   1      19.249   6.463   0.6180  0.00  0.00     0.000 O
ATOM     14  HD  NAG B   1      19.599   6.472   1.4100  0.00  0.00     0.000 HD
ENDROOT
BRANCH 2 16
ATOM     14   N  NAG B   1      17.913   2.479   5.1700  0.00  0.00     0.000 N
ATOM     16  HD  NAG B   1      17.420   1.870   5.5380  0.00  0.00     0.000 HD
ATOM     16   C  NAG B   1      18.378   1.693   6.1570  0.00  0.00     0.000 C
ATOM     17   C  NAG B   1      19.738   1.058   6.0340  0.00  0.00     0.000 C
ATOM     18   O  NAG B   1      17.724   1.500   7.1810  0.00  0.00     0.000 OA
ENDBRANCH 2 16
BRANCH 1 19
ATOM     19  O4  BDP B   2      19.289   4.743   5.0210  0.00  0.00     0.000 O
BRANCH 19 23
ATOM     20  C1  BDP B   2      18.000   8.572   5.8090  0.00  0.00     0.000 C
ATOM     21  C2  BDP B   2      17.001   7.649   5.1430  0.00  0.00     0.000 C
ATOM     22  C3  BDP B   2      17.413   6.201   5.2840  0.00  0.00     0.000 C
ATOM     23  C4  BDP B   2      18.842   6.053   4.7690  0.00  0.00     0.000 C
ATOM     24  C5  BDP B   2      19.749   7.014   5.5140  0.00  0.00     0.000 C
ATOM     25  O5  BDP B   2      19.308   8.341   5.3030  0.00  0.00     0.000 O
ATOM     26   O  BDP B   2      15.717   7.834   5.6990  0.00  0.00     0.000 O
ATOM     28  HD  BDP B   2      16.133   8.516   6.0330  0.00  0.00     0.000 HD
ATOM     28   O  BDP B   2      16.490   5.373   4.5590  0.00  0.00     0.000 O
ATOM     30  HD  BDP B   2      16.906   6.055   4.8930  0.00  0.00     0.000 HD
BRANCH 24 30
ATOM     30   C  BDP B   2      21.159   6.929   5.0520  0.00  0.00     0.000 C
ATOM     31   O  BDP B   2      21.402   7.300   3.8800  0.00  0.00     0.000 OA
ATOM     32   O  BDP B   2      22.029   6.483   5.8530  0.00  0.00     0.000 OA
ENDBRANCH 24 30
BRANCH 20 33
ATOM     33  O3  NAG B   3      17.579   9.859   5.4310  0.00  0.00     0.000 O
BRANCH 33 36
ATOM     34  C1  NAG B   3      17.601  12.853   7.7100  0.00  0.00     0.000 C
ATOM     35  C2  NAG B   3      17.051  11.637   6.9880  0.00  0.00     0.000 C
ATOM     36  C3  NAG B   3      18.163  10.871   6.2560  0.00  0.00     0.000 C
ATOM     37  C4  NAG B   3      18.946  11.838   5.3730  0.00  0.00     0.000 C
ATOM     38  C5  NAG B   3      19.377  13.061   6.1780  0.00  0.00     0.000 C
ATOM     39  O5  NAG B   3      18.241  13.685   6.7530  0.00  0.00     0.000 O
ATOM     40   O  NAG B   3      20.109  11.185   4.8390  0.00  0.00     0.000 O
ATOM     42  HD  NAG B   3      20.504  11.868   5.1950  0.00  0.00     0.000 HD
ATOM     42   C  NAG B   3      20.054  14.144   5.3430  0.00  0.00     0.000 C
ATOM     43   O  NAG B   3      19.112  14.691   4.4130  0.00  0.00     0.000 O
ATOM     45  HD  NAG B   3      19.507  15.375   4.7690  0.00  0.00     0.000 HD
BRANCH 35 47
ATOM     45   N  NAG B   3      15.631  11.307   7.0120  0.00  0.00     0.000 N
ATOM     47  HD  NAG B   3      15.897  11.580   6.2350  0.00  0.00     0.000 HD
ATOM     47   C  NAG B   3      15.143  10.290   7.6940  0.00  0.00     0.000 C
ATOM     48   C  NAG B   3      13.661  10.078   7.5950  0.00  0.00     0.000 C
ATOM     49   O  NAG B   3      15.862   9.542   8.3530  0.00  0.00     0.000 OA
ENDBRANCH 35 47
BRANCH 34 50
ATOM     50  O4  BDP B   4      16.447  13.488   8.2210  0.00  0.00     0.000 O
BRANCH 50 54
ATOM     51  C1  BDP B   4      15.118  15.874  11.2360  0.00  0.00     0.000 C
ATOM     52  C2  BDP B   4      16.472  16.276  10.6620  0.00  0.00     0.000 C
ATOM     53  C3  BDP B   4      16.664  15.576   9.3520  0.00  0.00     0.000 C
ATOM     54  C4  BDP B   4      16.496  14.042   9.5460  0.00  0.00     0.000 C
ATOM     55  C5  BDP B   4      15.223  13.690  10.3040  0.00  0.00     0.000 C
ATOM     56  O5  BDP B   4      15.111  14.480  11.4840  0.00  0.00     0.000 O
ATOM     57   O  BDP B   4      16.522  17.672  10.4590  0.00  0.00     0.000 O
ATOM     59  HD  BDP B   4      17.000  17.972  11.1160  0.00  0.00     0.000 HD
ATOM     59   O  BDP B   4      18.023  15.826   8.9380  0.00  0.00     0.000 O
ATOM     61  HD  BDP B   4      18.500  16.125   9.5960  0.00  0.00     0.000 HD
BRANCH 55 61
ATOM     61   C  BDP B   4      15.258  12.221  10.6870  0.00  0.00     0.000 C
ATOM     62   O  BDP B   4      16.381  11.690  10.8890  0.00  0.00     0.000 OA
ATOM     63   O  BDP B   4      14.156  11.600  10.7880  0.00  0.00     0.000 OA
ENDBRANCH 55 61
BRANCH 51 64
ATOM     64  O3  NAG B   5      14.937  16.612  12.4600  0.00  0.00     0.000 O
BRANCH 64 67
ATOM     65  C1  NAG B   5      11.940  18.484  13.5130  0.00  0.00     0.000 C
ATOM     66  C2  NAG B   5      13.311  18.235  12.9080  0.00  0.00     0.000 C
ATOM     67  C3  NAG B   5      13.576  16.737  12.8230  0.00  0.00     0.000 C
ATOM     68  C4  NAG B   5      13.345  16.059  14.1810  0.00  0.00     0.000 C
ATOM     69  C5  NAG B   5      11.987  16.442  14.7480  0.00  0.00     0.000 C
ATOM     70  O5  NAG B   5      11.854  17.870  14.7780  0.00  0.00     0.000 O
ATOM     71   O  NAG B   5      13.453  14.662  14.0120  0.00  0.00     0.000 O
ATOM     73  HD  NAG B   5      13.889  14.728  14.7580  0.00  0.00     0.000 HD
ATOM     73   C  NAG B   5      11.721  15.911  16.1640  0.00  0.00     0.000 C
ATOM     74   O  NAG B   5      12.659  16.503  17.0870  0.00  0.00     0.000 O
ATOM     76  HD  NAG B   5      13.095  16.569  17.8320  0.00  0.00     0.000 HD
BRANCH 66 78
ATOM     76   N  NAG B   5      13.270  18.955  11.6210  0.00  0.00     0.000 N
ATOM     78  HD  NAG B   5      13.752  18.963  12.3400  0.00  0.00     0.000 HD
ATOM     78   C  NAG B   5      14.220  19.774  11.1430  0.00  0.00     0.000 C
ATOM     79   C  NAG B   5      13.895  20.345   9.7890  0.00  0.00     0.000 C
ATOM     80   O  NAG B   5      15.297  20.050  11.7830  0.00  0.00     0.000 OA
ENDBRANCH 66 78
BRANCH 65 81
ATOM     81  O4  BDP B   6      11.705  19.893  13.6380  0.00  0.00     0.000 O
BRANCH 81 85
ATOM     82  C1  BDP B   6       8.447  22.657  13.9700  0.00  0.00     0.000 C
ATOM     83  C2  BDP B   6       8.865  21.904  15.2300  0.00  0.00     0.000 C
ATOM     84  C3  BDP B   6      10.256  21.274  15.1140  0.00  0.00     0.000 C
ATOM     85  C4  BDP B   6      10.397  20.430  13.8450  0.00  0.00     0.000 C
ATOM     86  C5  BDP B   6       9.913  21.284  12.6490  0.00  0.00     0.000 C
ATOM     87  O5  BDP B   6       8.554  21.787  12.8520  0.00  0.00     0.000 O
ATOM     88   O  BDP B   6       8.868  22.877  16.2710  0.00  0.00     0.000 O
ATOM     90  HD  BDP B   6       9.339  23.120  16.9560  0.00  0.00     0.000 HD
ATOM     90   O  BDP B   6      10.529  20.494  16.2810  0.00  0.00     0.000 O
ATOM     92  HD  BDP B   6      11.000  20.737  16.9660  0.00  0.00     0.000 HD
BRANCH 86 92
ATOM     92   C  BDP B   6       9.801  20.438  11.4040  0.00  0.00     0.000 C
ATOM     93   O  BDP B   6      10.662  20.567  10.4820  0.00  0.00     0.000 OA
ATOM     94   O  BDP B   6       8.845  19.603  11.3470  0.00  0.00     0.000 OA
ENDBRANCH 86 92
BRANCH 82 95
ATOM     95  O3  NAG B   7       7.064  23.036  14.1060  0.00  0.00     0.000 O
BRANCH 95 98
ATOM     96  C1  NAG B   7       5.123  26.129  14.0310  0.00  0.00     0.000 C
ATOM     97  C2  NAG B   7       5.536  24.756  14.5440  0.00  0.00     0.000 C
ATOM     98  C3  NAG B   7       6.633  24.294  13.5880  0.00  0.00     0.000 C
ATOM     99  C4  NAG B   7       6.084  24.217  12.1650  0.00  0.00     0.000 C
ATOM    100  C5  NAG B   7       5.445  25.544  11.7540  0.00  0.00     0.000 C
ATOM    101  O5  NAG B   7       4.513  25.934  12.7500  0.00  0.00     0.000 O
BRANCH 97 104
ATOM    102   N  NAG B   7       6.158  24.710  15.8740  0.00  0.00     0.000 N
ATOM    104  HD  NAG B   7       6.724  24.583  16.5170  0.00  0.00     0.000 HD
ATOM    104   O  NAG B   7       6.418  24.058  18.0280  0.00  0.00     0.000 OA
ATOM    105   C  NAG B   7       5.749  24.052  16.9760  0.00  0.00     0.000 C
ATOM    106   C  NAG B   7       4.470  23.288  16.9300  0.00  0.00     0.000 C
ENDBRANCH 97 104
ATOM    107   O  NAG B   7       4.495  26.708   9.9520  0.00  0.00     0.000 O
ATOM    109  HD  NAG B   7       5.007  26.775  10.6480  0.00  0.00     0.000 HD
ATOM    109   O  NAG B   7       4.495  26.708   9.9520  0.00  0.00     0.000 O
ATOM    111  HD  NAG B   7       5.007  26.775  10.6480  0.00  0.00     0.000 HD
ENDBRANCH 95 98
ENDBRANCH 82 95
ENDBRANCH 81 85
ENDBRANCH 65 81
ENDBRANCH 64 67
ENDBRANCH 51 64
ENDBRANCH 50 54
ENDBRANCH 34 50
ENDBRANCH 33 36
ENDBRANCH 20 33
ENDBRANCH 19 23
ENDBRANCH 1 19
TORSDOF 19
ENDMDL
MODEL 73
REMARK VINA RESULT:      -5.3      4.502     16.475
ROOT
ATOM      1  C1  NAG B   1      17.686  17.434   4.2000  0.00  0.00     0.000 C
ATOM      2  C2  NAG B   1      18.414  16.897   2.9710  0.00  0.00     0.000 C
ATOM      3  C3  NAG B   1      19.693  16.175   3.3430  0.00  0.00     0.000 C
ATOM      4  C4  NAG B   1      20.527  17.193   4.1140  0.00  0.00     0.000 C
ATOM      5  C5  NAG B   1      19.785  17.580   5.4000  0.00  0.00     0.000 C
ATOM      6  O5  NAG B   1      18.510  18.189   5.1020  0.00  0.00     0.000 O
ATOM      7   O  NAG B   1      20.408  15.698   2.1800  0.00  0.00     0.000 O
ATOM      9  HD  NAG B   1      19.581  15.608   1.9400  0.00  0.00     0.000 HD
ATOM      9   O  NAG B   1      21.792  16.642   4.4380  0.00  0.00     0.000 O
ATOM     11  HD  NAG B   1      20.965  16.552   4.1980  0.00  0.00     0.000 HD
ATOM     11   C  NAG B   1      20.666  18.498   6.2570  0.00  0.00     0.000 C
ATOM     12   O  NAG B   1      19.875  19.377   7.0550  0.00  0.00     0.000 O
ATOM     14  HD  NAG B   1      19.048  19.287   6.8150  0.00  0.00     0.000 HD
ENDROOT
BRANCH 2 16
ATOM     14   N  NAG B   1      17.728  17.258   1.7170  0.00  0.00     0.000 N
ATOM     16  HD  NAG B   1      17.818  17.253   0.8560  0.00  0.00     0.000 HD
ATOM     16   C  NAG B   1      17.092  16.361   0.9440  0.00  0.00     0.000 C
ATOM     17   C  NAG B   1      17.082  14.906   1.3320  0.00  0.00     0.000 C
ATOM     18   O  NAG B   1      16.487  16.707  -0.0700  0.00  0.00     0.000 OA
ENDBRANCH 2 16
BRANCH 1 19
ATOM     19  O4  BDP B   2      16.759  18.359   3.6490  0.00  0.00     0.000 O
BRANCH 19 23
ATOM     20  C1  BDP B   2      14.067  18.064   6.7490  0.00  0.00     0.000 C
ATOM     21  C2  BDP B   2      13.857  17.120   5.5840  0.00  0.00     0.000 C
ATOM     22  C3  BDP B   2      15.101  17.018   4.7300  0.00  0.00     0.000 C
ATOM     23  C4  BDP B   2      15.527  18.427   4.3260  0.00  0.00     0.000 C
ATOM     24  C5  BDP B   2      15.717  19.272   5.5700  0.00  0.00     0.000 C
ATOM     25  O5  BDP B   2      14.500  19.337   6.2900  0.00  0.00     0.000 O
ATOM     26   O  BDP B   2      13.494  15.839   6.0510  0.00  0.00     0.000 O
ATOM     28  HD  BDP B   2      13.414  16.300   6.7790  0.00  0.00     0.000 HD
ATOM     28   O  BDP B   2      14.826  16.189   3.5900  0.00  0.00     0.000 O
ATOM     30  HD  BDP B   2      14.746  16.651   4.3180  0.00  0.00     0.000 HD
BRANCH 24 30
ATOM     30   C  BDP B   2      16.123  20.665   5.2460  0.00  0.00     0.000 C
ATOM     31   O  BDP B   2      16.681  21.326   6.1520  0.00  0.00     0.000 OA
ATOM     32   O  BDP B   2      15.878  21.108   4.0880  0.00  0.00     0.000 OA
ENDBRANCH 24 30
BRANCH 20 33
ATOM     33  O3  NAG B   3      12.788  18.190   7.3200  0.00  0.00     0.000 O
BRANCH 33 36
ATOM     34  C1  NAG B   3      12.311  18.352  11.0480  0.00  0.00     0.000 C
ATOM     35  C2  NAG B   3      12.472  17.726   9.6760  0.00  0.00     0.000 C
ATOM     36  C3  NAG B   3      12.845  18.780   8.6210  0.00  0.00     0.000 C
ATOM     37  C4  NAG B   3      11.847  19.934   8.6850  0.00  0.00     0.000 C
ATOM     38  C5  NAG B   3      11.701  20.428  10.1210  0.00  0.00     0.000 C
ATOM     39  O5  NAG B   3      11.311  19.357  10.9640  0.00  0.00     0.000 O
ATOM     40   O  NAG B   3      12.293  21.014   7.8510  0.00  0.00     0.000 O
ATOM     42  HD  NAG B   3      12.196  21.459   8.5870  0.00  0.00     0.000 HD
ATOM     42   C  NAG B   3      10.625  21.496  10.2990  0.00  0.00     0.000 C
ATOM     43   O  NAG B   3       9.337  20.930  10.0260  0.00  0.00     0.000 O
ATOM     45  HD  NAG B   3       9.241  21.375  10.7620  0.00  0.00     0.000 HD
BRANCH 35 47
ATOM     45   N  NAG B   3      12.265  16.301   9.4540  0.00  0.00     0.000 N
ATOM     47  HD  NAG B   3      11.642  16.787   9.0990  0.00  0.00     0.000 HD
ATOM     47   C  NAG B   3      13.253  15.462   9.2130  0.00  0.00     0.000 C
ATOM     48   C  NAG B   3      12.864  14.031   8.9870  0.00  0.00     0.000 C
ATOM     49   O  NAG B   3      14.422  15.834   9.1500  0.00  0.00     0.000 OA
ENDBRANCH 35 47
BRANCH 34 50
ATOM     50  O4  BDP B   4      11.865  17.281  11.8530  0.00  0.00     0.000 O
BRANCH 50 54
ATOM     51  C1  BDP B   4      12.020  15.662  15.5830  0.00  0.00     0.000 C
ATOM     52  C2  BDP B   4      11.559  17.115  15.5430  0.00  0.00     0.000 C
ATOM     53  C3  BDP B   4      11.190  17.462  14.1340  0.00  0.00     0.000 C
ATOM     54  C4  BDP B   4      12.387  17.158  13.1870  0.00  0.00     0.000 C
ATOM     55  C5  BDP B   4      12.951  15.759  13.3980  0.00  0.00     0.000 C
ATOM     56  O5  BDP B   4      13.180  15.518  14.7830  0.00  0.00     0.000 O
ATOM     57   O  BDP B   4      10.435  17.295  16.3790  0.00  0.00     0.000 O
ATOM     59  HD  BDP B   4      10.750  17.682  17.0870  0.00  0.00     0.000 HD
ATOM     59   O  BDP B   4      10.948  18.884  14.1010  0.00  0.00     0.000 O
ATOM     61  HD  BDP B   4      11.262  19.271  14.8090  0.00  0.00     0.000 HD
BRANCH 55 61
ATOM     61   C  BDP B   4      14.263  15.630  12.6450  0.00  0.00     0.000 C
ATOM     62   O  BDP B   4      14.585  14.493  12.2110  0.00  0.00     0.000 OA
ATOM     63   O  BDP B   4      14.970  16.671  12.4870  0.00  0.00     0.000 OA
ENDBRANCH 55 61
BRANCH 51 64
ATOM     64  O3  NAG B   5      12.305  15.342  16.9580  0.00  0.00     0.000 O
BRANCH 64 67
ATOM     65  C1  NAG B   5      12.070  11.895  18.2460  0.00  0.00     0.000 C
ATOM     66  C2  NAG B   5      11.610  13.276  17.8120  0.00  0.00     0.000 C
ATOM     67  C3  NAG B   5      12.754  14.012  17.1260  0.00  0.00     0.000 C
ATOM     68  C4  NAG B   5      14.016  14.005  17.9990  0.00  0.00     0.000 C
ATOM     69  C5  NAG B   5      14.343  12.593  18.4600  0.00  0.00     0.000 C
ATOM     70  O5  NAG B   5      13.195  12.005  19.0880  0.00  0.00     0.000 O
ATOM     71   O  NAG B   5      15.081  14.561  17.2580  0.00  0.00     0.000 O
ATOM     73  HD  NAG B   5      15.246  14.948  18.0150  0.00  0.00     0.000 HD
ATOM     73   C  NAG B   5      15.519  12.505  19.4430  0.00  0.00     0.000 C
ATOM     74   O  NAG B   5      15.180  13.196  20.6640  0.00  0.00     0.000 O
ATOM     76  HD  NAG B   5      15.345  13.583  21.4210  0.00  0.00     0.000 HD
BRANCH 66 78
ATOM     76   N  NAG B   5      10.245  13.822  17.9340  0.00  0.00     0.000 N
ATOM     78  HD  NAG B   5      10.724  13.434  17.3250  0.00  0.00     0.000 HD
ATOM     78   C  NAG B   5       9.244  13.649  17.0560  0.00  0.00     0.000 C
ATOM     79   C  NAG B   5       7.960  14.316  17.4700  0.00  0.00     0.000 C
ATOM     80   O  NAG B   5       9.372  12.985  15.9660  0.00  0.00     0.000 OA
ENDBRANCH 66 78
BRANCH 65 81
ATOM     81  O4  BDP B   6      11.011  11.216  18.9330  0.00  0.00     0.000 O
BRANCH 81 85
ATOM     82  C1  BDP B   6       9.623   7.211  19.5610  0.00  0.00     0.000 C
ATOM     83  C2  BDP B   6      10.592   7.791  20.5880  0.00  0.00     0.000 C
ATOM     84  C3  BDP B   6      10.701   9.316  20.5080  0.00  0.00     0.000 C
ATOM     85  C4  BDP B   6      10.990   9.795  19.0840  0.00  0.00     0.000 C
ATOM     86  C5  BDP B   6       9.972   9.116  18.1380  0.00  0.00     0.000 C
ATOM     87  O5  BDP B   6       9.996   7.658  18.2660  0.00  0.00     0.000 O
ATOM     88   O  BDP B   6      10.068   7.416  21.8590  0.00  0.00     0.000 O
ATOM     90  HD  BDP B   6       9.939   7.744  22.6510  0.00  0.00     0.000 HD
ATOM     90   O  BDP B   6      11.706   9.773  21.4160  0.00  0.00     0.000 O
ATOM     92  HD  BDP B   6      11.577  10.101  22.2080  0.00  0.00     0.000 HD
BRANCH 86 92
ATOM     92   C  BDP B   6      10.347   9.357  16.6950  0.00  0.00     0.000 C
ATOM     93   O  BDP B   6      11.504   9.036  16.2900  0.00  0.00     0.000 OA
ATOM     94   O  BDP B   6       9.461   9.858  15.9350  0.00  0.00     0.000 OA
ENDBRANCH 86 92
BRANCH 82 95
ATOM     95  O3  NAG B   7       9.742   5.775  19.5850  0.00  0.00     0.000 O
BRANCH 95 98
ATOM     96  C1  NAG B   7       7.845   2.974  18.2090  0.00  0.00     0.000 C
ATOM     97  C2  NAG B   7       8.585   3.762  19.2820  0.00  0.00     0.000 C
ATOM     98  C3  NAG B   7       9.104   5.007  18.5660  0.00  0.00     0.000 C
ATOM     99  C4  NAG B   7      10.037   4.601  17.4280  0.00  0.00     0.000 C
ATOM    100  C5  NAG B   7       9.352   3.607  16.4890  0.00  0.00     0.000 C
ATOM    101  O5  NAG B   7       8.822   2.538  17.2570  0.00  0.00     0.000 O
BRANCH 97 104
ATOM    102   N  NAG B   7       7.816   4.329  20.3980  0.00  0.00     0.000 N
ATOM    104  HD  NAG B   7       7.492   4.881  20.9810  0.00  0.00     0.000 HD
ATOM    104   O  NAG B   7       7.161   4.596  22.5500  0.00  0.00     0.000 OA
ATOM    105   C  NAG B   7       7.831   3.979  21.6980  0.00  0.00     0.000 C
ATOM    106   C  NAG B   7       8.680   2.832  22.1300  0.00  0.00     0.000 C
ENDBRANCH 97 104
ATOM    107   O  NAG B   7       9.583   2.457  14.4570  0.00  0.00     0.000 O
ATOM    109  HD  NAG B   7       9.029   2.877  14.9740  0.00  0.00     0.000 HD
ATOM    109   O  NAG B   7       9.583   2.457  14.4570  0.00  0.00     0.000 O
ATOM    111  HD  NAG B   7       9.029   2.877  14.9740  0.00  0.00     0.000 HD
ENDBRANCH 95 98
ENDBRANCH 82 95
ENDBRANCH 81 85
ENDBRANCH 65 81
ENDBRANCH 64 67
ENDBRANCH 51 64
ENDBRANCH 50 54
ENDBRANCH 34 50
ENDBRANCH 33 36
ENDBRANCH 20 33
ENDBRANCH 19 23
ENDBRANCH 1 19
TORSDOF 19
ENDMDL
MODEL 74
REMARK VINA RESULT:      -5.3      6.229      8.051
ROOT
ATOM      1  C1  NAG B   1      19.490   4.552   7.6510  0.00  0.00     0.000 C
ATOM      2  C2  NAG B   1      19.729   3.048   7.5580  0.00  0.00     0.000 C
ATOM      3  C3  NAG B   1      19.558   2.365   8.9000  0.00  0.00     0.000 C
ATOM      4  C4  NAG B   1      20.546   3.054   9.8360  0.00  0.00     0.000 C
ATOM      5  C5  NAG B   1      20.158   4.531   9.9790  0.00  0.00     0.000 C
ATOM      6  O5  NAG B   1      20.212   5.209   8.7050  0.00  0.00     0.000 O
ATOM      7   O  NAG B   1      19.821   0.945   8.8270  0.00  0.00     0.000 O
ATOM      9  HD  NAG B   1      19.459   1.108   8.0570  0.00  0.00     0.000 HD
ATOM      9   O  NAG B   1      20.529   2.428  11.1080  0.00  0.00     0.000 O
ATOM     11  HD  NAG B   1      20.167   2.591  10.3390  0.00  0.00     0.000 HD
ATOM     11   C  NAG B   1      21.054   5.210  11.0220  0.00  0.00     0.000 C
ATOM     12   O  NAG B   1      21.212   6.600  10.7430  0.00  0.00     0.000 O
ATOM     14  HD  NAG B   1      20.850   6.763   9.9740  0.00  0.00     0.000 HD
ENDROOT
BRANCH 2 16
ATOM     14   N  NAG B   1      18.856   2.435   6.5400  0.00  0.00     0.000 N
ATOM     16  HD  NAG B   1      18.471   2.589   5.7800  0.00  0.00     0.000 HD
ATOM     16   C  NAG B   1      19.321   1.910   5.3940  0.00  0.00     0.000 C
ATOM     17   C  NAG B   1      20.795   1.956   5.0890  0.00  0.00     0.000 C
ATOM     18   O  NAG B   1      18.567   1.362   4.5900  0.00  0.00     0.000 OA
ENDBRANCH 2 16
BRANCH 1 19
ATOM     19  O4  BDP B   2      20.040   5.043   6.4360  0.00  0.00     0.000 O
BRANCH 19 23
ATOM     20  C1  BDP B   2      18.048   8.645   6.4520  0.00  0.00     0.000 C
ATOM     21  C2  BDP B   2      17.293   7.461   5.8860  0.00  0.00     0.000 C
ATOM     22  C3  BDP B   2      17.927   6.154   6.3060  0.00  0.00     0.000 C
ATOM     23  C4  BDP B   2      19.406   6.193   5.9290  0.00  0.00     0.000 C
ATOM     24  C5  BDP B   2      20.056   7.409   6.5590  0.00  0.00     0.000 C
ATOM     25  O5  BDP B   2      19.420   8.582   6.0890  0.00  0.00     0.000 O
ATOM     26   O  BDP B   2      15.946   7.493   6.3070  0.00  0.00     0.000 O
ATOM     28  HD  BDP B   2      16.205   8.284   6.5470  0.00  0.00     0.000 HD
ATOM     28   O  BDP B   2      17.236   5.067   5.6710  0.00  0.00     0.000 O
ATOM     30  HD  BDP B   2      17.495   5.858   5.9110  0.00  0.00     0.000 HD
BRANCH 24 30
ATOM     30   C  BDP B   2      21.500   7.512   6.2200  0.00  0.00     0.000 C
ATOM     31   O  BDP B   2      21.798   7.637   5.0100  0.00  0.00     0.000 OA
ATOM     32   O  BDP B   2      22.343   7.462   7.1610  0.00  0.00     0.000 OA
ENDBRANCH 24 30
BRANCH 20 33
ATOM     33  O3  NAG B   3      17.455   9.757   5.8270  0.00  0.00     0.000 O
BRANCH 33 36
ATOM     34  C1  NAG B   3      17.055  13.177   7.3430  0.00  0.00     0.000 C
ATOM     35  C2  NAG B   3      16.668  11.776   6.9070  0.00  0.00     0.000 C
ATOM     36  C3  NAG B   3      17.890  10.987   6.4120  0.00  0.00     0.000 C
ATOM     37  C4  NAG B   3      18.626  11.805   5.3540  0.00  0.00     0.000 C
ATOM     38  C5  NAG B   3      18.888  13.219   5.8660  0.00  0.00     0.000 C
ATOM     39  O5  NAG B   3      17.666  13.832   6.2410  0.00  0.00     0.000 O
ATOM     40   O  NAG B   3      19.875  11.176   5.0280  0.00  0.00     0.000 O
ATOM     42  HD  NAG B   3      20.181  11.962   5.2270  0.00  0.00     0.000 HD
ATOM     42   C  NAG B   3      19.505  14.149   4.8240  0.00  0.00     0.000 C
ATOM     43   O  NAG B   3      18.570  14.364   3.7610  0.00  0.00     0.000 O
ATOM     45  HD  NAG B   3      18.875  15.150   3.9600  0.00  0.00     0.000 HD
BRANCH 35 47
ATOM     45   N  NAG B   3      15.298  11.281   6.9360  0.00  0.00     0.000 N
ATOM     47  HD  NAG B   3      15.604  11.368   6.1310  0.00  0.00     0.000 HD
ATOM     47   C  NAG B   3      14.863  10.429   7.8430  0.00  0.00     0.000 C
ATOM     48   C  NAG B   3      13.429  10.005   7.7170  0.00  0.00     0.000 C
ATOM     49   O  NAG B   3      15.595   9.986   8.7250  0.00  0.00     0.000 OA
ENDBRANCH 35 47
BRANCH 34 50
ATOM     50  O4  BDP B   4      15.818  13.784   7.6520  0.00  0.00     0.000 O
BRANCH 50 54
ATOM     51  C1  BDP B   4      14.143  16.791   9.8200  0.00  0.00     0.000 C
ATOM     52  C2  BDP B   4      15.477  17.146   9.1740  0.00  0.00     0.000 C
ATOM     53  C3  BDP B   4      15.790  16.121   8.1270  0.00  0.00     0.000 C
ATOM     54  C4  BDP B   4      15.757  14.699   8.7590  0.00  0.00     0.000 C
ATOM     55  C5  BDP B   4      14.491  14.454   9.5670  0.00  0.00     0.000 C
ATOM     56  O5  BDP B   4      14.254  15.535  10.4640  0.00  0.00     0.000 O
ATOM     57   O  BDP B   4      15.406  18.422   8.5720  0.00  0.00     0.000 O
ATOM     59  HD  BDP B   4      15.824  18.945   9.1210  0.00  0.00     0.000 HD
ATOM     59   O  BDP B   4      17.137  16.377   7.6790  0.00  0.00     0.000 O
ATOM     61  HD  BDP B   4      17.555  16.901   8.2270  0.00  0.00     0.000 HD
BRANCH 55 61
ATOM     61   C  BDP B   4      14.645  13.170  10.3630  0.00  0.00     0.000 C
ATOM     62   O  BDP B   4      13.631  12.439  10.5090  0.00  0.00     0.000 OA
ATOM     63   O  BDP B   4      15.788  12.893  10.8400  0.00  0.00     0.000 OA
ENDBRANCH 55 61
BRANCH 51 64
ATOM     64  O3  NAG B   5      13.840  17.829  10.7730  0.00  0.00     0.000 O
BRANCH 64 67
ATOM     65  C1  NAG B   5      10.492  19.364  10.9230  0.00  0.00     0.000 C
ATOM     66  C2  NAG B   5      11.905  19.100  10.4330  0.00  0.00     0.000 C
ATOM     67  C3  NAG B   5      12.471  17.865  11.1220  0.00  0.00     0.000 C
ATOM     68  C4  NAG B   5      12.334  17.974  12.6470  0.00  0.00     0.000 C
ATOM     69  C5  NAG B   5      10.908  18.331  13.0350  0.00  0.00     0.000 C
ATOM     70  O5  NAG B   5      10.488  19.505  12.3260  0.00  0.00     0.000 O
ATOM     71   O  NAG B   5      12.730  16.748  13.2240  0.00  0.00     0.000 O
ATOM     73  HD  NAG B   5      13.117  17.278  13.7890  0.00  0.00     0.000 HD
ATOM     73   C  NAG B   5      10.706  18.586  14.5350  0.00  0.00     0.000 C
ATOM     74   O  NAG B   5      11.472  19.741  14.9370  0.00  0.00     0.000 O
ATOM     76  HD  NAG B   5      11.860  20.270  15.5020  0.00  0.00     0.000 HD
BRANCH 66 78
ATOM     76   N  NAG B   5      12.373  19.977   9.3430  0.00  0.00     0.000 N
ATOM     78  HD  NAG B   5      12.238  19.131   9.4650  0.00  0.00     0.000 HD
ATOM     78   C  NAG B   5      12.544  19.620   8.0600  0.00  0.00     0.000 C
ATOM     79   C  NAG B   5      13.016  20.746   7.1810  0.00  0.00     0.000 C
ATOM     80   O  NAG B   5      12.334  18.430   7.6280  0.00  0.00     0.000 OA
ENDBRANCH 66 78
BRANCH 65 81
ATOM     81  O4  BDP B   6       9.972  20.553  10.3130  0.00  0.00     0.000 O
BRANCH 81 85
ATOM     82  C1  BDP B   6       6.337  22.062   8.6180  0.00  0.00     0.000 C
ATOM     83  C2  BDP B   6       6.413  21.948  10.1380  0.00  0.00     0.000 C
ATOM     84  C3  BDP B   6       7.847  21.799  10.6530  0.00  0.00     0.000 C
ATOM     85  C4  BDP B   6       8.598  20.676   9.9360  0.00  0.00     0.000 C
ATOM     86  C5  BDP B   6       8.420  20.880   8.4130  0.00  0.00     0.000 C
ATOM     87  O5  BDP B   6       7.008  20.955   8.0340  0.00  0.00     0.000 O
ATOM     88   O  BDP B   6       5.849  23.157  10.6380  0.00  0.00     0.000 O
ATOM     90  HD  BDP B   6       5.984  23.752  11.2540  0.00  0.00     0.000 HD
ATOM     90   O  BDP B   6       7.829  21.583  12.0660  0.00  0.00     0.000 O
ATOM     92  HD  BDP B   6       7.963  22.178  12.6810  0.00  0.00     0.000 HD
BRANCH 86 92
ATOM     92   C  BDP B   6       8.933  19.681   7.6540  0.00  0.00     0.000 C
ATOM     93   O  BDP B   6       8.686  18.515   8.0880  0.00  0.00     0.000 OA
ATOM     94   O  BDP B   6       9.582  19.898   6.5830  0.00  0.00     0.000 OA
ENDBRANCH 86 92
BRANCH 82 95
ATOM     95  O3  NAG B   7       4.952  21.997   8.2260  0.00  0.00     0.000 O
BRANCH 95 98
ATOM     96  C1  NAG B   7       2.685  23.907   6.0920  0.00  0.00     0.000 C
ATOM     97  C2  NAG B   7       3.109  23.133   7.3330  0.00  0.00     0.000 C
ATOM     98  C3  NAG B   7       4.533  22.668   7.0380  0.00  0.00     0.000 C
ATOM     99  C4  NAG B   7       4.543  21.781   5.7960  0.00  0.00     0.000 C
ATOM    100  C5  NAG B   7       3.883  22.491   4.6130  0.00  0.00     0.000 C
ATOM    101  O5  NAG B   7       2.608  22.967   5.0150  0.00  0.00     0.000 O
BRANCH 97 104
ATOM    102   N  NAG B   7       3.222  23.898   8.5830  0.00  0.00     0.000 N
ATOM    104  HD  NAG B   7       3.538  24.263   9.3020  0.00  0.00     0.000 HD
ATOM    104   O  NAG B   7       2.805  24.421  10.7470  0.00  0.00     0.000 OA
ATOM    105   C  NAG B   7       2.558  23.726   9.7420  0.00  0.00     0.000 C
ATOM    106   C  NAG B   7       1.511  22.668   9.8270  0.00  0.00     0.000 C
ENDBRANCH 97 104
ATOM    107   O  NAG B   7       3.454  22.333   2.3120  0.00  0.00     0.000 O
ATOM    109  HD  NAG B   7       3.669  22.869   2.9570  0.00  0.00     0.000 HD
ATOM    109   O  NAG B   7       3.454  22.333   2.3120  0.00  0.00     0.000 O
ATOM    111  HD  NAG B   7       3.669  22.869   2.9570  0.00  0.00     0.000 HD
ENDBRANCH 95 98
ENDBRANCH 82 95
ENDBRANCH 81 85
ENDBRANCH 65 81
ENDBRANCH 64 67
ENDBRANCH 51 64
ENDBRANCH 50 54
ENDBRANCH 34 50
ENDBRANCH 33 36
ENDBRANCH 20 33
ENDBRANCH 19 23
ENDBRANCH 1 19
TORSDOF 19
ENDMDL
MODEL 75
REMARK VINA RESULT:      -5.2      5.218      7.982
ROOT
ATOM      1  C1  NAG B   1       9.366   8.858  14.4610  0.00  0.00     0.000 C
ATOM      2  C2  NAG B   1       9.204   7.967  13.2320  0.00  0.00     0.000 C
ATOM      3  C3  NAG B   1       7.953   8.308  12.4480  0.00  0.00     0.000 C
ATOM      4  C4  NAG B   1       6.799   8.155  13.4340  0.00  0.00     0.000 C
ATOM      5  C5  NAG B   1       6.967   9.174  14.5680  0.00  0.00     0.000 C
ATOM      6  O5  NAG B   1       8.197   8.951  15.2900  0.00  0.00     0.000 O
ATOM      7   O  NAG B   1       7.773   7.443  11.3040  0.00  0.00     0.000 O
ATOM      9  HD  NAG B   1       8.635   7.522  11.3450  0.00  0.00     0.000 HD
ATOM      9   O  NAG B   1       5.563   8.369  12.7740  0.00  0.00     0.000 O
ATOM     11  HD  NAG B   1       6.424   8.448  12.8150  0.00  0.00     0.000 HD
ATOM     11   C  NAG B   1       5.747   9.130  15.4960  0.00  0.00     0.000 C
ATOM     12   O  NAG B   1       6.095   9.508  16.8270  0.00  0.00     0.000 O
ATOM     14  HD  NAG B   1       6.956   9.587  16.8670  0.00  0.00     0.000 HD
ENDROOT
BRANCH 2 16
ATOM     14   N  NAG B   1      10.371   8.012  12.3330  0.00  0.00     0.000 N
ATOM     16  HD  NAG B   1      11.227   8.137  12.3210  0.00  0.00     0.000 HD
ATOM     16   C  NAG B   1      11.233   6.990  12.1950  0.00  0.00     0.000 C
ATOM     17   C  NAG B   1      11.044   5.734  13.0030  0.00  0.00     0.000 C
ATOM     18   O  NAG B   1      12.168   7.047  11.3970  0.00  0.00     0.000 OA
ENDBRANCH 2 16
BRANCH 1 19
ATOM     19  O4  BDP B   2      10.340   8.169  15.2340  0.00  0.00     0.000 O
BRANCH 19 23
ATOM     20  C1  BDP B   2      11.806  11.601  16.9700  0.00  0.00     0.000 C
ATOM     21  C2  BDP B   2      12.595  11.048  15.8010  0.00  0.00     0.000 C
ATOM     22  C3  BDP B   2      11.769  10.071  14.9960  0.00  0.00     0.000 C
ATOM     23  C4  BDP B   2      11.223   9.006  15.9420  0.00  0.00     0.000 C
ATOM     24  C5  BDP B   2      10.446   9.675  17.0600  0.00  0.00     0.000 C
ATOM     25  O5  BDP B   2      11.301  10.546  17.7750  0.00  0.00     0.000 O
ATOM     26   O  BDP B   2      13.035  12.099  14.9670  0.00  0.00     0.000 O
ATOM     28  HD  BDP B   2      12.763  12.548  15.6560  0.00  0.00     0.000 HD
ATOM     28   O  BDP B   2      12.584   9.504  13.9580  0.00  0.00     0.000 O
ATOM     30  HD  BDP B   2      12.312   9.953  14.6470  0.00  0.00     0.000 HD
BRANCH 24 30
ATOM     30   C  BDP B   2       9.894   8.690  18.0270  0.00  0.00     0.000 C
ATOM     31   O  BDP B   2      10.669   7.799  18.4450  0.00  0.00     0.000 OA
ATOM     32   O  BDP B   2       8.682   8.798  18.3690  0.00  0.00     0.000 OA
ENDBRANCH 24 30
BRANCH 20 33
ATOM     33  O3  NAG B   3      12.757  12.330  17.7070  0.00  0.00     0.000 O
BRANCH 33 36
ATOM     34  C1  NAG B   3      11.968  15.685  19.2160  0.00  0.00     0.000 C
ATOM     35  C2  NAG B   3      12.423  14.683  18.1720  0.00  0.00     0.000 C
ATOM     36  C3  NAG B   3      12.135  13.241  18.6170  0.00  0.00     0.000 C
ATOM     37  C4  NAG B   3      12.714  13.018  20.0120  0.00  0.00     0.000 C
ATOM     38  C5  NAG B   3      12.260  14.128  20.9570  0.00  0.00     0.000 C
ATOM     39  O5  NAG B   3      12.635  15.391  20.4350  0.00  0.00     0.000 O
ATOM     40   O  NAG B   3      12.283  11.748  20.5250  0.00  0.00     0.000 O
ATOM     42  HD  NAG B   3      12.019  12.243  21.1850  0.00  0.00     0.000 HD
ATOM     42   C  NAG B   3      12.897  14.057  22.3430  0.00  0.00     0.000 C
ATOM     43   O  NAG B   3      14.307  14.288  22.2350  0.00  0.00     0.000 O
ATOM     45  HD  NAG B   3      14.043  14.784  22.8940  0.00  0.00     0.000 HD
BRANCH 35 47
ATOM     45   N  NAG B   3      13.066  15.100  16.9320  0.00  0.00     0.000 N
ATOM     47  HD  NAG B   3      13.611  14.698  17.4710  0.00  0.00     0.000 HD
ATOM     47   C  NAG B   3      12.465  15.044  15.7590  0.00  0.00     0.000 C
ATOM     48   C  NAG B   3      13.276  15.492  14.5800  0.00  0.00     0.000 C
ATOM     49   O  NAG B   3      11.317  14.623  15.6350  0.00  0.00     0.000 OA
ENDBRANCH 35 47
BRANCH 34 50
ATOM     50  O4  BDP B   4      12.405  16.925  18.7020  0.00  0.00     0.000 O
BRANCH 50 54
ATOM     51  C1  BDP B   4      10.607  20.352  17.4480  0.00  0.00     0.000 C
ATOM     52  C2  BDP B   4      11.653  20.551  18.5390  0.00  0.00     0.000 C
ATOM     53  C3  BDP B   4      12.484  19.308  18.6380  0.00  0.00     0.000 C
ATOM     54  C4  BDP B   4      11.561  18.077  18.8700  0.00  0.00     0.000 C
ATOM     55  C5  BDP B   4      10.407  18.023  17.8780  0.00  0.00     0.000 C
ATOM     56  O5  BDP B   4       9.749  19.285  17.8110  0.00  0.00     0.000 O
ATOM     57   O  BDP B   4      12.486  21.646  18.2250  0.00  0.00     0.000 O
ATOM     59  HD  BDP B   4      12.205  22.287  18.7350  0.00  0.00     0.000 HD
ATOM     59   O  BDP B   4      13.326  19.458  19.7990  0.00  0.00     0.000 O
ATOM     61  HD  BDP B   4      13.044  20.099  20.3090  0.00  0.00     0.000 HD
BRANCH 55 61
ATOM     61   C  BDP B   4       9.413  16.966  18.3240  0.00  0.00     0.000 C
ATOM     62   O  BDP B   4       9.124  16.047  17.5140  0.00  0.00     0.000 OA
ATOM     63   O  BDP B   4       8.922  17.057  19.4910  0.00  0.00     0.000 OA
ENDBRANCH 55 61
BRANCH 51 64
ATOM     64  O3  NAG B   5       9.869  21.585  17.3340  0.00  0.00     0.000 O
BRANCH 64 67
ATOM     65  C1  NAG B   5       8.223  22.175  14.0880  0.00  0.00     0.000 C
ATOM     66  C2  NAG B   5       9.351  22.012  15.0920  0.00  0.00     0.000 C
ATOM     67  C3  NAG B   5       8.799  21.495  16.4140  0.00  0.00     0.000 C
ATOM     68  C4  NAG B   5       7.632  22.366  16.9020  0.00  0.00     0.000 C
ATOM     69  C5  NAG B   5       6.600  22.547  15.8000  0.00  0.00     0.000 C
ATOM     70  O5  NAG B   5       7.236  23.035  14.6100  0.00  0.00     0.000 O
ATOM     71   O  NAG B   5       7.062  21.760  18.0420  0.00  0.00     0.000 O
ATOM     73  HD  NAG B   5       7.048  22.580  18.3210  0.00  0.00     0.000 HD
ATOM     73   C  NAG B   5       5.458  23.509  16.1560  0.00  0.00     0.000 C
ATOM     74   O  NAG B   5       5.988  24.837  16.3530  0.00  0.00     0.000 O
ATOM     76  HD  NAG B   5       5.973  25.656  16.6330  0.00  0.00     0.000 HD
BRANCH 66 78
ATOM     76   N  NAG B   5      10.306  21.172  14.3420  0.00  0.00     0.000 N
ATOM     78  HD  NAG B   5      10.322  21.919  14.7810  0.00  0.00     0.000 HD
ATOM     78   C  NAG B   5      11.640  21.315  14.3280  0.00  0.00     0.000 C
ATOM     79   C  NAG B   5      12.344  20.289  13.4810  0.00  0.00     0.000 C
ATOM     80   O  NAG B   5      12.255  22.241  14.9670  0.00  0.00     0.000 OA
ENDBRANCH 66 78
BRANCH 65 81
ATOM     81  O4  BDP B   6       8.731  22.704  12.8570  0.00  0.00     0.000 O
BRANCH 81 85
ATOM     82  C1  BDP B   6       7.598  22.722   8.7240  0.00  0.00     0.000 C
ATOM     83  C2  BDP B   6       6.489  22.552   9.7590  0.00  0.00     0.000 C
ATOM     84  C3  BDP B   6       6.922  22.963  11.1690  0.00  0.00     0.000 C
ATOM     85  C4  BDP B   6       8.230  22.286  11.5850  0.00  0.00     0.000 C
ATOM     86  C5  BDP B   6       9.258  22.497  10.4480  0.00  0.00     0.000 C
ATOM     87  O5  BDP B   6       8.752  22.019   9.1600  0.00  0.00     0.000 O
ATOM     88   O  BDP B   6       5.428  23.396   9.3210  0.00  0.00     0.000 O
ATOM     90  HD  BDP B   6       4.845  23.954   9.6370  0.00  0.00     0.000 HD
ATOM     90   O  BDP B   6       5.875  22.669  12.0970  0.00  0.00     0.000 O
ATOM     92  HD  BDP B   6       5.293  23.227  12.4130  0.00  0.00     0.000 HD
BRANCH 86 92
ATOM     92   C  BDP B   6      10.490  21.657  10.6850  0.00  0.00     0.000 C
ATOM     93   O  BDP B   6      10.397  20.392  10.6620  0.00  0.00     0.000 OA
ATOM     94   O  BDP B   6      11.587  22.267  10.8770  0.00  0.00     0.000 OA
ENDBRANCH 86 92
BRANCH 82 95
ATOM     95  O3  NAG B   7       7.158  22.128   7.4870  0.00  0.00     0.000 O
BRANCH 95 98
ATOM     96  C1  NAG B   7       6.487  23.233   4.0710  0.00  0.00     0.000 C
ATOM     97  C2  NAG B   7       6.239  22.458   5.3590  0.00  0.00     0.000 C
ATOM     98  C3  NAG B   7       7.424  22.804   6.2590  0.00  0.00     0.000 C
ATOM     99  C4  NAG B   7       8.727  22.374   5.5890  0.00  0.00     0.000 C
ATOM    100  C5  NAG B   7       8.842  22.970   4.1860  0.00  0.00     0.000 C
ATOM    101  O5  NAG B   7       7.657  22.676   3.4620  0.00  0.00     0.000 O
BRANCH 97 104
ATOM    102   N  NAG B   7       5.020  22.848   6.0800  0.00  0.00     0.000 N
ATOM    104  HD  NAG B   7       4.480  23.175   6.6730  0.00  0.00     0.000 HD
ATOM    104   O  NAG B   7       3.084  22.536   7.2140  0.00  0.00     0.000 OA
ATOM    105   C  NAG B   7       4.038  22.064   6.5650  0.00  0.00     0.000 C
ATOM    106   C  NAG B   7       4.102  20.593   6.3290  0.00  0.00     0.000 C
ENDBRANCH 97 104
ATOM    107   O  NAG B   7      10.282  23.223   2.3510  0.00  0.00     0.000 O
ATOM    109  HD  NAG B   7       9.683  23.613   2.8400  0.00  0.00     0.000 HD
ATOM    109   O  NAG B   7      10.282  23.223   2.3510  0.00  0.00     0.000 O
ATOM    111  HD  NAG B   7       9.683  23.613   2.8400  0.00  0.00     0.000 HD
ENDBRANCH 95 98
ENDBRANCH 82 95
ENDBRANCH 81 85
ENDBRANCH 65 81
ENDBRANCH 64 67
ENDBRANCH 51 64
ENDBRANCH 50 54
ENDBRANCH 34 50
ENDBRANCH 33 36
ENDBRANCH 20 33
ENDBRANCH 19 23
ENDBRANCH 1 19
TORSDOF 19
ENDMDL
MODEL 76
REMARK VINA RESULT:      -5.2      5.871     18.889
ROOT
ATOM      1  C1  NAG B   1      14.662  15.140   7.5860  0.00  0.00     0.000 C
ATOM      2  C2  NAG B   1      14.268  16.492   6.9960  0.00  0.00     0.000 C
ATOM      3  C3  NAG B   1      15.189  16.905   5.8670  0.00  0.00     0.000 C
ATOM      4  C4  NAG B   1      16.591  16.920   6.4680  0.00  0.00     0.000 C
ATOM      5  C5  NAG B   1      16.962  15.500   6.9150  0.00  0.00     0.000 C
ATOM      6  O5  NAG B   1      16.052  15.019   7.9280  0.00  0.00     0.000 O
ATOM      7   O  NAG B   1      14.845  18.203   5.3300  0.00  0.00     0.000 O
ATOM      9  HD  NAG B   1      14.071  17.875   5.5360  0.00  0.00     0.000 HD
ATOM      9   O  NAG B   1      17.528  17.382   5.5100  0.00  0.00     0.000 O
ATOM     11  HD  NAG B   1      16.754  17.054   5.7160  0.00  0.00     0.000 HD
ATOM     11   C  NAG B   1      18.417  15.466   7.3970  0.00  0.00     0.000 C
ATOM     12   O  NAG B   1      18.614  14.451   8.3800  0.00  0.00     0.000 O
ATOM     14  HD  NAG B   1      17.839  14.123   8.5870  0.00  0.00     0.000 HD
ENDROOT
BRANCH 2 16
ATOM     14   N  NAG B   1      12.818  16.280   6.8410  0.00  0.00     0.000 N
ATOM     16  HD  NAG B   1      12.099  16.083   7.2820  0.00  0.00     0.000 HD
ATOM     16   C  NAG B   1      11.901  17.213   7.1520  0.00  0.00     0.000 C
ATOM     17   C  NAG B   1      12.340  18.540   7.7120  0.00  0.00     0.000 C
ATOM     18   O  NAG B   1      10.701  17.017   6.9620  0.00  0.00     0.000 OA
ENDBRANCH 2 16
BRANCH 1 19
ATOM     19  O4  BDP B   2      13.951  15.104   8.8160  0.00  0.00     0.000 O
BRANCH 19 23
ATOM     20  C1  BDP B   2      12.881  12.015  11.3170  0.00  0.00     0.000 C
ATOM     21  C2  BDP B   2      14.057  12.861  11.7580  0.00  0.00     0.000 C
ATOM     22  C3  BDP B   2      14.094  14.177  11.0150  0.00  0.00     0.000 C
ATOM     23  C4  BDP B   2      14.058  13.888   9.5170  0.00  0.00     0.000 C
ATOM     24  C5  BDP B   2      12.837  13.048   9.1950  0.00  0.00     0.000 C
ATOM     25  O5  BDP B   2      12.900  11.828   9.9080  0.00  0.00     0.000 O
ATOM     26   O  BDP B   2      13.994  13.100  13.1470  0.00  0.00     0.000 O
ATOM     28  HD  BDP B   2      13.388  12.488  13.0650  0.00  0.00     0.000 HD
ATOM     28   O  BDP B   2      15.273  14.903  11.3960  0.00  0.00     0.000 O
ATOM     30  HD  BDP B   2      14.667  14.290  11.3140  0.00  0.00     0.000 HD
BRANCH 24 30
ATOM     30   C  BDP B   2      12.747  12.719   7.7480  0.00  0.00     0.000 C
ATOM     31   O  BDP B   2      13.539  11.856   7.3050  0.00  0.00     0.000 OA
ATOM     32   O  BDP B   2      11.890  13.327   7.0460  0.00  0.00     0.000 OA
ENDBRANCH 24 30
BRANCH 20 33
ATOM     33  O3  NAG B   3      13.096  10.777  11.9500  0.00  0.00     0.000 O
BRANCH 33 36
ATOM     34  C1  NAG B   3      10.566   8.639  13.7340  0.00  0.00     0.000 C
ATOM     35  C2  NAG B   3      11.728   9.600  13.5640  0.00  0.00     0.000 C
ATOM     36  C3  NAG B   3      11.879  10.041  12.1000  0.00  0.00     0.000 C
ATOM     37  C4  NAG B   3      11.934   8.807  11.2030  0.00  0.00     0.000 C
ATOM     38  C5  NAG B   3      10.768   7.873  11.5170  0.00  0.00     0.000 C
ATOM     39  O5  NAG B   3      10.789   7.519  12.8890  0.00  0.00     0.000 O
ATOM     40   O  NAG B   3      11.872   9.201   9.8230  0.00  0.00     0.000 O
ATOM     42  HD  NAG B   3      11.211   8.641   9.8210  0.00  0.00     0.000 HD
ATOM     42   C  NAG B   3      10.816   6.550  10.7560  0.00  0.00     0.000 C
ATOM     43   O  NAG B   3      11.955   5.792  11.1840  0.00  0.00     0.000 O
ATOM     45  HD  NAG B   3      11.294   5.233  11.1820  0.00  0.00     0.000 HD
BRANCH 35 47
ATOM     45   N  NAG B   3      12.604  10.015  14.6520  0.00  0.00     0.000 N
ATOM     47  HD  NAG B   3      13.015   9.541  14.0550  0.00  0.00     0.000 HD
ATOM     47   C  NAG B   3      12.523  11.199  15.2260  0.00  0.00     0.000 C
ATOM     48   C  NAG B   3      13.514  11.474  16.3180  0.00  0.00     0.000 C
ATOM     49   O  NAG B   3      11.700  12.040  14.8700  0.00  0.00     0.000 OA
ENDBRANCH 35 47
BRANCH 34 50
ATOM     50  O4  BDP B   4      10.645   8.256  15.0910  0.00  0.00     0.000 O
BRANCH 50 54
ATOM     51  C1  BDP B   4       9.086   5.805  17.9390  0.00  0.00     0.000 C
ATOM     52  C2  BDP B   4       9.689   5.079  16.7420  0.00  0.00     0.000 C
ATOM     53  C3  BDP B   4      10.540   6.044  15.9750  0.00  0.00     0.000 C
ATOM     54  C4  BDP B   4       9.700   7.296  15.5910  0.00  0.00     0.000 C
ATOM     55  C5  BDP B   4       8.950   7.877  16.7820  0.00  0.00     0.000 C
ATOM     56  O5  BDP B   4       8.249   6.850  17.4790  0.00  0.00     0.000 O
ATOM     57   O  BDP B   4      10.484   3.996  17.1760  0.00  0.00     0.000 O
ATOM     59  HD  BDP B   4       9.997   3.295  17.0300  0.00  0.00     0.000 HD
ATOM     59   O  BDP B   4      10.933   5.381  14.7560  0.00  0.00     0.000 O
ATOM     61  HD  BDP B   4      10.445   4.680  14.6100  0.00  0.00     0.000 HD
BRANCH 55 61
ATOM     61   C  BDP B   4       7.956   8.914  16.2900  0.00  0.00     0.000 C
ATOM     62   O  BDP B   4       7.735   9.914  17.0210  0.00  0.00     0.000 OA
ATOM     63   O  BDP B   4       7.398   8.725  15.1660  0.00  0.00     0.000 OA
ENDBRANCH 55 61
BRANCH 51 64
ATOM     64  O3  NAG B   5       8.328   4.836  18.6890  0.00  0.00     0.000 O
BRANCH 64 67
ATOM     65  C1  NAG B   5       7.658   5.209  22.2950  0.00  0.00     0.000 C
ATOM     66  C2  NAG B   5       8.413   4.847  21.0280  0.00  0.00     0.000 C
ATOM     67  C3  NAG B   5       7.682   5.402  19.8120  0.00  0.00     0.000 C
ATOM     68  C4  NAG B   5       6.205   4.981  19.8180  0.00  0.00     0.000 C
ATOM     69  C5  NAG B   5       5.561   5.300  21.1580  0.00  0.00     0.000 C
ATOM     70  O5  NAG B   5       6.336   4.728  22.2210  0.00  0.00     0.000 O
ATOM     71   O  NAG B   5       5.543   5.643  18.7610  0.00  0.00     0.000 O
ATOM     73  HD  NAG B   5       5.178   4.864  18.6630  0.00  0.00     0.000 HD
ATOM     73   C  NAG B   5       4.117   4.799  21.3000  0.00  0.00     0.000 C
ATOM     74   O  NAG B   5       4.098   3.357  21.2430  0.00  0.00     0.000 O
ATOM     76  HD  NAG B   5       3.732   2.578  21.1450  0.00  0.00     0.000 HD
BRANCH 66 78
ATOM     76   N  NAG B   5       9.766   5.281  21.4240  0.00  0.00     0.000 N
ATOM     78  HD  NAG B   5       9.407   4.602  21.0250  0.00  0.00     0.000 HD
ATOM     78   C  NAG B   5      10.921   4.718  21.0350  0.00  0.00     0.000 C
ATOM     79   C  NAG B   5      12.140   5.402  21.5940  0.00  0.00     0.000 C
ATOM     80   O  NAG B   5      10.980   3.691  20.2690  0.00  0.00     0.000 OA
ENDBRANCH 66 78
BRANCH 65 81
ATOM     81  O4  BDP B   6       8.317   4.649  23.4380  0.00  0.00     0.000 O
BRANCH 81 85
ATOM     82  C1  BDP B   6       8.467   5.156  27.6910  0.00  0.00     0.000 C
ATOM     83  C2  BDP B   6       7.348   4.289  27.1230  0.00  0.00     0.000 C
ATOM     84  C3  BDP B   6       7.613   3.841  25.6830  0.00  0.00     0.000 C
ATOM     85  C4  BDP B   6       7.969   5.020  24.7740  0.00  0.00     0.000 C
ATOM     86  C5  BDP B   6       9.083   5.838  25.4700  0.00  0.00     0.000 C
ATOM     87  O5  BDP B   6       8.694   6.253  26.8180  0.00  0.00     0.000 O
ATOM     88   O  BDP B   6       7.283   3.146  27.9730  0.00  0.00     0.000 O
ATOM     90  HD  BDP B   6       7.188   2.287  27.9290  0.00  0.00     0.000 HD
ATOM     90   O  BDP B   6       6.476   3.133  25.1830  0.00  0.00     0.000 O
ATOM     92  HD  BDP B   6       6.381   2.274  25.1400  0.00  0.00     0.000 HD
BRANCH 86 92
ATOM     92   C  BDP B   6       9.315   7.141  24.7440  0.00  0.00     0.000 C
ATOM     93   O  BDP B   6       8.559   8.131  24.9830  0.00  0.00     0.000 OA
ATOM     94   O  BDP B   6      10.288   7.193  23.9300  0.00  0.00     0.000 OA
ENDBRANCH 86 92
BRANCH 82 95
ATOM     95  O3  NAG B   7       8.034   5.682  28.9610  0.00  0.00     0.000 O
BRANCH 95 98
ATOM     96  C1  NAG B   7       9.255   5.672  32.4030  0.00  0.00     0.000 C
ATOM     97  C2  NAG B   7       8.220   5.559  31.2920  0.00  0.00     0.000 C
ATOM     98  C3  NAG B   7       8.991   5.851  30.0060  0.00  0.00     0.000 C
ATOM     99  C4  NAG B   7       9.592   7.253  30.0680  0.00  0.00     0.000 C
ATOM    100  C5  NAG B   7      10.436   7.429  31.3310  0.00  0.00     0.000 C
ATOM    101  O5  NAG B   7       9.665   7.044  32.4580  0.00  0.00     0.000 O
BRANCH 97 104
ATOM    102   N  NAG B   7       7.627   4.233  31.0650  0.00  0.00     0.000 N
ATOM    104  HD  NAG B   7       7.381   3.492  30.6920  0.00  0.00     0.000 HD
ATOM    104   O  NAG B   7       5.972   2.699  30.8810  0.00  0.00     0.000 OA
ATOM    105   C  NAG B   7       6.338   3.856  31.1640  0.00  0.00     0.000 C
ATOM    106   C  NAG B   7       5.324   4.853  31.6110  0.00  0.00     0.000 C
ENDBRANCH 97 104
ATOM    107   O  NAG B   7      11.908   8.886  32.4340  0.00  0.00     0.000 O
ATOM    109  HD  NAG B   7      11.739   8.057  32.2480  0.00  0.00     0.000 HD
ATOM    109   O  NAG B   7      11.908   8.886  32.4340  0.00  0.00     0.000 O
ATOM    111  HD  NAG B   7      11.739   8.057  32.2480  0.00  0.00     0.000 HD
ENDBRANCH 95 98
ENDBRANCH 82 95
ENDBRANCH 81 85
ENDBRANCH 65 81
ENDBRANCH 64 67
ENDBRANCH 51 64
ENDBRANCH 50 54
ENDBRANCH 34 50
ENDBRANCH 33 36
ENDBRANCH 20 33
ENDBRANCH 19 23
ENDBRANCH 1 19
TORSDOF 19
ENDMDL
MODEL 77
REMARK VINA RESULT:      -5.2      8.250     14.864
ROOT
ATOM      1  C1  NAG B   1       4.019  17.379  25.1380  0.00  0.00     0.000 C
ATOM      2  C2  NAG B   1       4.346  18.869  25.1660  0.00  0.00     0.000 C
ATOM      3  C3  NAG B   1       3.124  19.709  25.4780  0.00  0.00     0.000 C
ATOM      4  C4  NAG B   1       2.102  19.357  24.4020  0.00  0.00     0.000 C
ATOM      5  C5  NAG B   1       1.729  17.875  24.5270  0.00  0.00     0.000 C
ATOM      6  O5  NAG B   1       2.883  17.030  24.3320  0.00  0.00     0.000 O
ATOM      7   O  NAG B   1       3.418  21.125  25.4670  0.00  0.00     0.000 O
ATOM      9  HD  NAG B   1       4.150  20.784  25.7810  0.00  0.00     0.000 HD
ATOM      9   O  NAG B   1       0.942  20.159  24.5510  0.00  0.00     0.000 O
ATOM     11  HD  NAG B   1       1.674  19.818  24.8650  0.00  0.00     0.000 HD
ATOM     11   C  NAG B   1       0.602  17.533  23.5450  0.00  0.00     0.000 C
ATOM     12   O  NAG B   1       0.664  16.166  23.1410  0.00  0.00     0.000 O
ATOM     14  HD  NAG B   1       1.396  15.826  23.4550  0.00  0.00     0.000 HD
ENDROOT
BRANCH 2 16
ATOM     14   N  NAG B   1       5.473  19.053  26.0980  0.00  0.00     0.000 N
ATOM     16  HD  NAG B   1       6.223  18.702  26.3500  0.00  0.00     0.000 HD
ATOM     16   C  NAG B   1       6.656  19.571  25.7270  0.00  0.00     0.000 C
ATOM     17   C  NAG B   1       6.887  19.968  24.2930  0.00  0.00     0.000 C
ATOM     18   O  NAG B   1       7.557  19.756  26.5450  0.00  0.00     0.000 OA
ENDBRANCH 2 16
BRANCH 1 19
ATOM     19  O4  BDP B   2       5.149  16.812  24.4890  0.00  0.00     0.000 O
BRANCH 19 23
ATOM     20  C1  BDP B   2       5.777  14.463  21.1670  0.00  0.00     0.000 C
ATOM     21  C2  BDP B   2       5.332  15.887  20.9100  0.00  0.00     0.000 C
ATOM     22  C3  BDP B   2       5.539  16.755  22.1310  0.00  0.00     0.000 C
ATOM     23  C4  BDP B   2       4.850  16.089  23.3180  0.00  0.00     0.000 C
ATOM     24  C5  BDP B   2       5.382  14.679  23.4840  0.00  0.00     0.000 C
ATOM     25  O5  BDP B   2       5.121  13.933  22.3110  0.00  0.00     0.000 O
ATOM     26   O  BDP B   2       6.039  16.430  19.8150  0.00  0.00     0.000 O
ATOM     28  HD  BDP B   2       6.255  15.595  19.7430  0.00  0.00     0.000 HD
ATOM     28   O  BDP B   2       5.018  18.068  21.8710  0.00  0.00     0.000 O
ATOM     30  HD  BDP B   2       5.234  17.233  21.7990  0.00  0.00     0.000 HD
BRANCH 24 30
ATOM     30   C  BDP B   2       4.742  13.967  24.6210  0.00  0.00     0.000 C
ATOM     31   O  BDP B   2       5.467  13.682  25.6020  0.00  0.00     0.000 OA
ATOM     32   O  BDP B   2       3.513  13.682  24.5380  0.00  0.00     0.000 OA
ENDBRANCH 24 30
BRANCH 20 33
ATOM     33  O3  NAG B   3       5.353  13.761  20.0240  0.00  0.00     0.000 O
BRANCH 33 36
ATOM     34  C1  NAG B   3       7.197  10.733  18.7670  0.00  0.00     0.000 C
ATOM     35  C2  NAG B   3       6.846  12.200  18.9320  0.00  0.00     0.000 C
ATOM     36  C3  NAG B   3       5.801  12.404  20.0390  0.00  0.00     0.000 C
ATOM     37  C4  NAG B   3       4.608  11.486  19.7840  0.00  0.00     0.000 C
ATOM     38  C5  NAG B   3       5.082  10.055  19.5480  0.00  0.00     0.000 C
ATOM     39  O5  NAG B   3       6.004  10.022  18.4710  0.00  0.00     0.000 O
ATOM     40   O  NAG B   3       3.716  11.515  20.9090  0.00  0.00     0.000 O
ATOM     42  HD  NAG B   3       3.834  10.658  20.8670  0.00  0.00     0.000 HD
ATOM     42   C  NAG B   3       3.965   9.091  19.1550  0.00  0.00     0.000 C
ATOM     43   O  NAG B   3       3.437   9.465  17.8770  0.00  0.00     0.000 O
ATOM     45  HD  NAG B   3       3.555   8.609  17.8350  0.00  0.00     0.000 HD
BRANCH 35 47
ATOM     45   N  NAG B   3       7.353  13.317  18.1460  0.00  0.00     0.000 N
ATOM     47  HD  NAG B   3       6.493  13.236  18.0930  0.00  0.00     0.000 HD
ATOM     47   C  NAG B   3       8.345  14.086  18.5490  0.00  0.00     0.000 C
ATOM     48   C  NAG B   3       8.731  15.205  17.6280  0.00  0.00     0.000 C
ATOM     49   O  NAG B   3       8.906  13.913  19.6300  0.00  0.00     0.000 OA
ENDBRANCH 35 47
BRANCH 34 50
ATOM     50  O4  BDP B   4       8.066  10.721  17.6540  0.00  0.00     0.000 O
BRANCH 50 54
ATOM     51  C1  BDP B   4      10.209   8.332  15.1530  0.00  0.00     0.000 C
ATOM     52  C2  BDP B   4       8.709   8.351  14.8780  0.00  0.00     0.000 C
ATOM     53  C3  BDP B   4       8.105   9.520  15.5940  0.00  0.00     0.000 C
ATOM     54  C4  BDP B   4       8.465   9.453  17.1060  0.00  0.00     0.000 C
ATOM     55  C5  BDP B   4       9.954   9.233  17.3380  0.00  0.00     0.000 C
ATOM     56  O5  BDP B   4      10.428   8.152  16.5400  0.00  0.00     0.000 O
ATOM     57   O  BDP B   4       8.467   8.474  13.4930  0.00  0.00     0.000 O
ATOM     59  HD  BDP B   4       8.244   7.677  13.2390  0.00  0.00     0.000 HD
ATOM     59   O  BDP B   4       6.674   9.393  15.4710  0.00  0.00     0.000 O
ATOM     61  HD  BDP B   4       6.451   8.596  15.2170  0.00  0.00     0.000 HD
BRANCH 55 61
ATOM     61   C  BDP B   4      10.190   8.914  18.8030  0.00  0.00     0.000 C
ATOM     62   O  BDP B   4      10.694   9.810  19.5290  0.00  0.00     0.000 OA
ATOM     63   O  BDP B   4       9.868   7.762  19.2260  0.00  0.00     0.000 OA
ENDBRANCH 55 61
BRANCH 51 64
ATOM     64  O3  NAG B   5      10.767   7.238  14.4010  0.00  0.00     0.000 O
BRANCH 64 67
ATOM     65  C1  NAG B   5      13.864   7.500  12.4170  0.00  0.00     0.000 C
ATOM     66  C2  NAG B   5      12.384   7.591  12.7450  0.00  0.00     0.000 C
ATOM     67  C3  NAG B   5      12.167   7.350  14.2340  0.00  0.00     0.000 C
ATOM     68  C4  NAG B   5      12.842   6.048  14.6860  0.00  0.00     0.000 C
ATOM     69  C5  NAG B   5      14.293   6.009  14.2320  0.00  0.00     0.000 C
ATOM     70  O5  NAG B   5      14.370   6.248  12.8190  0.00  0.00     0.000 O
ATOM     71   O  NAG B   5      12.742   5.952  16.0910  0.00  0.00     0.000 O
ATOM     73  HD  NAG B   5      12.561   5.126  15.9000  0.00  0.00     0.000 HD
ATOM     73   C  NAG B   5      15.013   4.687  14.5300  0.00  0.00     0.000 C
ATOM     74   O  NAG B   5      14.391   3.619  13.7850  0.00  0.00     0.000 O
ATOM     76  HD  NAG B   5      14.210   2.794  13.5950  0.00  0.00     0.000 HD
BRANCH 66 78
ATOM     76   N  NAG B   5      11.938   8.930  12.3150  0.00  0.00     0.000 N
ATOM     78  HD  NAG B   5      11.778   8.106  12.1010  0.00  0.00     0.000 HD
ATOM     78   C  NAG B   5      10.903   9.194  11.5020  0.00  0.00     0.000 C
ATOM     79   C  NAG B   5      10.687  10.664  11.2640  0.00  0.00     0.000 C
ATOM     80   O  NAG B   5      10.174   8.281  10.9730  0.00  0.00     0.000 OA
ENDBRANCH 66 78
BRANCH 65 81
ATOM     81  O4  BDP B   6      14.069   7.680  11.0100  0.00  0.00     0.000 O
BRANCH 81 85
ATOM     82  C1  BDP B   6      17.028   9.129   8.2690  0.00  0.00     0.000 C
ATOM     83  C2  BDP B   6      17.450   8.041   9.2530  0.00  0.00     0.000 C
ATOM     84  C3  BDP B   6      16.259   7.318   9.8880  0.00  0.00     0.000 C
ATOM     85  C4  BDP B   6      15.247   8.297  10.4860  0.00  0.00     0.000 C
ATOM     86  C5  BDP B   6      14.926   9.364   9.4120  0.00  0.00     0.000 C
ATOM     87  O5  BDP B   6      16.137  10.024   8.9200  0.00  0.00     0.000 O
ATOM     88   O  BDP B   6      18.219   7.116   8.4900  0.00  0.00     0.000 O
ATOM     90  HD  BDP B   6      18.330   6.263   8.3910  0.00  0.00     0.000 HD
ATOM     90   O  BDP B   6      16.728   6.398  10.8770  0.00  0.00     0.000 O
ATOM     92  HD  BDP B   6      16.840   5.545  10.7780  0.00  0.00     0.000 HD
BRANCH 86 92
ATOM     92   C  BDP B   6      14.121  10.492  10.0110  0.00  0.00     0.000 C
ATOM     93   O  BDP B   6      14.268  10.782  11.2360  0.00  0.00     0.000 OA
ATOM     94   O  BDP B   6      13.334  11.124   9.2390  0.00  0.00     0.000 OA
ENDBRANCH 86 92
BRANCH 82 95
ATOM     95  O3  NAG B   7      18.200   9.873   7.8850  0.00  0.00     0.000 O
BRANCH 95 98
ATOM     96  C1  NAG B   7      19.130  11.357   4.6800  0.00  0.00     0.000 C
ATOM     97  C2  NAG B   7      19.263  10.416   5.8700  0.00  0.00     0.000 C
ATOM     98  C3  NAG B   7      18.113  10.797   6.8010  0.00  0.00     0.000 C
ATOM     99  C4  NAG B   7      18.250  12.257   7.2250  0.00  0.00     0.000 C
ATOM    100  C5  NAG B   7      18.366  13.171   6.0050  0.00  0.00     0.000 C
ATOM    101  O5  NAG B   7      19.394  12.681   5.1580  0.00  0.00     0.000 O
BRANCH 97 104
ATOM    102   N  NAG B   7      19.639   9.003   6.0160  0.00  0.00     0.000 N
ATOM    104  HD  NAG B   7      20.093   8.266   6.0220  0.00  0.00     0.000 HD
ATOM    104   O  NAG B   7      19.595   6.783   5.5730  0.00  0.00     0.000 OA
ATOM    105   C  NAG B   7      19.130   7.925   5.3900  0.00  0.00     0.000 C
ATOM    106   C  NAG B   7      17.992   8.106   4.4440  0.00  0.00     0.000 C
ENDBRANCH 97 104
ATOM    107   O  NAG B   7      18.431  15.415   5.3220  0.00  0.00     0.000 O
ATOM    109  HD  NAG B   7      18.132  14.625   5.1310  0.00  0.00     0.000 HD
ATOM    109   O  NAG B   7      18.431  15.415   5.3220  0.00  0.00     0.000 O
ATOM    111  HD  NAG B   7      18.132  14.625   5.1310  0.00  0.00     0.000 HD
ENDBRANCH 95 98
ENDBRANCH 82 95
ENDBRANCH 81 85
ENDBRANCH 65 81
ENDBRANCH 64 67
ENDBRANCH 51 64
ENDBRANCH 50 54
ENDBRANCH 34 50
ENDBRANCH 33 36
ENDBRANCH 20 33
ENDBRANCH 19 23
ENDBRANCH 1 19
TORSDOF 19
ENDMDL
MODEL 78
REMARK VINA RESULT:      -5.2      4.323     15.597
ROOT
ATOM      1  C1  NAG B   1       5.567  20.931   8.4100  0.00  0.00     0.000 C
ATOM      2  C2  NAG B   1       5.287  21.094   6.9190  0.00  0.00     0.000 C
ATOM      3  C3  NAG B   1       3.861  21.532   6.6570  0.00  0.00     0.000 C
ATOM      4  C4  NAG B   1       2.982  20.464   7.3010  0.00  0.00     0.000 C
ATOM      5  C5  NAG B   1       3.228  20.456   8.8150  0.00  0.00     0.000 C
ATOM      6  O5  NAG B   1       4.603  20.136   9.1170  0.00  0.00     0.000 O
ATOM      7   O  NAG B   1       3.577  21.651   5.2440  0.00  0.00     0.000 O
ATOM      9  HD  NAG B   1       4.404  21.903   5.2900  0.00  0.00     0.000 HD
ATOM      9   O  NAG B   1       1.615  20.733   7.0380  0.00  0.00     0.000 O
ATOM     11  HD  NAG B   1       2.442  20.985   7.0840  0.00  0.00     0.000 HD
ATOM     11   C  NAG B   1       2.256  19.485   9.4980  0.00  0.00     0.000 C
ATOM     12   O  NAG B   1       2.817  18.946  10.6930  0.00  0.00     0.000 O
ATOM     14  HD  NAG B   1       3.644  19.198  10.7390  0.00  0.00     0.000 HD
ENDROOT
BRANCH 2 16
ATOM     14   N  NAG B   1       6.389  21.954   6.4500  0.00  0.00     0.000 N
ATOM     16  HD  NAG B   1       7.249  22.051   6.4810  0.00  0.00     0.000 HD
ATOM     16   C  NAG B   1       7.174  21.639   5.4060  0.00  0.00     0.000 C
ATOM     17   C  NAG B   1       6.964  20.340   4.6730  0.00  0.00     0.000 C
ATOM     18   O  NAG B   1       8.053  22.406   5.0130  0.00  0.00     0.000 OA
ENDBRANCH 2 16
BRANCH 1 19
ATOM     19  O4  BDP B   2       6.779  20.189   8.4330  0.00  0.00     0.000 O
BRANCH 19 23
ATOM     20  C1  BDP B   2       9.937  20.690  11.0240  0.00  0.00     0.000 C
ATOM     21  C2  BDP B   2       8.709  21.537  11.2880  0.00  0.00     0.000 C
ATOM     22  C3  BDP B   2       7.499  20.986  10.5680  0.00  0.00     0.000 C
ATOM     23  C4  BDP B   2       7.846  20.829   9.0910  0.00  0.00     0.000 C
ATOM     24  C5  BDP B   2       9.078  19.957   8.9520  0.00  0.00     0.000 C
ATOM     25  O5  BDP B   2      10.164  20.561   9.6280  0.00  0.00     0.000 O
ATOM     26   O  BDP B   2       8.449  21.604  12.6730  0.00  0.00     0.000 O
ATOM     28  HD  BDP B   2       9.240  21.253  12.6790  0.00  0.00     0.000 HD
ATOM     28   O  BDP B   2       6.385  21.870  10.7700  0.00  0.00     0.000 O
ATOM     30  HD  BDP B   2       7.177  21.519  10.7750  0.00  0.00     0.000 HD
BRANCH 24 30
ATOM     30   C  BDP B   2       9.479  19.772   7.5320  0.00  0.00     0.000 C
ATOM     31   O  BDP B   2       9.185  18.682   6.9900  0.00  0.00     0.000 OA
ATOM     32   O  BDP B   2      10.097  20.711   6.9550  0.00  0.00     0.000 OA
ENDBRANCH 24 30
BRANCH 20 33
ATOM     33  O3  NAG B   3      10.989  21.428  11.5980  0.00  0.00     0.000 O
BRANCH 33 36
ATOM     34  C1  NAG B   3      14.011  19.656  12.9670  0.00  0.00     0.000 C
ATOM     35  C2  NAG B   3      12.607  20.229  12.9410  0.00  0.00     0.000 C
ATOM     36  C3  NAG B   3      12.228  20.719  11.5350  0.00  0.00     0.000 C
ATOM     37  C4  NAG B   3      13.312  21.662  11.0200  0.00  0.00     0.000 C
ATOM     38  C5  NAG B   3      14.689  21.020  11.1720  0.00  0.00     0.000 C
ATOM     39  O5  NAG B   3      14.909  20.664  12.5260  0.00  0.00     0.000 O
ATOM     40   O  NAG B   3      13.079  21.970   9.6370  0.00  0.00     0.000 O
ATOM     42  HD  NAG B   3      13.894  21.689   9.5640  0.00  0.00     0.000 HD
ATOM     42   C  NAG B   3      15.845  21.945  10.8010  0.00  0.00     0.000 C
ATOM     43   O  NAG B   3      15.901  23.037  11.7270  0.00  0.00     0.000 O
ATOM     45  HD  NAG B   3      16.717  22.755  11.6550  0.00  0.00     0.000 HD
BRANCH 35 47
ATOM     45   N  NAG B   3      11.720  20.355  14.0910  0.00  0.00     0.000 N
ATOM     47  HD  NAG B   3      11.930  21.121  13.7470  0.00  0.00     0.000 HD
ATOM     47   C  NAG B   3      10.738  19.511  14.3360  0.00  0.00     0.000 C
ATOM     48   C  NAG B   3       9.908  19.797  15.5520  0.00  0.00     0.000 C
ATOM     49   O  NAG B   3      10.498  18.558  13.5970  0.00  0.00     0.000 OA
ENDBRANCH 35 47
BRANCH 34 50
ATOM     50  O4  BDP B   4      14.229  19.367  14.3320  0.00  0.00     0.000 O
BRANCH 50 54
ATOM     51  C1  BDP B   4      14.709  15.803  16.2360  0.00  0.00     0.000 C
ATOM     52  C2  BDP B   4      15.647  16.906  16.7140  0.00  0.00     0.000 C
ATOM     53  C3  BDP B   4      15.129  18.223  16.2220  0.00  0.00     0.000 C
ATOM     54  C4  BDP B   4      14.953  18.174  14.6760  0.00  0.00     0.000 C
ATOM     55  C5  BDP B   4      14.178  16.945  14.2200  0.00  0.00     0.000 C
ATOM     56  O5  BDP B   4      14.711  15.768  14.8200  0.00  0.00     0.000 O
ATOM     57   O  BDP B   4      15.705  16.924  18.1240  0.00  0.00     0.000 O
ATOM     59  HD  BDP B   4      16.462  16.550  18.3160  0.00  0.00     0.000 HD
ATOM     59   O  BDP B   4      16.136  19.210  16.5240  0.00  0.00     0.000 O
ATOM     61  HD  BDP B   4      16.893  18.836  16.7160  0.00  0.00     0.000 HD
BRANCH 55 61
ATOM     61   C  BDP B   4      14.276  16.824  12.7100  0.00  0.00     0.000 C
ATOM     62   O  BDP B   4      13.208  16.685  12.0580  0.00  0.00     0.000 OA
ATOM     63   O  BDP B   4      15.427  16.870  12.1770  0.00  0.00     0.000 OA
ENDBRANCH 55 61
BRANCH 51 64
ATOM     64  O3  NAG B   5      15.199  14.562  16.7790  0.00  0.00     0.000 O
BRANCH 64 67
ATOM     65  C1  NAG B   5      12.795  11.774  16.9930  0.00  0.00     0.000 C
ATOM     66  C2  NAG B   5      13.450  13.105  17.3220  0.00  0.00     0.000 C
ATOM     67  C3  NAG B   5      14.505  13.437  16.2760  0.00  0.00     0.000 C
ATOM     68  C4  NAG B   5      15.487  12.271  16.0930  0.00  0.00     0.000 C
ATOM     69  C5  NAG B   5      14.737  10.969  15.8600  0.00  0.00     0.000 C
ATOM     70  O5  NAG B   5      13.775  10.765  16.9060  0.00  0.00     0.000 O
ATOM     71   O  NAG B   5      16.345  12.568  15.0120  0.00  0.00     0.000 O
ATOM     73  HD  NAG B   5      16.938  12.240  15.5510  0.00  0.00     0.000 HD
ATOM     73   C  NAG B   5      15.635   9.726  15.7940  0.00  0.00     0.000 C
ATOM     74   O  NAG B   5      16.282   9.527  17.0680  0.00  0.00     0.000 O
ATOM     76  HD  NAG B   5      16.876   9.200  17.6070  0.00  0.00     0.000 HD
BRANCH 66 78
ATOM     76   N  NAG B   5      12.244  13.931  17.5230  0.00  0.00     0.000 N
ATOM     78  HD  NAG B   5      13.002  13.805  17.9200  0.00  0.00     0.000 HD
ATOM     78   C  NAG B   5      12.117  14.946  18.3920  0.00  0.00     0.000 C
ATOM     79   C  NAG B   5      10.767  15.608  18.3490  0.00  0.00     0.000 C
ATOM     80   O  NAG B   5      13.054  15.310  19.1890  0.00  0.00     0.000 OA
ENDBRANCH 66 78
BRANCH 65 81
ATOM     81  O4  BDP B   6      11.834  11.435  18.0000  0.00  0.00     0.000 O
BRANCH 81 85
ATOM     82  C1  BDP B   6       8.142   9.280  18.2950  0.00  0.00     0.000 C
ATOM     83  C2  BDP B   6       9.423   8.539  18.6690  0.00  0.00     0.000 C
ATOM     84  C3  BDP B   6      10.602   9.481  18.9240  0.00  0.00     0.000 C
ATOM     85  C4  BDP B   6      10.804  10.470  17.7740  0.00  0.00     0.000 C
ATOM     86  C5  BDP B   6       9.437  11.127  17.4660  0.00  0.00     0.000 C
ATOM     87  O5  BDP B   6       8.403  10.130  17.1870  0.00  0.00     0.000 O
ATOM     88   O  BDP B   6       9.115   7.826  19.8640  0.00  0.00     0.000 O
ATOM     90  HD  BDP B   6       9.462   7.631  20.6330  0.00  0.00     0.000 HD
ATOM     90   O  BDP B   6      11.787   8.715  19.1550  0.00  0.00     0.000 O
ATOM     92  HD  BDP B   6      12.134   8.520  19.9240  0.00  0.00     0.000 HD
BRANCH 86 92
ATOM     92   C  BDP B   6       9.512  11.933  16.1920  0.00  0.00     0.000 C
ATOM     93   O  BDP B   6       9.299  13.183  16.2310  0.00  0.00     0.000 OA
ATOM     94   O  BDP B   6       9.813  11.315  15.1240  0.00  0.00     0.000 OA
ENDBRANCH 86 92
BRANCH 82 95
ATOM     95  O3  NAG B   7       7.159   8.308  17.8850  0.00  0.00     0.000 O
BRANCH 95 98
ATOM     96  C1  NAG B   7       3.635   7.827  18.7170  0.00  0.00     0.000 C
ATOM     97  C2  NAG B   7       5.102   7.437  18.5870  0.00  0.00     0.000 C
ATOM     98  C3  NAG B   7       5.775   8.650  17.9490  0.00  0.00     0.000 C
ATOM     99  C4  NAG B   7       5.149   8.934  16.5860  0.00  0.00     0.000 C
ATOM    100  C5  NAG B   7       3.631   9.078  16.7010  0.00  0.00     0.000 C
ATOM    101  O5  NAG B   7       3.113   7.951  17.3890  0.00  0.00     0.000 O
BRANCH 97 104
ATOM    102   N  NAG B   7       5.856   7.226  19.8300  0.00  0.00     0.000 N
ATOM    104  HD  NAG B   7       6.452   7.289  20.4550  0.00  0.00     0.000 HD
ATOM    104   O  NAG B   7       7.108   6.087  21.3360  0.00  0.00     0.000 OA
ATOM    105   C  NAG B   7       6.444   6.101  20.2800  0.00  0.00     0.000 C
ATOM    106   C  NAG B   7       6.309   4.845  19.4880  0.00  0.00     0.000 C
ENDBRANCH 97 104
ATOM    107   O  NAG B   7       1.690   9.649  15.5140  0.00  0.00     0.000 O
ATOM    109  HD  NAG B   7       2.099   9.712  16.2750  0.00  0.00     0.000 HD
ATOM    109   O  NAG B   7       1.690   9.649  15.5140  0.00  0.00     0.000 O
ATOM    111  HD  NAG B   7       2.099   9.712  16.2750  0.00  0.00     0.000 HD
ENDBRANCH 95 98
ENDBRANCH 82 95
ENDBRANCH 81 85
ENDBRANCH 65 81
ENDBRANCH 64 67
ENDBRANCH 51 64
ENDBRANCH 50 54
ENDBRANCH 34 50
ENDBRANCH 33 36
ENDBRANCH 20 33
ENDBRANCH 19 23
ENDBRANCH 1 19
TORSDOF 19
ENDMDL
MODEL 79
REMARK VINA RESULT:      -5.2     10.028     16.145
ROOT
ATOM      1  C1  NAG B   1      10.597   9.526  11.8510  0.00  0.00     0.000 C
ATOM      2  C2  NAG B   1      10.505   8.023  12.0990  0.00  0.00     0.000 C
ATOM      3  C3  NAG B   1       9.181   7.635  12.7250  0.00  0.00     0.000 C
ATOM      4  C4  NAG B   1       9.087   8.443  14.0150  0.00  0.00     0.000 C
ATOM      5  C5  NAG B   1       9.052   9.938  13.6700  0.00  0.00     0.000 C
ATOM      6  O5  NAG B   1      10.256  10.342  12.9840  0.00  0.00     0.000 O
ATOM      7   O  NAG B   1       9.102   6.217  12.9990  0.00  0.00     0.000 O
ATOM      9  HD  NAG B   1       9.568   6.241  12.2690  0.00  0.00     0.000 HD
ATOM      9   O  NAG B   1       7.914   8.088  14.7290  0.00  0.00     0.000 O
ATOM     11  HD  NAG B   1       8.380   8.112  13.9990  0.00  0.00     0.000 HD
ATOM     11   C  NAG B   1       8.819  10.763  14.9420  0.00  0.00     0.000 C
ATOM     12   O  NAG B   1       9.407  12.059  14.8330  0.00  0.00     0.000 O
ATOM     14  HD  NAG B   1       9.872  12.082  14.1030  0.00  0.00     0.000 HD
ENDROOT
BRANCH 2 16
ATOM     14   N  NAG B   1      10.826   7.380  10.8130  0.00  0.00     0.000 N
ATOM     16  HD  NAG B   1      11.370   7.418  10.1400  0.00  0.00     0.000 HD
ATOM     16   C  NAG B   1      11.828   6.497  10.6620  0.00  0.00     0.000 C
ATOM     17   C  NAG B   1      12.702   6.145  11.8370  0.00  0.00     0.000 C
ATOM     18   O  NAG B   1      12.035   5.943   9.5830  0.00  0.00     0.000 OA
ENDBRANCH 2 16
BRANCH 1 19
ATOM     19  O4  BDP B   2      11.985   9.733  11.6250  0.00  0.00     0.000 O
BRANCH 19 23
ATOM     20  C1  BDP B   2      14.293  12.702   9.9510  0.00  0.00     0.000 C
ATOM     21  C2  BDP B   2      13.683  13.005  11.3040  0.00  0.00     0.000 C
ATOM     22  C3  BDP B   2      13.229  11.740  11.9960  0.00  0.00     0.000 C
ATOM     23  C4  BDP B   2      12.306  10.977  11.0500  0.00  0.00     0.000 C
ATOM     24  C5  BDP B   2      13.025  10.722   9.7410  0.00  0.00     0.000 C
ATOM     25  O5  BDP B   2      13.386  11.956   9.1500  0.00  0.00     0.000 O
ATOM     26   O  BDP B   2      14.614  13.685  12.1190  0.00  0.00     0.000 O
ATOM     28  HD  BDP B   2      15.014  13.729  11.3520  0.00  0.00     0.000 HD
ATOM     28   O  BDP B   2      12.575  12.084  13.2280  0.00  0.00     0.000 O
ATOM     30  HD  BDP B   2      12.975  12.128  12.4620  0.00  0.00     0.000 HD
BRANCH 24 30
ATOM     30   C  BDP B   2      12.174   9.989   8.7660  0.00  0.00     0.000 C
ATOM     31   O  BDP B   2      11.091  10.524   8.4330  0.00  0.00     0.000 OA
ATOM     32   O  BDP B   2      12.580   8.873   8.3340  0.00  0.00     0.000 OA
ENDBRANCH 24 30
BRANCH 20 33
ATOM     33  O3  NAG B   3      14.486  13.969   9.3730  0.00  0.00     0.000 O
BRANCH 33 36
ATOM     34  C1  NAG B   3      16.632  14.103   6.2860  0.00  0.00     0.000 C
ATOM     35  C2  NAG B   3      16.291  13.985   7.7600  0.00  0.00     0.000 C
ATOM     36  C3  NAG B   3      14.774  13.875   7.9750  0.00  0.00     0.000 C
ATOM     37  C4  NAG B   3      14.076  15.022   7.2480  0.00  0.00     0.000 C
ATOM     38  C5  NAG B   3      14.556  15.101   5.8010  0.00  0.00     0.000 C
ATOM     39  O5  NAG B   3      15.965  15.244   5.7670  0.00  0.00     0.000 O
ATOM     40   O  NAG B   3      12.654  14.823   7.2700  0.00  0.00     0.000 O
ATOM     42  HD  NAG B   3      12.753  14.913   6.4140  0.00  0.00     0.000 HD
ATOM     42   C  NAG B   3      14.006  16.300   5.0340  0.00  0.00     0.000 C
ATOM     43   O  NAG B   3      14.519  17.510   5.6040  0.00  0.00     0.000 O
ATOM     45  HD  NAG B   3      14.618  17.600   4.7490  0.00  0.00     0.000 HD
BRANCH 35 47
ATOM     45   N  NAG B   3      17.234  14.015   8.8710  0.00  0.00     0.000 N
ATOM     47  HD  NAG B   3      16.661  14.664   8.9020  0.00  0.00     0.000 HD
ATOM     47   C  NAG B   3      17.670  12.926   9.4710  0.00  0.00     0.000 C
ATOM     48   C  NAG B   3      18.622  13.136  10.6110  0.00  0.00     0.000 C
ATOM     49   O  NAG B   3      17.298  11.804   9.1350  0.00  0.00     0.000 OA
ENDBRANCH 35 47
BRANCH 34 50
ATOM     50  O4  BDP B   4      18.030  14.306   6.2820  0.00  0.00     0.000 O
BRANCH 50 54
ATOM     51  C1  BDP B   4      21.456  13.744   4.1620  0.00  0.00     0.000 C
ATOM     52  C2  BDP B   4      20.417  14.614   3.4640  0.00  0.00     0.000 C
ATOM     53  C3  BDP B   4      19.397  15.045   4.4730  0.00  0.00     0.000 C
ATOM     54  C4  BDP B   4      18.797  13.795   5.1790  0.00  0.00     0.000 C
ATOM     55  C5  BDP B   4      19.873  12.846   5.6900  0.00  0.00     0.000 C
ATOM     56  O5  BDP B   4      20.829  12.580   4.6670  0.00  0.00     0.000 O
ATOM     57   O  BDP B   4      21.030  15.755   2.9030  0.00  0.00     0.000 O
ATOM     59  HD  BDP B   4      21.080  15.582   2.0560  0.00  0.00     0.000 HD
ATOM     59   O  BDP B   4      18.336  15.696   3.7450  0.00  0.00     0.000 O
ATOM     61  HD  BDP B   4      18.385  15.523   2.8980  0.00  0.00     0.000 HD
BRANCH 55 61
ATOM     61   C  BDP B   4      19.226  11.541   6.1200  0.00  0.00     0.000 C
ATOM     62   O  BDP B   4      19.709  10.943   7.1160  0.00  0.00     0.000 OA
ATOM     63   O  BDP B   4      18.230  11.117   5.4580  0.00  0.00     0.000 OA
ENDBRANCH 55 61
BRANCH 51 64
ATOM     64  O3  NAG B   5      22.455  13.402   3.1810  0.00  0.00     0.000 O
BRANCH 64 67
ATOM     65  C1  NAG B   5      26.029  13.134   4.0430  0.00  0.00     0.000 C
ATOM     66  C2  NAG B   5      24.712  13.789   3.6660  0.00  0.00     0.000 C
ATOM     67  C3  NAG B   5      23.583  12.769   3.7520  0.00  0.00     0.000 C
ATOM     68  C4  NAG B   5      23.921  11.505   2.9480  0.00  0.00     0.000 C
ATOM     69  C5  NAG B   5      25.295  10.978   3.3290  0.00  0.00     0.000 C
ATOM     70  O5  NAG B   5      26.270  12.024   3.2100  0.00  0.00     0.000 O
ATOM     71   O  NAG B   5      22.919  10.539   3.1840  0.00  0.00     0.000 O
ATOM     73  HD  NAG B   5      23.004  10.419   2.3310  0.00  0.00     0.000 HD
ATOM     73   C  NAG B   5      25.771   9.787   2.4850  0.00  0.00     0.000 C
ATOM     74   O  NAG B   5      25.929  10.201   1.1110  0.00  0.00     0.000 O
ATOM     76  HD  NAG B   5      26.014  10.080   0.2580  0.00  0.00     0.000 HD
BRANCH 66 78
ATOM     76   N  NAG B   5      24.689  14.959   4.5650  0.00  0.00     0.000 N
ATOM     78  HD  NAG B   5      24.594  14.804   3.7190  0.00  0.00     0.000 HD
ATOM     78   C  NAG B   5      24.277  16.195   4.2420  0.00  0.00     0.000 C
ATOM     79   C  NAG B   5      24.357  17.171   5.3840  0.00  0.00     0.000 C
ATOM     80   O  NAG B   5      23.864  16.514   3.0700  0.00  0.00     0.000 OA
ENDBRANCH 66 78
BRANCH 65 81
ATOM     81  O4  BDP B   6      27.102  14.078   3.9200  0.00  0.00     0.000 O
BRANCH 81 85
ATOM     82  C1  BDP B   6      31.085  14.689   5.3780  0.00  0.00     0.000 C
ATOM     83  C2  BDP B   6      30.913  13.810   4.1420  0.00  0.00     0.000 C
ATOM     84  C3  BDP B   6      29.547  13.984   3.4730  0.00  0.00     0.000 C
ATOM     85  C4  BDP B   6      28.397  13.833   4.4720  0.00  0.00     0.000 C
ATOM     86  C5  BDP B   6      28.701  14.741   5.6880  0.00  0.00     0.000 C
ATOM     87  O5  BDP B   6      30.010  14.447   6.2740  0.00  0.00     0.000 O
ATOM     88   O  BDP B   6      31.940  14.215   3.2410  0.00  0.00     0.000 O
ATOM     90  HD  BDP B   6      32.064  14.376   2.3990  0.00  0.00     0.000 HD
ATOM     90   O  BDP B   6      29.417  13.051   2.3980  0.00  0.00     0.000 O
ATOM     92  HD  BDP B   6      29.541  13.212   1.5560  0.00  0.00     0.000 HD
BRANCH 86 92
ATOM     92   C  BDP B   6      27.733  14.463   6.8110  0.00  0.00     0.000 C
ATOM     93   O  BDP B   6      27.922  13.461   7.5650  0.00  0.00     0.000 OA
ATOM     94   O  BDP B   6      26.768  15.274   6.9670  0.00  0.00     0.000 OA
ENDBRANCH 86 92
BRANCH 82 95
ATOM     95  O3  NAG B   7      32.307  14.309   6.0390  0.00  0.00     0.000 O
BRANCH 95 98
ATOM     96  C1  NAG B   7      35.361  15.978   7.1470  0.00  0.00     0.000 C
ATOM     97  C2  NAG B   7      34.532  14.876   6.5010  0.00  0.00     0.000 C
ATOM     98  C3  NAG B   7      33.081  15.309   6.7000  0.00  0.00     0.000 C
ATOM     99  C4  NAG B   7      32.776  15.437   8.1900  0.00  0.00     0.000 C
ATOM    100  C5  NAG B   7      33.781  16.364   8.8750  0.00  0.00     0.000 C
ATOM    101  O5  NAG B   7      35.095  15.935   8.5540  0.00  0.00     0.000 O
BRANCH 97 104
ATOM    102   N  NAG B   7      34.654  14.704   5.0470  0.00  0.00     0.000 N
ATOM    104  HD  NAG B   7      34.466  14.643   4.2040  0.00  0.00     0.000 HD
ATOM    104   O  NAG B   7      35.098  13.615   3.1110  0.00  0.00     0.000 OA
ATOM    105   C  NAG B   7      35.109  13.640   4.3580  0.00  0.00     0.000 C
ATOM    106   C  NAG B   7      35.624  12.458   5.1060  0.00  0.00     0.000 C
ENDBRANCH 97 104
ATOM    107   O  NAG B   7      34.283  17.448  10.8950  0.00  0.00     0.000 O
ATOM    109  HD  NAG B   7      34.280  17.523  10.0320  0.00  0.00     0.000 HD
ATOM    109   O  NAG B   7      34.283  17.448  10.8950  0.00  0.00     0.000 O
ATOM    111  HD  NAG B   7      34.280  17.523  10.0320  0.00  0.00     0.000 HD
ENDBRANCH 95 98
ENDBRANCH 82 95
ENDBRANCH 81 85
ENDBRANCH 65 81
ENDBRANCH 64 67
ENDBRANCH 51 64
ENDBRANCH 50 54
ENDBRANCH 34 50
ENDBRANCH 33 36
ENDBRANCH 20 33
ENDBRANCH 19 23
ENDBRANCH 1 19
TORSDOF 19
ENDMDL
MODEL 80
REMARK VINA RESULT:      -5.2      4.679      9.380
ROOT
ATOM      1  C1  NAG B   1      16.279   3.581  23.7370  0.00  0.00     0.000 C
ATOM      2  C2  NAG B   1      16.672   3.642  25.2100  0.00  0.00     0.000 C
ATOM      3  C3  NAG B   1      18.032   4.281  25.4060  0.00  0.00     0.000 C
ATOM      4  C4  NAG B   1      19.000   3.441  24.5790  0.00  0.00     0.000 C
ATOM      5  C5  NAG B   1      18.615   3.540  23.0980  0.00  0.00     0.000 C
ATOM      6  O5  NAG B   1      17.283   3.029  22.8710  0.00  0.00     0.000 O
ATOM      7   O  NAG B   1      18.428   4.306  26.7960  0.00  0.00     0.000 O
ATOM      9  HD  NAG B   1      17.571   4.422  26.8440  0.00  0.00     0.000 HD
ATOM      9   O  NAG B   1      20.328   3.905  24.7620  0.00  0.00     0.000 O
ATOM     11  HD  NAG B   1      19.471   4.020  24.8100  0.00  0.00     0.000 HD
ATOM     11   C  NAG B   1      19.655   2.814  22.2360  0.00  0.00     0.000 C
ATOM     12   O  NAG B   1      19.073   2.309  21.0360  0.00  0.00     0.000 O
ATOM     14  HD  NAG B   1      18.216   2.425  21.0840  0.00  0.00     0.000 HD
ENDROOT
BRANCH 2 16
ATOM     14   N  NAG B   1      15.675   3.014  26.0960  0.00  0.00     0.000 N
ATOM     16  HD  NAG B   1      15.538   2.770  26.9150  0.00  0.00     0.000 HD
ATOM     16   C  NAG B   1      14.878   3.717  26.9190  0.00  0.00     0.000 C
ATOM     17   C  NAG B   1      15.001   5.216  26.9850  0.00  0.00     0.000 C
ATOM     18   O  NAG B   1      14.022   3.162  27.6070  0.00  0.00     0.000 OA
ENDBRANCH 2 16
BRANCH 1 19
ATOM     19  O4  BDP B   2      15.202   2.655  23.7270  0.00  0.00     0.000 O
BRANCH 19 23
ATOM     20  C1  BDP B   2      13.486   4.066  20.2620  0.00  0.00     0.000 C
ATOM     21  C2  BDP B   2      13.051   4.735  21.5490  0.00  0.00     0.000 C
ATOM     22  C3  BDP B   2      14.021   4.446  22.6720  0.00  0.00     0.000 C
ATOM     23  C4  BDP B   2      14.198   2.934  22.7810  0.00  0.00     0.000 C
ATOM     24  C5  BDP B   2      14.644   2.381  21.4410  0.00  0.00     0.000 C
ATOM     25  O5  BDP B   2      13.667   2.670  20.4600  0.00  0.00     0.000 O
ATOM     26   O  BDP B   2      12.940   6.129  21.3630  0.00  0.00     0.000 O
ATOM     28  HD  BDP B   2      13.021   5.867  20.5410  0.00  0.00     0.000 HD
ATOM     28   O  BDP B   2      13.520   5.020  23.8900  0.00  0.00     0.000 O
ATOM     30  HD  BDP B   2      13.600   4.757  23.0680  0.00  0.00     0.000 HD
BRANCH 24 30
ATOM     30   C  BDP B   2      14.825   0.906  21.4750  0.00  0.00     0.000 C
ATOM     31   O  BDP B   2      15.950   0.458  21.1550  0.00  0.00     0.000 OA
ATOM     32   O  BDP B   2      13.842   0.187  21.8130  0.00  0.00     0.000 OA
ENDBRANCH 24 30
BRANCH 20 33
ATOM     33  O3  NAG B   3      12.403   4.272  19.3880  0.00  0.00     0.000 O
BRANCH 33 36
ATOM     34  C1  NAG B   3      12.899   4.526  15.6680  0.00  0.00     0.000 C
ATOM     35  C2  NAG B   3      12.809   4.986  17.1100  0.00  0.00     0.000 C
ATOM     36  C3  NAG B   3      12.688   3.793  18.0710  0.00  0.00     0.000 C
ATOM     37  C4  NAG B   3      11.543   2.891  17.6150  0.00  0.00     0.000 C
ATOM     38  C5  NAG B   3      11.689   2.561  16.1320  0.00  0.00     0.000 C
ATOM     39  O5  NAG B   3      11.742   3.757  15.3730  0.00  0.00     0.000 O
ATOM     40   O  NAG B   3      11.544   1.674  18.3770  0.00  0.00     0.000 O
ATOM     42  HD  NAG B   3      11.562   1.324  17.5860  0.00  0.00     0.000 HD
ATOM     42   C  NAG B   3      10.516   1.769  15.5580  0.00  0.00     0.000 C
ATOM     43   O  NAG B   3       9.332   2.575  15.5890  0.00  0.00     0.000 O
ATOM     45  HD  NAG B   3       9.351   2.225  14.7980  0.00  0.00     0.000 HD
BRANCH 35 47
ATOM     45   N  NAG B   3      12.779   6.355  17.6090  0.00  0.00     0.000 N
ATOM     47  HD  NAG B   3      12.077   5.902  17.8360  0.00  0.00     0.000 HD
ATOM     47   C  NAG B   3      13.852   6.982  18.0480  0.00  0.00     0.000 C
ATOM     48   C  NAG B   3      13.643   8.382  18.5450  0.00  0.00     0.000 C
ATOM     49   O  NAG B   3      14.956   6.443  18.0750  0.00  0.00     0.000 OA
ENDBRANCH 35 47
BRANCH 34 50
ATOM     50  O4  BDP B   4      12.890   5.731  14.9310  0.00  0.00     0.000 O
BRANCH 50 54
ATOM     51  C1  BDP B   4      13.493   7.374  11.2590  0.00  0.00     0.000 C
ATOM     52  C2  BDP B   4      12.181   6.611  11.4020  0.00  0.00     0.000 C
ATOM     53  C3  BDP B   4      11.912   6.389  12.8580  0.00  0.00     0.000 C
ATOM     54  C4  BDP B   4      13.128   5.675  13.5150  0.00  0.00     0.000 C
ATOM     55  C5  BDP B   4      14.448   6.357  13.1830  0.00  0.00     0.000 C
ATOM     56  O5  BDP B   4      14.550   6.590  11.7810  0.00  0.00     0.000 O
ATOM     57   O  BDP B   4      11.119   7.350  10.8370  0.00  0.00     0.000 O
ATOM     59  HD  BDP B   4      10.965   6.964  10.0770  0.00  0.00     0.000 HD
ATOM     59   O  BDP B   4      10.776   5.504  12.9450  0.00  0.00     0.000 O
ATOM     61  HD  BDP B   4      10.622   5.118  12.1860  0.00  0.00     0.000 HD
BRANCH 55 61
ATOM     61   C  BDP B   4      15.597   5.468  13.6250  0.00  0.00     0.000 C
ATOM     62   O  BDP B   4      15.858   4.451  12.9300  0.00  0.00     0.000 OA
ATOM     63   O  BDP B   4      16.238   5.791  14.6710  0.00  0.00     0.000 OA
ENDBRANCH 55 61
BRANCH 51 64
ATOM     64  O3  NAG B   5      13.689   7.627   9.8540  0.00  0.00     0.000 O
BRANCH 64 67
ATOM     65  C1  NAG B   5      14.776  10.900   8.5510  0.00  0.00     0.000 C
ATOM     66  C2  NAG B   5      13.833   9.824   9.0600  0.00  0.00     0.000 C
ATOM     67  C3  NAG B   5      14.633   8.651   9.6120  0.00  0.00     0.000 C
ATOM     68  C4  NAG B   5      15.668   8.161   8.5900  0.00  0.00     0.000 C
ATOM     69  C5  NAG B   5      16.502   9.322   8.0710  0.00  0.00     0.000 C
ATOM     70  O5  NAG B   5      15.642  10.360   7.5790  0.00  0.00     0.000 O
ATOM     71   O  NAG B   5      16.480   7.182   9.2030  0.00  0.00     0.000 O
ATOM     73  HD  NAG B   5      16.376   6.791   8.4380  0.00  0.00     0.000 HD
ATOM     73   C  NAG B   5      17.480   8.946   6.9490  0.00  0.00     0.000 C
ATOM     74   O  NAG B   5      16.741   8.507   5.7900  0.00  0.00     0.000 O
ATOM     76  HD  NAG B   5      16.637   8.115   5.0250  0.00  0.00     0.000 HD
BRANCH 66 78
ATOM     76   N  NAG B   5      12.978  10.402  10.1150  0.00  0.00     0.000 N
ATOM     78  HD  NAG B   5      12.882  10.116   9.3030  0.00  0.00     0.000 HD
ATOM     78   C  NAG B   5      11.637  10.450  10.1070  0.00  0.00     0.000 C
ATOM     79   C  NAG B   5      11.051  11.086  11.3380  0.00  0.00     0.000 C
ATOM     80   O  NAG B   5      10.924  10.005   9.1380  0.00  0.00     0.000 OA
ENDBRANCH 66 78
BRANCH 65 81
ATOM     81  O4  BDP B   6      14.028  11.986   7.9890  0.00  0.00     0.000 O
BRANCH 81 85
ATOM     82  C1  BDP B   6      14.366  16.215   7.3870  0.00  0.00     0.000 C
ATOM     83  C2  BDP B   6      15.594  15.360   7.0900  0.00  0.00     0.000 C
ATOM     84  C3  BDP B   6      15.262  13.873   6.9390  0.00  0.00     0.000 C
ATOM     85  C4  BDP B   6      14.446  13.346   8.1210  0.00  0.00     0.000 C
ATOM     86  C5  BDP B   6      13.256  14.310   8.3440  0.00  0.00     0.000 C
ATOM     87  O5  BDP B   6      13.700  15.692   8.5280  0.00  0.00     0.000 O
ATOM     88   O  BDP B   6      16.117  15.859   5.8620  0.00  0.00     0.000 O
ATOM     90  HD  BDP B   6      16.454  15.576   5.1160  0.00  0.00     0.000 HD
ATOM     90   O  BDP B   6      16.470  13.126   6.7770  0.00  0.00     0.000 O
ATOM     92  HD  BDP B   6      16.807  12.842   6.0310  0.00  0.00     0.000 HD
BRANCH 86 92
ATOM     92   C  BDP B   6      12.546  13.985   9.6360  0.00  0.00     0.000 C
ATOM     93   O  BDP B   6      13.224  13.638  10.6500  0.00  0.00     0.000 OA
ATOM     94   O  BDP B   6      11.281  14.099   9.6550  0.00  0.00     0.000 OA
ENDBRANCH 86 92
BRANCH 82 95
ATOM     95  O3  NAG B   7      14.808  17.549   7.7050  0.00  0.00     0.000 O
BRANCH 95 98
ATOM     96  C1  NAG B   7      13.382  20.822   6.9330  0.00  0.00     0.000 C
ATOM     97  C2  NAG B   7      14.436  19.723   6.9180  0.00  0.00     0.000 C
ATOM     98  C3  NAG B   7      13.847  18.602   7.7720  0.00  0.00     0.000 C
ATOM     99  C4  NAG B   7      13.589  19.110   9.1880  0.00  0.00     0.000 C
ATOM    100  C5  NAG B   7      12.723  20.370   9.1680  0.00  0.00     0.000 C
ATOM    101  O5  NAG B   7      13.302  21.311   8.2770  0.00  0.00     0.000 O
BRANCH 97 104
ATOM    102   N  NAG B   7      14.749  19.001   5.6770  0.00  0.00     0.000 N
ATOM    104  HD  NAG B   7      14.926  18.370   5.1110  0.00  0.00     0.000 HD
ATOM    104   O  NAG B   7      15.974  18.411   3.8660  0.00  0.00     0.000 OA
ATOM    105   C  NAG B   7      15.812  19.143   4.8620  0.00  0.00     0.000 C
ATOM    106   C  NAG B   7      16.825  20.193   5.1690  0.00  0.00     0.000 C
ENDBRANCH 97 104
ATOM    107   O  NAG B   7      11.560  21.889  10.5260  0.00  0.00     0.000 O
ATOM    109  HD  NAG B   7      11.544  21.449   9.7800  0.00  0.00     0.000 HD
ATOM    109   O  NAG B   7      11.560  21.889  10.5260  0.00  0.00     0.000 O
ATOM    111  HD  NAG B   7      11.544  21.449   9.7800  0.00  0.00     0.000 HD
ENDBRANCH 95 98
ENDBRANCH 82 95
ENDBRANCH 81 85
ENDBRANCH 65 81
ENDBRANCH 64 67
ENDBRANCH 51 64
ENDBRANCH 50 54
ENDBRANCH 34 50
ENDBRANCH 33 36
ENDBRANCH 20 33
ENDBRANCH 19 23
ENDBRANCH 1 19
TORSDOF 19
ENDMDL
MODEL 81
REMARK VINA RESULT:      -5.1     10.026     15.781
ROOT
ATOM      1  C1  NAG B   1      10.565   9.504  11.8680  0.00  0.00     0.000 C
ATOM      2  C2  NAG B   1      10.478   8.004  12.1390  0.00  0.00     0.000 C
ATOM      3  C3  NAG B   1       9.169   7.626  12.8010  0.00  0.00     0.000 C
ATOM      4  C4  NAG B   1       9.105   8.453  14.0810  0.00  0.00     0.000 C
ATOM      5  C5  NAG B   1       9.063   9.942  13.7160  0.00  0.00     0.000 C
ATOM      6  O5  NAG B   1      10.251  10.335  12.9960  0.00  0.00     0.000 O
ATOM      7   O  NAG B   1       9.096   6.212  13.0960  0.00  0.00     0.000 O
ATOM      9  HD  NAG B   1       9.544   6.225  12.3550  0.00  0.00     0.000 HD
ATOM      9   O  NAG B   1       7.950   8.108  14.8270  0.00  0.00     0.000 O
ATOM     11  HD  NAG B   1       8.398   8.121  14.0860  0.00  0.00     0.000 HD
ATOM     11   C  NAG B   1       8.861  10.786  14.9810  0.00  0.00     0.000 C
ATOM     12   O  NAG B   1       9.447  12.079  14.8410  0.00  0.00     0.000 O
ATOM     14  HD  NAG B   1       9.895  12.092  14.1000  0.00  0.00     0.000 HD
ENDROOT
BRANCH 2 16
ATOM     14   N  NAG B   1      10.902   7.477  10.8300  0.00  0.00     0.000 N
ATOM     16  HD  NAG B   1      11.547   7.501  10.2530  0.00  0.00     0.000 HD
ATOM     16   C  NAG B   1      11.766   6.457  10.6930  0.00  0.00     0.000 C
ATOM     17   C  NAG B   1      12.371   5.816  11.9140  0.00  0.00     0.000 C
ATOM     18   O  NAG B   1      12.058   6.011   9.5830  0.00  0.00     0.000 OA
ENDBRANCH 2 16
BRANCH 1 19
ATOM     19  O4  BDP B   2      11.948   9.706  11.6060  0.00  0.00     0.000 O
BRANCH 19 23
ATOM     20  C1  BDP B   2      14.237  12.703   9.9570  0.00  0.00     0.000 C
ATOM     21  C2  BDP B   2      13.601  13.002  11.2990  0.00  0.00     0.000 C
ATOM     22  C3  BDP B   2      13.154  11.733  11.9890  0.00  0.00     0.000 C
ATOM     23  C4  BDP B   2      12.259  10.952  11.0320  0.00  0.00     0.000 C
ATOM     24  C5  BDP B   2      13.003  10.703   9.7350  0.00  0.00     0.000 C
ATOM     25  O5  BDP B   2      13.355  11.940   9.1450  0.00  0.00     0.000 O
ATOM     26   O  BDP B   2      14.508  13.700  12.1260  0.00  0.00     0.000 O
ATOM     28  HD  BDP B   2      14.920  13.747  11.3660  0.00  0.00     0.000 HD
ATOM     28   O  BDP B   2      12.475  12.072  13.2090  0.00  0.00     0.000 O
ATOM     30  HD  BDP B   2      12.887  12.119  12.4480  0.00  0.00     0.000 HD
BRANCH 24 30
ATOM     30   C  BDP B   2      12.180   9.954   8.7490  0.00  0.00     0.000 C
ATOM     31   O  BDP B   2      11.064  10.437   8.4480  0.00  0.00     0.000 OA
ATOM     32   O  BDP B   2      12.640   8.875   8.2780  0.00  0.00     0.000 OA
ENDBRANCH 24 30
BRANCH 20 33
ATOM     33  O3  NAG B   3      14.420  13.971   9.3770  0.00  0.00     0.000 O
BRANCH 33 36
ATOM     34  C1  NAG B   3      16.816  14.239   6.4890  0.00  0.00     0.000 C
ATOM     35  C2  NAG B   3      16.355  14.122   7.9300  0.00  0.00     0.000 C
ATOM     36  C3  NAG B   3      14.842  13.873   8.0140  0.00  0.00     0.000 C
ATOM     37  C4  NAG B   3      14.109  14.931   7.1930  0.00  0.00     0.000 C
ATOM     38  C5  NAG B   3      14.708  15.023   5.7920  0.00  0.00     0.000 C
ATOM     39  O5  NAG B   3      16.096  15.300   5.8780  0.00  0.00     0.000 O
ATOM     40   O  NAG B   3      12.715  14.599   7.0950  0.00  0.00     0.000 O
ATOM     42  HD  NAG B   3      12.883  14.678   6.2490  0.00  0.00     0.000 HD
ATOM     42   C  NAG B   3      14.122  16.147   4.9420  0.00  0.00     0.000 C
ATOM     43   O  NAG B   3      14.467  17.413   5.5180  0.00  0.00     0.000 O
ATOM     45  HD  NAG B   3      14.634  17.493   4.6720  0.00  0.00     0.000 HD
BRANCH 35 47
ATOM     45   N  NAG B   3      17.202  14.267   9.1070  0.00  0.00     0.000 N
ATOM     47  HD  NAG B   3      16.584  14.872   9.0650  0.00  0.00     0.000 HD
ATOM     47   C  NAG B   3      17.665  13.238   9.7880  0.00  0.00     0.000 C
ATOM     48   C  NAG B   3      18.506  13.564  10.9870  0.00  0.00     0.000 C
ATOM     49   O  NAG B   3      17.402  12.079   9.4770  0.00  0.00     0.000 OA
ENDBRANCH 35 47
BRANCH 34 50
ATOM     50  O4  BDP B   4      18.183  14.574   6.6020  0.00  0.00     0.000 O
BRANCH 50 54
ATOM     51  C1  BDP B   4      21.834  14.236   4.8370  0.00  0.00     0.000 C
ATOM     52  C2  BDP B   4      20.775  14.912   3.9740  0.00  0.00     0.000 C
ATOM     53  C3  BDP B   4      19.624  15.306   4.8480  0.00  0.00     0.000 C
ATOM     54  C4  BDP B   4      19.101  14.062   5.6220  0.00  0.00     0.000 C
ATOM     55  C5  BDP B   4      20.223  13.295   6.3100  0.00  0.00     0.000 C
ATOM     56  O5  BDP B   4      21.293  13.055   5.4010  0.00  0.00     0.000 O
ATOM     57   O  BDP B   4      21.308  16.064   3.3560  0.00  0.00     0.000 O
ATOM     59  HD  BDP B   4      21.455  15.824   2.5370  0.00  0.00     0.000 HD
ATOM     59   O  BDP B   4      18.570  15.762   3.9750  0.00  0.00     0.000 O
ATOM     61  HD  BDP B   4      18.717  15.521   3.1560  0.00  0.00     0.000 HD
BRANCH 55 61
ATOM     61   C  BDP B   4      19.686  11.967   6.8120  0.00  0.00     0.000 C
ATOM     62   O  BDP B   4      18.794  11.395   6.1320  0.00  0.00     0.000 OA
ATOM     63   O  BDP B   4      20.162  11.494   7.8890  0.00  0.00     0.000 OA
ENDBRANCH 55 61
BRANCH 51 64
ATOM     64  O3  NAG B   5      22.951  13.929   3.9810  0.00  0.00     0.000 O
BRANCH 64 67
ATOM     65  C1  NAG B   5      26.438  14.193   5.1490  0.00  0.00     0.000 C
ATOM     66  C2  NAG B   5      25.093  14.639   4.6010  0.00  0.00     0.000 C
ATOM     67  C3  NAG B   5      24.088  13.499   4.7030  0.00  0.00     0.000 C
ATOM     68  C4  NAG B   5      24.642  12.217   4.0660  0.00  0.00     0.000 C
ATOM     69  C5  NAG B   5      26.028  11.904   4.6090  0.00  0.00     0.000 C
ATOM     70  O5  NAG B   5      26.882  13.047   4.4590  0.00  0.00     0.000 O
ATOM     71   O  NAG B   5      23.742  11.160   4.3220  0.00  0.00     0.000 O
ATOM     73  HD  NAG B   5      23.919  10.971   3.4950  0.00  0.00     0.000 HD
ATOM     73   C  NAG B   5      26.715  10.707   3.9350  0.00  0.00     0.000 C
ATOM     74   O  NAG B   5      26.949  11.005   2.5430  0.00  0.00     0.000 O
ATOM     76  HD  NAG B   5      27.126  10.816   1.7160  0.00  0.00     0.000 HD
BRANCH 66 78
ATOM     76   N  NAG B   5      24.829  15.869   5.3730  0.00  0.00     0.000 N
ATOM     78  HD  NAG B   5      24.860  15.634   4.5400  0.00  0.00     0.000 HD
ATOM     78   C  NAG B   5      24.331  17.015   4.8840  0.00  0.00     0.000 C
ATOM     79   C  NAG B   5      24.157  18.086   5.9270  0.00  0.00     0.000 C
ATOM     80   O  NAG B   5      24.039  17.184   3.6460  0.00  0.00     0.000 OA
ENDBRANCH 66 78
BRANCH 65 81
ATOM     81  O4  BDP B   6      27.400  15.247   5.0130  0.00  0.00     0.000 O
BRANCH 81 85
ATOM     82  C1  BDP B   6      30.993  16.608   6.9110  0.00  0.00     0.000 C
ATOM     83  C2  BDP B   6      31.135  15.620   5.7560  0.00  0.00     0.000 C
ATOM     84  C3  BDP B   6      29.870  15.518   4.9000  0.00  0.00     0.000 C
ATOM     85  C4  BDP B   6      28.624  15.259   5.7500  0.00  0.00     0.000 C
ATOM     86  C5  BDP B   6      28.609  16.295   6.9000  0.00  0.00     0.000 C
ATOM     87  O5  BDP B   6      29.848  16.263   7.6790  0.00  0.00     0.000 O
ATOM     88   O  BDP B   6      32.209  16.116   4.9610  0.00  0.00     0.000 O
ATOM     90  HD  BDP B   6      32.428  16.230   4.1310  0.00  0.00     0.000 HD
ATOM     90   O  BDP B   6      30.038  14.496   3.9150  0.00  0.00     0.000 O
ATOM     92  HD  BDP B   6      30.257  14.610   3.0840  0.00  0.00     0.000 HD
BRANCH 86 92
ATOM     92   C  BDP B   6      27.541  15.950   7.9100  0.00  0.00     0.000 C
ATOM     93   O  BDP B   6      26.502  16.673   7.9900  0.00  0.00     0.000 OA
ATOM     94   O  BDP B   6      27.726  14.921   8.6300  0.00  0.00     0.000 OA
ENDBRANCH 86 92
BRANCH 82 95
ATOM     95  O3  NAG B   7      32.150  16.483   7.7600  0.00  0.00     0.000 O
BRANCH 95 98
ATOM     96  C1  NAG B   7      34.721  18.708   9.0930  0.00  0.00     0.000 C
ATOM     97  C2  NAG B   7      34.172  17.440   8.4530  0.00  0.00     0.000 C
ATOM     98  C3  NAG B   7      32.658  17.642   8.4170  0.00  0.00     0.000 C
ATOM     99  C4  NAG B   7      32.126  17.828   9.8360  0.00  0.00     0.000 C
ATOM    100  C5  NAG B   7      32.869  18.955  10.5550  0.00  0.00     0.000 C
ATOM    101  O5  NAG B   7      34.265  18.726  10.4510  0.00  0.00     0.000 O
BRANCH 97 104
ATOM    102   N  NAG B   7      34.526  17.183   7.0500  0.00  0.00     0.000 N
ATOM    104  HD  NAG B   7      34.472  17.029   6.2000  0.00  0.00     0.000 HD
ATOM    104   O  NAG B   7      35.407  16.043   5.3020  0.00  0.00     0.000 OA
ATOM    105   C  NAG B   7      35.235  16.163   6.5310  0.00  0.00     0.000 C
ATOM    106   C  NAG B   7      35.818  15.144   7.4510  0.00  0.00     0.000 C
ENDBRANCH 97 104
ATOM    107   O  NAG B   7      32.902  20.252  12.5090  0.00  0.00     0.000 O
ATOM    109  HD  NAG B   7      33.013  20.263  11.6510  0.00  0.00     0.000 HD
ATOM    109   O  NAG B   7      32.902  20.252  12.5090  0.00  0.00     0.000 O
ATOM    111  HD  NAG B   7      33.013  20.263  11.6510  0.00  0.00     0.000 HD
ENDBRANCH 95 98
ENDBRANCH 82 95
ENDBRANCH 81 85
ENDBRANCH 65 81
ENDBRANCH 64 67
ENDBRANCH 51 64
ENDBRANCH 50 54
ENDBRANCH 34 50
ENDBRANCH 33 36
ENDBRANCH 20 33
ENDBRANCH 19 23
ENDBRANCH 1 19
TORSDOF 19
ENDMDL
MODEL 82
REMARK VINA RESULT:      -5.1      9.956     16.165
ROOT
ATOM      1  C1  NAG B   1      10.564   9.493  11.8690  0.00  0.00     0.000 C
ATOM      2  C2  NAG B   1      10.478   7.995  12.1470  0.00  0.00     0.000 C
ATOM      3  C3  NAG B   1       9.173   7.621  12.8210  0.00  0.00     0.000 C
ATOM      4  C4  NAG B   1       9.120   8.453  14.0980  0.00  0.00     0.000 C
ATOM      5  C5  NAG B   1       9.077   9.941  13.7270  0.00  0.00     0.000 C
ATOM      6  O5  NAG B   1      10.259  10.330  12.9960  0.00  0.00     0.000 O
ATOM      7   O  NAG B   1       9.101   6.208  13.1220  0.00  0.00     0.000 O
ATOM      9  HD  NAG B   1       9.543   6.218  12.3780  0.00  0.00     0.000 HD
ATOM      9   O  NAG B   1       7.970   8.113  14.8540  0.00  0.00     0.000 O
ATOM     11  HD  NAG B   1       8.412   8.122  14.1100  0.00  0.00     0.000 HD
ATOM     11   C  NAG B   1       8.885  10.789  14.9900  0.00  0.00     0.000 C
ATOM     12   O  NAG B   1       9.471  12.081  14.8400  0.00  0.00     0.000 O
ATOM     14  HD  NAG B   1       9.913  12.091  14.0950  0.00  0.00     0.000 HD
ENDROOT
BRANCH 2 16
ATOM     14   N  NAG B   1      10.890   7.462  10.8370  0.00  0.00     0.000 N
ATOM     16  HD  NAG B   1      11.531   7.483  10.2550  0.00  0.00     0.000 HD
ATOM     16   C  NAG B   1      11.754   6.440  10.6980  0.00  0.00     0.000 C
ATOM     17   C  NAG B   1      12.368   5.805  11.9170  0.00  0.00     0.000 C
ATOM     18   O  NAG B   1      12.036   5.990   9.5880  0.00  0.00     0.000 OA
ENDBRANCH 2 16
BRANCH 1 19
ATOM     19  O4  BDP B   2      11.945   9.693  11.5960  0.00  0.00     0.000 O
BRANCH 19 23
ATOM     20  C1  BDP B   2      14.228  12.691   9.9410  0.00  0.00     0.000 C
ATOM     21  C2  BDP B   2      13.597  12.990  11.2860  0.00  0.00     0.000 C
ATOM     22  C3  BDP B   2      13.153  11.720  11.9760  0.00  0.00     0.000 C
ATOM     23  C4  BDP B   2      12.253  10.940  11.0210  0.00  0.00     0.000 C
ATOM     24  C5  BDP B   2      12.993  10.692   9.7220  0.00  0.00     0.000 C
ATOM     25  O5  BDP B   2      13.343  11.929   9.1320  0.00  0.00     0.000 O
ATOM     26   O  BDP B   2      14.506  13.687  12.1090  0.00  0.00     0.000 O
ATOM     28  HD  BDP B   2      14.915  13.734  11.3480  0.00  0.00     0.000 HD
ATOM     28   O  BDP B   2      12.478  12.058  13.1990  0.00  0.00     0.000 O
ATOM     30  HD  BDP B   2      12.887  12.105  12.4370  0.00  0.00     0.000 HD
BRANCH 24 30
ATOM     30   C  BDP B   2      12.167   9.943   8.7390  0.00  0.00     0.000 C
ATOM     31   O  BDP B   2      11.054  10.431   8.4340  0.00  0.00     0.000 OA
ATOM     32   O  BDP B   2      12.621   8.859   8.2730  0.00  0.00     0.000 OA
ENDBRANCH 24 30
BRANCH 20 33
ATOM     33  O3  NAG B   3      14.408  13.960   9.3610  0.00  0.00     0.000 O
BRANCH 33 36
ATOM     34  C1  NAG B   3      16.877  14.282   6.5410  0.00  0.00     0.000 C
ATOM     35  C2  NAG B   3      16.379  14.163   7.9690  0.00  0.00     0.000 C
ATOM     36  C3  NAG B   3      14.872  13.864   8.0120  0.00  0.00     0.000 C
ATOM     37  C4  NAG B   3      14.129  14.888   7.1590  0.00  0.00     0.000 C
ATOM     38  C5  NAG B   3      14.765  14.987   5.7750  0.00  0.00     0.000 C
ATOM     39  O5  NAG B   3      16.140  15.311   5.8980  0.00  0.00     0.000 O
ATOM     40   O  NAG B   3      12.751  14.507   7.0250  0.00  0.00     0.000 O
ATOM     42  HD  NAG B   3      12.940  14.585   6.1830  0.00  0.00     0.000 HD
ATOM     42   C  NAG B   3      14.167  16.082   4.8970  0.00  0.00     0.000 C
ATOM     43   O  NAG B   3      14.452  17.364   5.4700  0.00  0.00     0.000 O
ATOM     45  HD  NAG B   3      14.641  17.442   4.6280  0.00  0.00     0.000 HD
BRANCH 35 47
ATOM     45   N  NAG B   3      17.130  14.344   9.2050  0.00  0.00     0.000 N
ATOM     47  HD  NAG B   3      16.451  14.879   9.1450  0.00  0.00     0.000 HD
ATOM     47   C  NAG B   3      17.663  13.342   9.8730  0.00  0.00     0.000 C
ATOM     48   C  NAG B   3      18.387  13.701  11.1370  0.00  0.00     0.000 C
ATOM     49   O  NAG B   3      17.552  12.176   9.4990  0.00  0.00     0.000 OA
ENDBRANCH 35 47
BRANCH 34 50
ATOM     50  O4  BDP B   4      18.229  14.664   6.6900  0.00  0.00     0.000 O
BRANCH 50 54
ATOM     51  C1  BDP B   4      21.878  14.674   4.8900  0.00  0.00     0.000 C
ATOM     52  C2  BDP B   4      20.926  15.757   4.3950  0.00  0.00     0.000 C
ATOM     53  C3  BDP B   4      19.796  15.885   5.3700  0.00  0.00     0.000 C
ATOM     54  C4  BDP B   4      19.118  14.499   5.5720  0.00  0.00     0.000 C
ATOM     55  C5  BDP B   4      20.128  13.398   5.8700  0.00  0.00     0.000 C
ATOM     56  O5  BDP B   4      21.196  13.434   4.9280  0.00  0.00     0.000 O
ATOM     57   O  BDP B   4      21.599  16.994   4.2960  0.00  0.00     0.000 O
ATOM     59  HD  BDP B   4      21.747  17.095   3.4480  0.00  0.00     0.000 HD
ATOM     59   O  BDP B   4      18.826  16.771   4.7740  0.00  0.00     0.000 O
ATOM     61  HD  BDP B   4      18.973  16.872   3.9270  0.00  0.00     0.000 HD
BRANCH 55 61
ATOM     61   C  BDP B   4      19.436  12.049   5.7910  0.00  0.00     0.000 C
ATOM     62   O  BDP B   4      19.372  11.355   6.8390  0.00  0.00     0.000 OA
ATOM     63   O  BDP B   4      18.954  11.686   4.6750  0.00  0.00     0.000 OA
ENDBRANCH 55 61
BRANCH 51 64
ATOM     64  O3  NAG B   5      22.983  14.622   3.9670  0.00  0.00     0.000 O
BRANCH 64 67
ATOM     65  C1  NAG B   5      26.439  13.986   5.0830  0.00  0.00     0.000 C
ATOM     66  C2  NAG B   5      25.170  14.767   4.7870  0.00  0.00     0.000 C
ATOM     67  C3  NAG B   5      24.042  13.808   4.4320  0.00  0.00     0.000 C
ATOM     68  C4  NAG B   5      24.470  12.842   3.3190  0.00  0.00     0.000 C
ATOM     69  C5  NAG B   5      25.794  12.179   3.6620  0.00  0.00     0.000 C
ATOM     70  O5  NAG B   5      26.774  13.178   3.9780  0.00  0.00     0.000 O
ATOM     71   O  NAG B   5      23.450  11.883   3.1350  0.00  0.00     0.000 O
ATOM     73  HD  NAG B   5      23.630  12.028   2.3010  0.00  0.00     0.000 HD
ATOM     73   C  NAG B   5      26.364  11.290   2.5480  0.00  0.00     0.000 C
ATOM     74   O  NAG B   5      26.674  12.100   1.3950  0.00  0.00     0.000 O
ATOM     76  HD  NAG B   5      26.854  12.245   0.5600  0.00  0.00     0.000 HD
BRANCH 66 78
ATOM     76   N  NAG B   5      25.041  15.604   5.9960  0.00  0.00     0.000 N
ATOM     78  HD  NAG B   5      25.046  15.721   5.1380  0.00  0.00     0.000 HD
ATOM     78   C  NAG B   5      24.669  16.893   6.0280  0.00  0.00     0.000 C
ATOM     79   C  NAG B   5      24.613  17.467   7.4180  0.00  0.00     0.000 C
ATOM     80   O  NAG B   5      24.396  17.572   4.9750  0.00  0.00     0.000 OA
ENDBRANCH 66 78
BRANCH 65 81
ATOM     81  O4  BDP B   6      27.516  14.887   5.3720  0.00  0.00     0.000 O
BRANCH 81 85
ATOM     82  C1  BDP B   6      31.287  14.898   7.4080  0.00  0.00     0.000 C
ATOM     83  C2  BDP B   6      31.274  14.448   5.9500  0.00  0.00     0.000 C
ATOM     84  C3  BDP B   6      29.998  14.861   5.2110  0.00  0.00     0.000 C
ATOM     85  C4  BDP B   6      28.737  14.445   5.9710  0.00  0.00     0.000 C
ATOM     86  C5  BDP B   6      28.883  14.924   7.4350  0.00  0.00     0.000 C
ATOM     87  O5  BDP B   6      30.113  14.424   8.0520  0.00  0.00     0.000 O
ATOM     88   O  BDP B   6      32.400  15.079   5.3470  0.00  0.00     0.000 O
ATOM     90  HD  BDP B   6      32.624  15.488   4.6170  0.00  0.00     0.000 HD
ATOM     90   O  BDP B   6      30.007  14.308   3.8920  0.00  0.00     0.000 O
ATOM     92  HD  BDP B   6      30.232  14.717   3.1630  0.00  0.00     0.000 HD
BRANCH 86 92
ATOM     92   C  BDP B   6      27.787  14.343   8.2950  0.00  0.00     0.000 C
ATOM     93   O  BDP B   6      26.790  15.062   8.6040  0.00  0.00     0.000 OA
ATOM     94   O  BDP B   6      27.906  13.131   8.6560  0.00  0.00     0.000 OA
ENDBRANCH 86 92
BRANCH 82 95
ATOM     95  O3  NAG B   7      32.422  14.295   8.0590  0.00  0.00     0.000 O
BRANCH 95 98
ATOM     96  C1  NAG B   7      35.309  15.448   9.9770  0.00  0.00     0.000 C
ATOM     97  C2  NAG B   7      34.571  14.623   8.9310  0.00  0.00     0.000 C
ATOM     98  C3  NAG B   7      33.104  15.021   9.0810  0.00  0.00     0.000 C
ATOM     99  C4  NAG B   7      32.620  14.697  10.4920  0.00  0.00     0.000 C
ATOM    100  C5  NAG B   7      33.529  15.338  11.5420  0.00  0.00     0.000 C
ATOM    101  O5  NAG B   7      34.875  14.986  11.2610  0.00  0.00     0.000 O
BRANCH 97 104
ATOM    102   N  NAG B   7      34.873  14.900   7.5200  0.00  0.00     0.000 N
ATOM    104  HD  NAG B   7      34.792  15.109   6.6840  0.00  0.00     0.000 HD
ATOM    104   O  NAG B   7      35.553  14.440   5.4090  0.00  0.00     0.000 OA
ATOM    105   C  NAG B   7      35.408  14.081   6.5940  0.00  0.00     0.000 C
ATOM    106   C  NAG B   7      35.824  12.707   6.9950  0.00  0.00     0.000 C
ENDBRANCH 97 104
ATOM    107   O  NAG B   7      33.775  15.737  13.8410  0.00  0.00     0.000 O
ATOM    109  HD  NAG B   7      33.876  16.072  13.0490  0.00  0.00     0.000 HD
ATOM    109   O  NAG B   7      33.775  15.737  13.8410  0.00  0.00     0.000 O
ATOM    111  HD  NAG B   7      33.876  16.072  13.0490  0.00  0.00     0.000 HD
ENDBRANCH 95 98
ENDBRANCH 82 95
ENDBRANCH 81 85
ENDBRANCH 65 81
ENDBRANCH 64 67
ENDBRANCH 51 64
ENDBRANCH 50 54
ENDBRANCH 34 50
ENDBRANCH 33 36
ENDBRANCH 20 33
ENDBRANCH 19 23
ENDBRANCH 1 19
TORSDOF 19
ENDMDL
MODEL 83
REMARK VINA RESULT:      -5.1      6.371     18.132
ROOT
ATOM      1  C1  NAG B   1      13.692  12.659   7.7110  0.00  0.00     0.000 C
ATOM      2  C2  NAG B   1      14.053  14.138   7.6200  0.00  0.00     0.000 C
ATOM      3  C3  NAG B   1      15.232  14.376   6.6970  0.00  0.00     0.000 C
ATOM      4  C4  NAG B   1      16.370  13.533   7.2650  0.00  0.00     0.000 C
ATOM      5  C5  NAG B   1      15.980  12.051   7.2000  0.00  0.00     0.000 C
ATOM      6  O5  NAG B   1      14.800  11.788   7.9890  0.00  0.00     0.000 O
ATOM      7   O  NAG B   1      15.604  15.771   6.6360  0.00  0.00     0.000 O
ATOM      9  HD  NAG B   1      14.743  15.811   6.7190  0.00  0.00     0.000 HD
ATOM      9   O  NAG B   1      17.556  13.751   6.5200  0.00  0.00     0.000 O
ATOM     11  HD  NAG B   1      16.695  13.791   6.6030  0.00  0.00     0.000 HD
ATOM     11   C  NAG B   1      17.163  11.179   7.6380  0.00  0.00     0.000 C
ATOM     12   O  NAG B   1      16.716   9.953   8.2150  0.00  0.00     0.000 O
ATOM     14  HD  NAG B   1      15.855   9.993   8.2990  0.00  0.00     0.000 HD
ENDROOT
BRANCH 2 16
ATOM     14   N  NAG B   1      12.822  14.860   7.2530  0.00  0.00     0.000 N
ATOM     16  HD  NAG B   1      11.970  14.893   7.4070  0.00  0.00     0.000 HD
ATOM     16   C  NAG B   1      12.279  15.823   8.0170  0.00  0.00     0.000 C
ATOM     17   C  NAG B   1      12.918  16.190   9.3300  0.00  0.00     0.000 C
ATOM     18   O  NAG B   1      11.277  16.438   7.6530  0.00  0.00     0.000 OA
ENDBRANCH 2 16
BRANCH 1 19
ATOM     19  O4  BDP B   2      12.852  12.601   8.8570  0.00  0.00     0.000 O
BRANCH 19 23
ATOM     20  C1  BDP B   2      12.745  10.393  12.3290  0.00  0.00     0.000 C
ATOM     21  C2  BDP B   2      13.837  11.437  12.2290  0.00  0.00     0.000 C
ATOM     22  C3  BDP B   2      13.535  12.444  11.1420  0.00  0.00     0.000 C
ATOM     23  C4  BDP B   2      13.270  11.688   9.8430  0.00  0.00     0.000 C
ATOM     24  C5  BDP B   2      12.156  10.684  10.0620  0.00  0.00     0.000 C
ATOM     25  O5  BDP B   2      12.535   9.768  11.0710  0.00  0.00     0.000 O
ATOM     26   O  BDP B   2      13.993  12.103  13.4640  0.00  0.00     0.000 O
ATOM     28  HD  BDP B   2      13.483  11.444  13.7030  0.00  0.00     0.000 HD
ATOM     28   O  BDP B   2      14.638  13.356  11.0210  0.00  0.00     0.000 O
ATOM     30  HD  BDP B   2      14.129  12.697  11.2600  0.00  0.00     0.000 HD
BRANCH 24 30
ATOM     30   C  BDP B   2      11.854   9.903   8.8340  0.00  0.00     0.000 C
ATOM     31   O  BDP B   2      12.524   8.863   8.6360  0.00  0.00     0.000 OA
ATOM     32   O  BDP B   2      10.952  10.328   8.0570  0.00  0.00     0.000 OA
ENDBRANCH 24 30
BRANCH 20 33
ATOM     33  O3  NAG B   3      13.259   9.448  13.2350  0.00  0.00     0.000 O
BRANCH 33 36
ATOM     34  C1  NAG B   3      11.068   6.897  14.9210  0.00  0.00     0.000 C
ATOM     35  C2  NAG B   3      11.787   8.216  14.7100  0.00  0.00     0.000 C
ATOM     36  C3  NAG B   3      12.429   8.287  13.3160  0.00  0.00     0.000 C
ATOM     37  C4  NAG B   3      13.291   7.046  13.0930  0.00  0.00     0.000 C
ATOM     38  C5  NAG B   3      12.495   5.784  13.4150  0.00  0.00     0.000 C
ATOM     39  O5  NAG B   3      12.007   5.846  14.7440  0.00  0.00     0.000 O
ATOM     40   O  NAG B   3      13.735   6.996  11.7290  0.00  0.00     0.000 O
ATOM     42  HD  NAG B   3      13.376   6.209  11.7700  0.00  0.00     0.000 HD
ATOM     42   C  NAG B   3      13.319   4.501  13.3450  0.00  0.00     0.000 C
ATOM     43   O  NAG B   3      14.318   4.516  14.3710  0.00  0.00     0.000 O
ATOM     45  HD  NAG B   3      13.958   3.729  14.4130  0.00  0.00     0.000 HD
BRANCH 35 47
ATOM     45   N  NAG B   3      10.899   9.361  14.8670  0.00  0.00     0.000 N
ATOM     47  HD  NAG B   3      10.469   8.616  14.7710  0.00  0.00     0.000 HD
ATOM     47   C  NAG B   3      11.159  10.364  15.6820  0.00  0.00     0.000 C
ATOM     48   C  NAG B   3      10.130  11.453  15.7390  0.00  0.00     0.000 C
ATOM     49   O  NAG B   3      12.173  10.393  16.3770  0.00  0.00     0.000 OA
ENDBRANCH 35 47
BRANCH 34 50
ATOM     50  O4  BDP B   4      10.645   6.958  16.2670  0.00  0.00     0.000 O
BRANCH 50 54
ATOM     51  C1  BDP B   4       7.924   5.401  18.8600  0.00  0.00     0.000 C
ATOM     52  C2  BDP B   4       8.457   4.409  17.8330  0.00  0.00     0.000 C
ATOM     53  C3  BDP B   4       9.689   4.984  17.2050  0.00  0.00     0.000 C
ATOM     54  C4  BDP B   4       9.372   6.389  16.6150  0.00  0.00     0.000 C
ATOM     55  C5  BDP B   4       8.656   7.288  17.6140  0.00  0.00     0.000 C
ATOM     56  O5  BDP B   4       7.557   6.601  18.2040  0.00  0.00     0.000 O
ATOM     57   O  BDP B   4       8.778   3.184  18.4560  0.00  0.00     0.000 O
ATOM     59  HD  BDP B   4       8.124   2.655  18.2480  0.00  0.00     0.000 HD
ATOM     59   O  BDP B   4      10.049   4.114  16.1130  0.00  0.00     0.000 O
ATOM     61  HD  BDP B   4       9.395   3.586  15.9050  0.00  0.00     0.000 HD
BRANCH 55 61
ATOM     61   C  BDP B   4       8.145   8.525  16.8970  0.00  0.00     0.000 C
ATOM     62   O  BDP B   4       8.023   8.475  15.6450  0.00  0.00     0.000 OA
ATOM     63   O  BDP B   4       7.865   9.549  17.5920  0.00  0.00     0.000 OA
ENDBRANCH 55 61
BRANCH 51 64
ATOM     64  O3  NAG B   5       6.780   4.792  19.4890  0.00  0.00     0.000 O
BRANCH 64 67
ATOM     65  C1  NAG B   5       5.322   6.100  22.6130  0.00  0.00     0.000 C
ATOM     66  C2  NAG B   5       6.264   5.322  21.7100  0.00  0.00     0.000 C
ATOM     67  C3  NAG B   5       6.027   5.711  20.2560  0.00  0.00     0.000 C
ATOM     68  C4  NAG B   5       4.542   5.587  19.8880  0.00  0.00     0.000 C
ATOM     69  C5  NAG B   5       3.674   6.320  20.8990  0.00  0.00     0.000 C
ATOM     70  O5  NAG B   5       3.987   5.871  22.2260  0.00  0.00     0.000 O
ATOM     71   O  NAG B   5       4.355   6.102  18.5860  0.00  0.00     0.000 O
ATOM     73  HD  NAG B   5       3.848   5.404  18.5140  0.00  0.00     0.000 HD
ATOM     73   C  NAG B   5       2.165   6.144  20.6820  0.00  0.00     0.000 C
ATOM     74   O  NAG B   5       1.808   4.758  20.8620  0.00  0.00     0.000 O
ATOM     76  HD  NAG B   5       1.301   4.060  20.7900  0.00  0.00     0.000 HD
BRANCH 66 78
ATOM     76   N  NAG B   5       7.580   5.612  22.3110  0.00  0.00     0.000 N
ATOM     78  HD  NAG B   5       7.125   4.912  22.0800  0.00  0.00     0.000 HD
ATOM     78   C  NAG B   5       8.576   4.731  22.4920  0.00  0.00     0.000 C
ATOM     79   C  NAG B   5       9.805   5.335  23.1150  0.00  0.00     0.000 C
ATOM     80   O  NAG B   5       8.486   3.492  22.1720  0.00  0.00     0.000 OA
ENDBRANCH 66 78
BRANCH 65 81
ATOM     81  O4  BDP B   6       5.509   5.703  23.9780  0.00  0.00     0.000 O
BRANCH 81 85
ATOM     82  C1  BDP B   6       4.805   7.205  27.9290  0.00  0.00     0.000 C
ATOM     83  C2  BDP B   6       3.660   6.468  27.2400  0.00  0.00     0.000 C
ATOM     84  C3  BDP B   6       4.124   5.635  26.0420  0.00  0.00     0.000 C
ATOM     85  C4  BDP B   6       4.972   6.455  25.0680  0.00  0.00     0.000 C
ATOM     86  C5  BDP B   6       6.070   7.177  25.8850  0.00  0.00     0.000 C
ATOM     87  O5  BDP B   6       5.503   7.983  26.9680  0.00  0.00     0.000 O
ATOM     88   O  BDP B   6       3.108   5.609  28.2340  0.00  0.00     0.000 O
ATOM     90  HD  BDP B   6       2.805   4.803  28.3250  0.00  0.00     0.000 HD
ATOM     90   O  BDP B   6       2.988   5.070  25.3830  0.00  0.00     0.000 O
ATOM     92  HD  BDP B   6       2.685   4.264  25.4740  0.00  0.00     0.000 HD
BRANCH 86 92
ATOM     92   C  BDP B   6       6.792   8.186  25.0260  0.00  0.00     0.000 C
ATOM     93   O  BDP B   6       6.265   9.321  24.8180  0.00  0.00     0.000 OA
ATOM     94   O  BDP B   6       7.926   7.854  24.5600  0.00  0.00     0.000 OA
ENDBRANCH 86 92
BRANCH 82 95
ATOM     95  O3  NAG B   7       4.244   8.105  28.9050  0.00  0.00     0.000 O
BRANCH 95 98
ATOM     96  C1  NAG B   7       5.182   9.002  32.3190  0.00  0.00     0.000 C
ATOM     97  C2  NAG B   7       4.261   8.506  31.2120  0.00  0.00     0.000 C
ATOM     98  C3  NAG B   7       5.085   8.629  29.9320  0.00  0.00     0.000 C
ATOM     99  C4  NAG B   7       5.489  10.084  29.7120  0.00  0.00     0.000 C
ATOM    100  C5  NAG B   7       6.201  10.645  30.9440  0.00  0.00     0.000 C
ATOM    101  O5  NAG B   7       5.401  10.398  32.0900  0.00  0.00     0.000 O
BRANCH 97 104
ATOM    102   N  NAG B   7       3.867   7.090  31.2400  0.00  0.00     0.000 N
ATOM    104  HD  NAG B   7       3.742   6.263  31.0160  0.00  0.00     0.000 HD
ATOM    104   O  NAG B   7       2.449   5.327  31.3340  0.00  0.00     0.000 OA
ATOM    105   C  NAG B   7       2.640   6.558  31.3910  0.00  0.00     0.000 C
ATOM    106   C  NAG B   7       1.479   7.465  31.6180  0.00  0.00     0.000 C
ENDBRANCH 97 104
ATOM    107   O  NAG B   7       7.377  12.501  31.7680  0.00  0.00     0.000 O
ATOM    109  HD  NAG B   7       7.333  11.636  31.7620  0.00  0.00     0.000 HD
ATOM    109   O  NAG B   7       7.377  12.501  31.7680  0.00  0.00     0.000 O
ATOM    111  HD  NAG B   7       7.333  11.636  31.7620  0.00  0.00     0.000 HD
ENDBRANCH 95 98
ENDBRANCH 82 95
ENDBRANCH 81 85
ENDBRANCH 65 81
ENDBRANCH 64 67
ENDBRANCH 51 64
ENDBRANCH 50 54
ENDBRANCH 34 50
ENDBRANCH 33 36
ENDBRANCH 20 33
ENDBRANCH 19 23
ENDBRANCH 1 19
TORSDOF 19
ENDMDL
MODEL 84
REMARK VINA RESULT:      -5.1      7.940     14.830
ROOT
ATOM      1  C1  NAG B   1       3.447   7.349  18.6260  0.00  0.00     0.000 C
ATOM      2  C2  NAG B   1       2.376   6.443  19.2280  0.00  0.00     0.000 C
ATOM      3  C3  NAG B   1       1.413   5.931  18.1770  0.00  0.00     0.000 C
ATOM      4  C4  NAG B   1       0.821   7.176  17.5240  0.00  0.00     0.000 C
ATOM      5  C5  NAG B   1       1.942   7.961  16.8300  0.00  0.00     0.000 C
ATOM      6  O5  NAG B   1       2.940   8.392  17.7790  0.00  0.00     0.000 O
ATOM      7   O  NAG B   1       0.373   5.104  18.7460  0.00  0.00     0.000 O
ATOM      9  HD  NAG B   1       1.056   4.912  19.2420  0.00  0.00     0.000 HD
ATOM      9   O  NAG B   1      -0.166   6.808  16.5760  0.00  0.00     0.000 O
ATOM     11  HD  NAG B   1       0.517   6.617  17.0720  0.00  0.00     0.000 HD
ATOM     11   C  NAG B   1       1.349   9.143  16.0530  0.00  0.00     0.000 C
ATOM     12   O  NAG B   1       2.280  10.220  15.9590  0.00  0.00     0.000 O
ATOM     14  HD  NAG B   1       2.963  10.029  16.4560  0.00  0.00     0.000 HD
ENDROOT
BRANCH 2 16
ATOM     14   N  NAG B   1       3.109   5.424  20.0000  0.00  0.00     0.000 N
ATOM     16  HD  NAG B   1       3.766   5.320  20.5550  0.00  0.00     0.000 HD
ATOM     16   C  NAG B   1       2.900   5.202  21.3090  0.00  0.00     0.000 C
ATOM     17   C  NAG B   1       1.895   6.034  22.0610  0.00  0.00     0.000 C
ATOM     18   O  NAG B   1       3.497   4.308  21.9090  0.00  0.00     0.000 OA
ENDBRANCH 2 16
BRANCH 1 19
ATOM     19  O4  BDP B   2       3.997   7.999  19.7630  0.00  0.00     0.000 O
BRANCH 19 23
ATOM     20  C1  BDP B   2       7.422   9.291  17.8800  0.00  0.00     0.000 C
ATOM     21  C2  BDP B   2       7.470   7.905  18.4890  0.00  0.00     0.000 C
ATOM     22  C3  BDP B   2       6.080   7.379  18.7670  0.00  0.00     0.000 C
ATOM     23  C4  BDP B   2       5.335   8.409  19.6120  0.00  0.00     0.000 C
ATOM     24  C5  BDP B   2       5.343   9.747  18.8990  0.00  0.00     0.000 C
ATOM     25  O5  BDP B   2       6.678  10.174  18.7070  0.00  0.00     0.000 O
ATOM     26   O  BDP B   2       8.151   7.016  17.6290  0.00  0.00     0.000 O
ATOM     28  HD  BDP B   2       8.343   7.774  17.2560  0.00  0.00     0.000 HD
ATOM     28   O  BDP B   2       6.178   6.108  19.4280  0.00  0.00     0.000 O
ATOM     30  HD  BDP B   2       6.370   6.866  19.0550  0.00  0.00     0.000 HD
BRANCH 24 30
ATOM     30   C  BDP B   2       4.640  10.802  19.6760  0.00  0.00     0.000 C
ATOM     31   O  BDP B   2       3.478  11.101  19.3190  0.00  0.00     0.000 OA
ATOM     32   O  BDP B   2       5.250  11.343  20.6430  0.00  0.00     0.000 OA
ENDBRANCH 24 30
BRANCH 20 33
ATOM     33  O3  NAG B   3       8.767   9.700  17.8590  0.00  0.00     0.000 O
BRANCH 33 36
ATOM     34  C1  NAG B   3      10.727  11.115  14.9760  0.00  0.00     0.000 C
ATOM     35  C2  NAG B   3      10.278  10.099  16.0090  0.00  0.00     0.000 C
ATOM     36  C3  NAG B   3       9.034  10.586  16.7680  0.00  0.00     0.000 C
ATOM     37  C4  NAG B   3       9.294  11.985  17.3190  0.00  0.00     0.000 C
ATOM     38  C5  NAG B   3       9.821  12.899  16.2160  0.00  0.00     0.000 C
ATOM     39  O5  NAG B   3      10.991  12.340  15.6440  0.00  0.00     0.000 O
ATOM     40   O  NAG B   3       8.080  12.535  17.8560  0.00  0.00     0.000 O
ATOM     42  HD  NAG B   3       8.279  13.180  17.3140  0.00  0.00     0.000 HD
ATOM     42   C  NAG B   3      10.232  14.285  16.7070  0.00  0.00     0.000 C
ATOM     43   O  NAG B   3      11.356  14.168  17.5870  0.00  0.00     0.000 O
ATOM     45  HD  NAG B   3      11.555  14.814  17.0450  0.00  0.00     0.000 HD
BRANCH 35 47
ATOM     45   N  NAG B   3      10.963   8.840  16.2710  0.00  0.00     0.000 N
ATOM     47  HD  NAG B   3      10.994   9.383  16.9450  0.00  0.00     0.000 HD
ATOM     47   C  NAG B   3      10.518   7.677  15.8380  0.00  0.00     0.000 C
ATOM     48   C  NAG B   3      11.332   6.475  16.2150  0.00  0.00     0.000 C
ATOM     49   O  NAG B   3       9.480   7.579  15.1860  0.00  0.00     0.000 OA
ENDBRANCH 35 47
BRANCH 34 50
ATOM     50  O4  BDP B   4      11.923  10.566  14.4640  0.00  0.00     0.000 O
BRANCH 50 54
ATOM     51  C1  BDP B   4      14.298  10.311  11.1710  0.00  0.00     0.000 C
ATOM     52  C2  BDP B   4      13.975  11.735  11.6080  0.00  0.00     0.000 C
ATOM     53  C3  BDP B   4      13.431  11.696  13.0030  0.00  0.00     0.000 C
ATOM     54  C4  BDP B   4      12.214  10.729  13.0660  0.00  0.00     0.000 C
ATOM     55  C5  BDP B   4      12.516   9.376  12.4360  0.00  0.00     0.000 C
ATOM     56  O5  BDP B   4      13.106   9.546  11.1510  0.00  0.00     0.000 O
ATOM     57   O  BDP B   4      15.140  12.532  11.5820  0.00  0.00     0.000 O
ATOM     59  HD  BDP B   4      15.062  13.008  10.8630  0.00  0.00     0.000 HD
ATOM     59   O  BDP B   4      12.959  13.025  13.3070  0.00  0.00     0.000 O
ATOM     61  HD  BDP B   4      12.882  13.502  12.5880  0.00  0.00     0.000 HD
BRANCH 55 61
ATOM     61   C  BDP B   4      11.224   8.591  12.2930  0.00  0.00     0.000 C
ATOM     62   O  BDP B   4      10.166   9.233  12.0610  0.00  0.00     0.000 OA
ATOM     63   O  BDP B   4      11.272   7.329  12.4110  0.00  0.00     0.000 OA
ENDBRANCH 55 61
BRANCH 51 64
ATOM     64  O3  NAG B   5      14.877  10.389   9.8540  0.00  0.00     0.000 O
BRANCH 64 67
ATOM     65  C1  NAG B   5      17.344   7.699   9.3360  0.00  0.00     0.000 C
ATOM     66  C2  NAG B   5      16.693   8.916   9.9690  0.00  0.00     0.000 C
ATOM     67  C3  NAG B   5      15.307   9.131   9.3730  0.00  0.00     0.000 C
ATOM     68  C4  NAG B   5      15.365   9.163   7.8390  0.00  0.00     0.000 C
ATOM     69  C5  NAG B   5      16.116   7.953   7.3050  0.00  0.00     0.000 C
ATOM     70  O5  NAG B   5      17.400   7.856   7.9370  0.00  0.00     0.000 O
ATOM     71   O  NAG B   5      14.047   9.209   7.3380  0.00  0.00     0.000 O
ATOM     73  HD  NAG B   5      14.401   9.787   6.7990  0.00  0.00     0.000 HD
ATOM     73   C  NAG B   5      16.334   7.966   5.7850  0.00  0.00     0.000 C
ATOM     74   O  NAG B   5      17.178   9.080   5.4270  0.00  0.00     0.000 O
ATOM     76  HD  NAG B   5      17.532   9.657   4.8880  0.00  0.00     0.000 HD
BRANCH 66 78
ATOM     76   N  NAG B   5      17.323   9.679  11.0630  0.00  0.00     0.000 N
ATOM     78  HD  NAG B   5      16.681   9.105  10.9740  0.00  0.00     0.000 HD
ATOM     78   C  NAG B   5      17.127   9.483  12.3770  0.00  0.00     0.000 C
ATOM     79   C  NAG B   5      17.929  10.412  13.2480  0.00  0.00     0.000 C
ATOM     80   O  NAG B   5      16.326   8.596  12.8430  0.00  0.00     0.000 OA
ENDBRANCH 66 78
BRANCH 65 81
ATOM     81  O4  BDP B   6      18.667   7.520   9.8600  0.00  0.00     0.000 O
BRANCH 81 85
ATOM     82  C1  BDP B   6      21.553   4.422  10.5200  0.00  0.00     0.000 C
ATOM     83  C2  BDP B   6      21.364   4.916   9.0880  0.00  0.00     0.000 C
ATOM     84  C3  BDP B   6      20.641   6.264   9.0150  0.00  0.00     0.000 C
ATOM     85  C4  BDP B   6      19.338   6.258   9.8170  0.00  0.00     0.000 C
ATOM     86  C5  BDP B   6      19.650   5.708  11.2290  0.00  0.00     0.000 C
ATOM     87  O5  BDP B   6      20.292   4.394  11.1730  0.00  0.00     0.000 O
ATOM     88   O  BDP B   6      22.678   5.051   8.5550  0.00  0.00     0.000 O
ATOM     90  HD  BDP B   6      23.148   5.590   8.0660  0.00  0.00     0.000 HD
ATOM     90   O  BDP B   6      20.399   6.605   7.6470  0.00  0.00     0.000 O
ATOM     92  HD  BDP B   6      20.869   7.144   7.1590  0.00  0.00     0.000 HD
BRANCH 86 92
ATOM     92   C  BDP B   6      18.374   5.453  11.9930  0.00  0.00     0.000 C
ATOM     93   O  BDP B   6      17.462   4.747  11.4660  0.00  0.00     0.000 OA
ATOM     94   O  BDP B   6      18.279   5.948  13.1590  0.00  0.00     0.000 OA
ENDBRANCH 86 92
BRANCH 82 95
ATOM     95  O3  NAG B   7      22.056   3.072  10.4710  0.00  0.00     0.000 O
BRANCH 95 98
ATOM     96  C1  NAG B   7      24.935   1.255  11.7920  0.00  0.00     0.000 C
ATOM     97  C2  NAG B   7      23.910   1.668  10.7450  0.00  0.00     0.000 C
ATOM     98  C3  NAG B   7      22.978   2.638  11.4690  0.00  0.00     0.000 C
ATOM     99  C4  NAG B   7      22.317   1.936  12.6530  0.00  0.00     0.000 C
ATOM    100  C5  NAG B   7      23.367   1.309  13.5710  0.00  0.00     0.000 C
ATOM    101  O5  NAG B   7      24.238   0.504  12.7920  0.00  0.00     0.000 O
BRANCH 97 104
ATOM    102   N  NAG B   7      24.400   2.436   9.5920  0.00  0.00     0.000 N
ATOM    104  HD  NAG B   7      24.512   3.061   9.0030  0.00  0.00     0.000 HD
ATOM    104   O  NAG B   7      24.779   2.892   7.4060  0.00  0.00     0.000 OA
ATOM    105   C  NAG B   7      24.377   2.107   8.2860  0.00  0.00     0.000 C
ATOM    106   C  NAG B   7      23.842   0.774   7.8840  0.00  0.00     0.000 C
ENDBRANCH 97 104
ATOM    107   O  NAG B   7      23.672   0.216  15.6240  0.00  0.00     0.000 O
ATOM    109  HD  NAG B   7      24.001   0.801  15.0780  0.00  0.00     0.000 HD
ATOM    109   O  NAG B   7      23.672   0.216  15.6240  0.00  0.00     0.000 O
ATOM    111  HD  NAG B   7      24.001   0.801  15.0780  0.00  0.00     0.000 HD
ENDBRANCH 95 98
ENDBRANCH 82 95
ENDBRANCH 81 85
ENDBRANCH 65 81
ENDBRANCH 64 67
ENDBRANCH 51 64
ENDBRANCH 50 54
ENDBRANCH 34 50
ENDBRANCH 33 36
ENDBRANCH 20 33
ENDBRANCH 19 23
ENDBRANCH 1 19
TORSDOF 19
ENDMDL
MODEL 85
REMARK VINA RESULT:      -5.1      4.344     18.421
ROOT
ATOM      1  C1  NAG B   1      10.416  19.461  10.3980  0.00  0.00     0.000 C
ATOM      2  C2  NAG B   1       9.984  20.755  11.0830  0.00  0.00     0.000 C
ATOM      3  C3  NAG B   1       8.484  20.956  11.0160  0.00  0.00     0.000 C
ATOM      4  C4  NAG B   1       8.136  20.940   9.5310  0.00  0.00     0.000 C
ATOM      5  C5  NAG B   1       8.478  19.562   8.9490  0.00  0.00     0.000 C
ATOM      6  O5  NAG B   1       9.888  19.280   9.0740  0.00  0.00     0.000 O
ATOM      7   O  NAG B   1       8.072  22.199  11.6290  0.00  0.00     0.000 O
ATOM      9  HD  NAG B   1       8.739  21.958  12.1260  0.00  0.00     0.000 HD
ATOM      9   O  NAG B   1       6.755  21.208   9.3510  0.00  0.00     0.000 O
ATOM     11  HD  NAG B   1       7.422  20.967   9.8480  0.00  0.00     0.000 HD
ATOM     11   C  NAG B   1       8.009  19.479   7.4910  0.00  0.00     0.000 C
ATOM     12   O  NAG B   1       8.822  18.582   6.7360  0.00  0.00     0.000 O
ATOM     14  HD  NAG B   1       9.489  18.341   7.2330  0.00  0.00     0.000 HD
ENDROOT
BRANCH 2 16
ATOM     14   N  NAG B   1      11.118  21.545  11.5960  0.00  0.00     0.000 N
ATOM     16  HD  NAG B   1      11.321  22.308  11.9510  0.00  0.00     0.000 HD
ATOM     16   C  NAG B   1      11.397  21.665  12.9050  0.00  0.00     0.000 C
ATOM     17   C  NAG B   1      10.515  20.995  13.9260  0.00  0.00     0.000 C
ATOM     18   O  NAG B   1      12.382  22.292  13.2930  0.00  0.00     0.000 OA
ENDBRANCH 2 16
BRANCH 1 19
ATOM     19  O4  BDP B   2      11.818  19.630  10.2400  0.00  0.00     0.000 O
BRANCH 19 23
ATOM     20  C1  BDP B   2      12.601  15.598  10.5120  0.00  0.00     0.000 C
ATOM     21  C2  BDP B   2      12.907  16.428  11.7420  0.00  0.00     0.000 C
ATOM     22  C3  BDP B   2      12.208  17.767  11.6870  0.00  0.00     0.000 C
ATOM     23  C4  BDP B   2      12.568  18.446  10.3680  0.00  0.00     0.000 C
ATOM     24  C5  BDP B   2      12.208  17.531   9.2150  0.00  0.00     0.000 C
ATOM     25  O5  BDP B   2      12.927  16.318   9.3300  0.00  0.00     0.000 O
ATOM     26   O  BDP B   2      12.517  15.735  12.9080  0.00  0.00     0.000 O
ATOM     28  HD  BDP B   2      12.450  15.103  12.3200  0.00  0.00     0.000 HD
ATOM     28   O  BDP B   2      12.600  18.553  12.8230  0.00  0.00     0.000 O
ATOM     30  HD  BDP B   2      12.534  17.920  12.2350  0.00  0.00     0.000 HD
BRANCH 24 30
ATOM     30   C  BDP B   2      12.545  18.129   7.8960  0.00  0.00     0.000 C
ATOM     31   O  BDP B   2      11.803  17.842   6.9290  0.00  0.00     0.000 OA
ATOM     32   O  BDP B   2      13.557  18.882   7.8190  0.00  0.00     0.000 OA
ENDBRANCH 24 30
BRANCH 20 33
ATOM     33  O3  NAG B   3      13.458  14.489  10.6280  0.00  0.00     0.000 O
BRANCH 33 36
ATOM     34  C1  NAG B   3      12.710  10.820  10.9940  0.00  0.00     0.000 C
ATOM     35  C2  NAG B   3      13.247  12.190  11.3610  0.00  0.00     0.000 C
ATOM     36  C3  NAG B   3      12.772  13.261  10.3670  0.00  0.00     0.000 C
ATOM     37  C4  NAG B   3      13.093  12.809   8.9440  0.00  0.00     0.000 C
ATOM     38  C5  NAG B   3      12.583  11.389   8.7130  0.00  0.00     0.000 C
ATOM     39  O5  NAG B   3      13.142  10.512   9.6760  0.00  0.00     0.000 O
ATOM     40   O  NAG B   3      12.480  13.697   7.9970  0.00  0.00     0.000 O
ATOM     42  HD  NAG B   3      12.153  12.953   7.6980  0.00  0.00     0.000 HD
ATOM     42   C  NAG B   3      12.975  10.806   7.3580  0.00  0.00     0.000 C
ATOM     43   O  NAG B   3      14.398  10.646   7.2990  0.00  0.00     0.000 O
ATOM     45  HD  NAG B   3      14.071   9.902   7.0000  0.00  0.00     0.000 HD
BRANCH 35 47
ATOM     45   N  NAG B   3      14.139  12.656  12.4150  0.00  0.00     0.000 N
ATOM     47  HD  NAG B   3      14.365  12.951  11.6330  0.00  0.00     0.000 HD
ATOM     47   C  NAG B   3      13.715  12.992  13.6170  0.00  0.00     0.000 C
ATOM     48   C  NAG B   3      14.762  13.471  14.5780  0.00  0.00     0.000 C
ATOM     49   O  NAG B   3      12.526  12.942  13.9250  0.00  0.00     0.000 OA
ENDBRANCH 35 47
BRANCH 34 50
ATOM     50  O4  BDP B   4      13.327   9.959  11.9280  0.00  0.00     0.000 O
BRANCH 50 54
ATOM     51  C1  BDP B   4      12.953   6.232  13.5170  0.00  0.00     0.000 C
ATOM     52  C2  BDP B   4      14.078   6.375  12.4990  0.00  0.00     0.000 C
ATOM     53  C3  BDP B   4      14.347   7.832  12.2820  0.00  0.00     0.000 C
ATOM     54  C4  BDP B   4      13.032   8.553  11.8680  0.00  0.00     0.000 C
ATOM     55  C5  BDP B   4      11.874   8.225  12.8010  0.00  0.00     0.000 C
ATOM     56  O5  BDP B   4      11.774   6.817  12.9950  0.00  0.00     0.000 O
ATOM     57   O  BDP B   4      15.251   5.749  12.9740  0.00  0.00     0.000 O
ATOM     59  HD  BDP B   4      15.294   5.003  12.5340  0.00  0.00     0.000 HD
ATOM     59   O  BDP B   4      15.273   7.929  11.1800  0.00  0.00     0.000 O
ATOM     61  HD  BDP B   4      15.316   7.184  10.7410  0.00  0.00     0.000 HD
BRANCH 55 61
ATOM     61   C  BDP B   4      10.581   8.738  12.1930  0.00  0.00     0.000 C
ATOM     62   O  BDP B   4       9.940   9.619  12.8240  0.00  0.00     0.000 OA
ATOM     63   O  BDP B   4      10.208   8.258  11.0790  0.00  0.00     0.000 OA
ENDBRANCH 55 61
BRANCH 51 64
ATOM     64  O3  NAG B   5      12.764   4.823  13.7500  0.00  0.00     0.000 O
BRANCH 64 67
ATOM     65  C1  NAG B   5      12.436   3.439  17.1520  0.00  0.00     0.000 C
ATOM     66  C2  NAG B   5      13.115   3.972  15.9020  0.00  0.00     0.000 C
ATOM     67  C3  NAG B   5      12.075   4.559  14.9560  0.00  0.00     0.000 C
ATOM     68  C4  NAG B   5      10.945   3.555  14.6900  0.00  0.00     0.000 C
ATOM     69  C5  NAG B   5      10.391   3.010  15.9970  0.00  0.00     0.000 C
ATOM     70  O5  NAG B   5      11.460   2.486  16.7990  0.00  0.00     0.000 O
ATOM     71   O  NAG B   5       9.938   4.199  13.9370  0.00  0.00     0.000 O
ATOM     73  HD  NAG B   5       9.942   3.443  13.5130  0.00  0.00     0.000 HD
ATOM     73   C  NAG B   5       9.341   1.903  15.8260  0.00  0.00     0.000 C
ATOM     74   O  NAG B   5       9.948   0.753  15.2010  0.00  0.00     0.000 O
ATOM     76  HD  NAG B   5       9.952  -0.003  14.7770  0.00  0.00     0.000 HD
BRANCH 66 78
ATOM     76   N  NAG B   5      14.104   4.968  16.3570  0.00  0.00     0.000 N
ATOM     78  HD  NAG B   5      14.111   4.202  15.9530  0.00  0.00     0.000 HD
ATOM     78   C  NAG B   5      15.407   4.990  16.0370  0.00  0.00     0.000 C
ATOM     79   C  NAG B   5      16.155   6.146  16.6440  0.00  0.00     0.000 C
ATOM     80   O  NAG B   5      15.964   4.106  15.2930  0.00  0.00     0.000 OA
ENDBRANCH 66 78
BRANCH 65 81
ATOM     81  O4  BDP B   6      13.405   2.844  18.0240  0.00  0.00     0.000 O
BRANCH 81 85
ATOM     82  C1  BDP B   6      14.058   2.067  22.1870  0.00  0.00     0.000 C
ATOM     83  C2  BDP B   6      12.776   1.525  21.5610  0.00  0.00     0.000 C
ATOM     84  C3  BDP B   6      12.829   1.493  20.0310  0.00  0.00     0.000 C
ATOM     85  C4  BDP B   6      13.250   2.842  19.4450  0.00  0.00     0.000 C
ATOM     86  C5  BDP B   6      14.533   3.300  20.1790  0.00  0.00     0.000 C
ATOM     87  O5  BDP B   6      14.345   3.342  21.6310  0.00  0.00     0.000 O
ATOM     88   O  BDP B   6      12.640   0.198  22.0610  0.00  0.00     0.000 O
ATOM     90  HD  BDP B   6      12.422  -0.597  21.7950  0.00  0.00     0.000 HD
ATOM     90   O  BDP B   6      11.559   1.085  19.5160  0.00  0.00     0.000 O
ATOM     92  HD  BDP B   6      11.340   0.291  19.2500  0.00  0.00     0.000 HD
BRANCH 86 92
ATOM     92   C  BDP B   6      14.869   4.727  19.8190  0.00  0.00     0.000 C
ATOM     93   O  BDP B   6      13.938   5.524  19.4920  0.00  0.00     0.000 OA
ATOM     94   O  BDP B   6      16.088   5.076  19.8840  0.00  0.00     0.000 OA
ENDBRANCH 86 92
BRANCH 82 95
ATOM     95  O3  NAG B   7      13.835   2.241  23.6000  0.00  0.00     0.000 O
BRANCH 95 98
ATOM     96  C1  NAG B   7      15.336   1.580  26.8630  0.00  0.00     0.000 C
ATOM     97  C2  NAG B   7      14.231   1.976  25.8930  0.00  0.00     0.000 C
ATOM     98  C3  NAG B   7      14.886   1.932  24.5140  0.00  0.00     0.000 C
ATOM     99  C4  NAG B   7      16.053   2.915  24.4630  0.00  0.00     0.000 C
ATOM    100  C5  NAG B   7      17.036   2.656  25.6050  0.00  0.00     0.000 C
ATOM    101  O5  NAG B   7      16.319   2.621  26.8300  0.00  0.00     0.000 O
BRANCH 97 104
ATOM    102   N  NAG B   7      13.045   1.156  25.6100  0.00  0.00     0.000 N
ATOM    104  HD  NAG B   7      12.367   0.795  25.2110  0.00  0.00     0.000 HD
ATOM    104   O  NAG B   7      10.910   0.437  25.8430  0.00  0.00     0.000 OA
ATOM    105   C  NAG B   7      11.852   1.152  26.2360  0.00  0.00     0.000 C
ATOM    106   C  NAG B   7      11.652   2.037  27.4190  0.00  0.00     0.000 C
ENDBRANCH 97 104
ATOM    107   O  NAG B   7      19.127   3.265  26.4760  0.00  0.00     0.000 O
ATOM    109  HD  NAG B   7      18.583   2.606  26.3360  0.00  0.00     0.000 HD
ATOM    109   O  NAG B   7      19.127   3.265  26.4760  0.00  0.00     0.000 O
ATOM    111  HD  NAG B   7      18.583   2.606  26.3360  0.00  0.00     0.000 HD
ENDBRANCH 95 98
ENDBRANCH 82 95
ENDBRANCH 81 85
ENDBRANCH 65 81
ENDBRANCH 64 67
ENDBRANCH 51 64
ENDBRANCH 50 54
ENDBRANCH 34 50
ENDBRANCH 33 36
ENDBRANCH 20 33
ENDBRANCH 19 23
ENDBRANCH 1 19
TORSDOF 19
ENDMDL
MODEL 86
REMARK VINA RESULT:      -5.1      9.357     14.255
ROOT
ATOM      1  C1  NAG B   1      10.557   9.507  11.7710  0.00  0.00     0.000 C
ATOM      2  C2  NAG B   1      10.587   8.001  12.0170  0.00  0.00     0.000 C
ATOM      3  C3  NAG B   1       9.340   7.521  12.7290  0.00  0.00     0.000 C
ATOM      4  C4  NAG B   1       9.277   8.320  14.0270  0.00  0.00     0.000 C
ATOM      5  C5  NAG B   1       9.115   9.808  13.6930  0.00  0.00     0.000 C
ATOM      6  O5  NAG B   1      10.238  10.296  12.9290  0.00  0.00     0.000 O
ATOM      7   O  NAG B   1       9.379   6.101  13.0000  0.00  0.00     0.000 O
ATOM      9  HD  NAG B   1       9.790   6.157  12.2400  0.00  0.00     0.000 HD
ATOM      9   O  NAG B   1       8.184   7.883  14.8170  0.00  0.00     0.000 O
ATOM     11  HD  NAG B   1       8.596   7.940  14.0570  0.00  0.00     0.000 HD
ATOM     11   C  NAG B   1       8.912  10.615  14.9820  0.00  0.00     0.000 C
ATOM     12   O  NAG B   1       9.400  11.948  14.8410  0.00  0.00     0.000 O
ATOM     14  HD  NAG B   1       9.811  12.005  14.0810  0.00  0.00     0.000 HD
ENDROOT
BRANCH 2 16
ATOM     14   N  NAG B   1      10.747   7.149  10.8250  0.00  0.00     0.000 N
ATOM     16  HD  NAG B   1      11.036   7.152  10.0090  0.00  0.00     0.000 HD
ATOM     16   C  NAG B   1      11.913   6.572  10.4850  0.00  0.00     0.000 C
ATOM     17   C  NAG B   1      13.141   6.808  11.3230  0.00  0.00     0.000 C
ATOM     18   O  NAG B   1      11.995   5.826   9.5100  0.00  0.00     0.000 OA
ENDBRANCH 2 16
BRANCH 1 19
ATOM     19  O4  BDP B   2      11.909   9.810  11.4520  0.00  0.00     0.000 O
BRANCH 19 23
ATOM     20  C1  BDP B   2      13.904  12.978   9.7410  0.00  0.00     0.000 C
ATOM     21  C2  BDP B   2      13.245  13.241  11.0790  0.00  0.00     0.000 C
ATOM     22  C3  BDP B   2      12.920  11.949  11.7940  0.00  0.00     0.000 C
ATOM     23  C4  BDP B   2      12.100  11.070  10.8540  0.00  0.00     0.000 C
ATOM     24  C5  BDP B   2      12.863  10.867   9.5600  0.00  0.00     0.000 C
ATOM     25  O5  BDP B   2      13.097  12.121   8.9460  0.00  0.00     0.000 O
ATOM     26   O  BDP B   2      14.083  14.036  11.8900  0.00  0.00     0.000 O
ATOM     28  HD  BDP B   2      14.488  14.107  11.1280  0.00  0.00     0.000 HD
ATOM     28   O  BDP B   2      12.214  12.245  13.0090  0.00  0.00     0.000 O
ATOM     30  HD  BDP B   2      12.619  12.316  12.2470  0.00  0.00     0.000 HD
BRANCH 24 30
ATOM     30   C  BDP B   2      12.113  10.026   8.5910  0.00  0.00     0.000 C
ATOM     31   O  BDP B   2      12.707   9.031   8.1140  0.00  0.00     0.000 OA
ATOM     32   O  BDP B   2      10.930  10.358   8.2950  0.00  0.00     0.000 OA
ENDBRANCH 24 30
BRANCH 20 33
ATOM     33  O3  NAG B   3      13.967  14.246   9.1370  0.00  0.00     0.000 O
BRANCH 33 36
ATOM     34  C1  NAG B   3      16.944  15.329   7.1090  0.00  0.00     0.000 C
ATOM     35  C2  NAG B   3      16.081  15.115   8.3380  0.00  0.00     0.000 C
ATOM     36  C3  NAG B   3      14.850  14.254   8.0130  0.00  0.00     0.000 C
ATOM     37  C4  NAG B   3      14.118  14.850   6.8130  0.00  0.00     0.000 C
ATOM     38  C5  NAG B   3      15.096  15.102   5.6690  0.00  0.00     0.000 C
ATOM     39  O5  NAG B   3      16.148  15.945   6.1080  0.00  0.00     0.000 O
ATOM     40   O  NAG B   3      13.087  13.954   6.3720  0.00  0.00     0.000 O
ATOM     42  HD  NAG B   3      13.502  14.046   5.6170  0.00  0.00     0.000 HD
ATOM     42   C  NAG B   3      14.475  15.819   4.4720  0.00  0.00     0.000 C
ATOM     43   O  NAG B   3      14.087  17.144   4.8560  0.00  0.00     0.000 O
ATOM     45  HD  NAG B   3      14.502  17.236   4.1020  0.00  0.00     0.000 HD
BRANCH 35 47
ATOM     45   N  NAG B   3      16.421  15.697   9.6290  0.00  0.00     0.000 N
ATOM     47  HD  NAG B   3      15.723  16.064   9.2720  0.00  0.00     0.000 HD
ATOM     47   C  NAG B   3      16.870  14.983  10.6420  0.00  0.00     0.000 C
ATOM     48   C  NAG B   3      17.153  15.736  11.9080  0.00  0.00     0.000 C
ATOM     49   O  NAG B   3      17.023  13.766  10.5640  0.00  0.00     0.000 OA
ENDBRANCH 35 47
BRANCH 34 50
ATOM     50  O4  BDP B   4      17.947  16.217   7.5560  0.00  0.00     0.000 O
BRANCH 50 54
ATOM     51  C1  BDP B   4      21.851  17.284   7.1410  0.00  0.00     0.000 C
ATOM     52  C2  BDP B   4      21.038  17.351   5.8540  0.00  0.00     0.000 C
ATOM     53  C3  BDP B   4      19.582  17.306   6.2030  0.00  0.00     0.000 C
ATOM     54  C4  BDP B   4      19.288  16.045   7.0670  0.00  0.00     0.000 C
ATOM     55  C5  BDP B   4      20.253  15.906   8.2360  0.00  0.00     0.000 C
ATOM     56  O5  BDP B   4      21.599  16.051   7.7910  0.00  0.00     0.000 O
ATOM     57   O  BDP B   4      21.315  18.549   5.1600  0.00  0.00     0.000 O
ATOM     59  HD  BDP B   4      21.840  18.310   4.5140  0.00  0.00     0.000 HD
ATOM     59   O  BDP B   4      18.856  17.175   4.9640  0.00  0.00     0.000 O
ATOM     61  HD  BDP B   4      19.381  16.936   4.3180  0.00  0.00     0.000 HD
BRANCH 55 61
ATOM     61   C  BDP B   4      20.082  14.536   8.8670  0.00  0.00     0.000 C
ATOM     62   O  BDP B   4      20.264  14.429  10.1080  0.00  0.00     0.000 OA
ATOM     63   O  BDP B   4      19.761  13.565   8.1150  0.00  0.00     0.000 OA
ENDBRANCH 55 61
BRANCH 51 64
ATOM     64  O3  NAG B   5      23.240  17.395   6.7750  0.00  0.00     0.000 O
BRANCH 64 67
ATOM     65  C1  NAG B   5      25.669  19.239   8.8470  0.00  0.00     0.000 C
ATOM     66  C2  NAG B   5      24.574  19.010   7.8200  0.00  0.00     0.000 C
ATOM     67  C3  NAG B   5      24.086  17.569   7.8950  0.00  0.00     0.000 C
ATOM     68  C4  NAG B   5      25.260  16.584   7.8070  0.00  0.00     0.000 C
ATOM     69  C5  NAG B   5      26.344  16.949   8.8080  0.00  0.00     0.000 C
ATOM     70  O5  NAG B   5      26.721  18.324   8.6410  0.00  0.00     0.000 O
ATOM     71   O  NAG B   5      24.773  15.279   8.0340  0.00  0.00     0.000 O
ATOM     73  HD  NAG B   5      25.308  15.095   7.3780  0.00  0.00     0.000 HD
ATOM     73   C  NAG B   5      27.615  16.094   8.7040  0.00  0.00     0.000 C
ATOM     74   O  NAG B   5      28.241  16.312   7.4230  0.00  0.00     0.000 O
ATOM     76  HD  NAG B   5      28.776  16.129   6.7670  0.00  0.00     0.000 HD
BRANCH 66 78
ATOM     76   N  NAG B   5      23.625  20.095   8.1350  0.00  0.00     0.000 N
ATOM     78  HD  NAG B   5      24.041  19.796   7.4370  0.00  0.00     0.000 HD
ATOM     78   C  NAG B   5      22.967  20.852   7.2420  0.00  0.00     0.000 C
ATOM     79   C  NAG B   5      22.053  21.866   7.8740  0.00  0.00     0.000 C
ATOM     80   O  NAG B   5      23.111  20.729   5.9740  0.00  0.00     0.000 OA
ENDBRANCH 66 78
BRANCH 65 81
ATOM     81  O4  BDP B   6      26.164  20.581   8.7490  0.00  0.00     0.000 O
BRANCH 81 85
ATOM     82  C1  BDP B   6      28.253  23.465  11.1320  0.00  0.00     0.000 C
ATOM     83  C2  BDP B   6      29.090  22.450  10.3580  0.00  0.00     0.000 C
ATOM     84  C3  BDP B   6      28.301  21.752   9.2480  0.00  0.00     0.000 C
ATOM     85  C4  BDP B   6      26.985  21.164   9.7630  0.00  0.00     0.000 C
ATOM     86  C5  BDP B   6      26.248  22.271  10.5550  0.00  0.00     0.000 C
ATOM     87  O5  BDP B   6      27.083  22.826  11.6220  0.00  0.00     0.000 O
ATOM     88   O  BDP B   6      30.160  23.197   9.7860  0.00  0.00     0.000 O
ATOM     90  HD  BDP B   6      30.606  23.265   9.0470  0.00  0.00     0.000 HD
ATOM     90   O  BDP B   6      29.112  20.740   8.6460  0.00  0.00     0.000 O
ATOM     92  HD  BDP B   6      29.559  20.808   7.9070  0.00  0.00     0.000 HD
BRANCH 86 92
ATOM     92   C  BDP B   6      25.061  21.696  11.2890  0.00  0.00     0.000 C
ATOM     93   O  BDP B   6      23.900  21.824  10.7950  0.00  0.00     0.000 OA
ATOM     94   O  BDP B   6      25.287  21.078  12.3760  0.00  0.00     0.000 OA
ENDBRANCH 86 92
BRANCH 82 95
ATOM     95  O3  NAG B   7      29.019  23.914  12.2670  0.00  0.00     0.000 O
BRANCH 95 98
ATOM     96  C1  NAG B   7      30.144  27.115  13.6180  0.00  0.00     0.000 C
ATOM     97  C2  NAG B   7      30.272  25.654  13.2100  0.00  0.00     0.000 C
ATOM     98  C3  NAG B   7      28.883  25.264  12.7080  0.00  0.00     0.000 C
ATOM     99  C4  NAG B   7      27.858  25.445  13.8250  0.00  0.00     0.000 C
ATOM    100  C5  NAG B   7      27.917  26.863  14.3960  0.00  0.00     0.000 C
ATOM    101  O5  NAG B   7      29.260  27.163  14.7430  0.00  0.00     0.000 O
BRANCH 97 104
ATOM    102   N  NAG B   7      31.158  25.345  12.0790  0.00  0.00     0.000 N
ATOM    104  HD  NAG B   7      31.457  25.062  11.3170  0.00  0.00     0.000 HD
ATOM    104   O  NAG B   7      32.897  24.371  11.0040  0.00  0.00     0.000 OA
ATOM    105   C  NAG B   7      32.275  24.594  12.0620  0.00  0.00     0.000 C
ATOM    106   C  NAG B   7      32.772  24.005  13.3370  0.00  0.00     0.000 C
ENDBRANCH 97 104
ATOM    107   O  NAG B   7      26.864  28.354  15.8690  0.00  0.00     0.000 O
ATOM    109  HD  NAG B   7      27.259  28.276  15.1030  0.00  0.00     0.000 HD
ATOM    109   O  NAG B   7      26.864  28.354  15.8690  0.00  0.00     0.000 O
ATOM    111  HD  NAG B   7      27.259  28.276  15.1030  0.00  0.00     0.000 HD
ENDBRANCH 95 98
ENDBRANCH 82 95
ENDBRANCH 81 85
ENDBRANCH 65 81
ENDBRANCH 64 67
ENDBRANCH 51 64
ENDBRANCH 50 54
ENDBRANCH 34 50
ENDBRANCH 33 36
ENDBRANCH 20 33
ENDBRANCH 19 23
ENDBRANCH 1 19
TORSDOF 19
ENDMDL
MODEL 87
REMARK VINA RESULT:      -5.1      4.880     17.681
ROOT
ATOM      1  C1  NAG B   1      16.415  24.996  11.6700  0.00  0.00     0.000 C
ATOM      2  C2  NAG B   1      17.078  25.472  12.9600  0.00  0.00     0.000 C
ATOM      3  C3  NAG B   1      17.919  26.713  12.7380  0.00  0.00     0.000 C
ATOM      4  C4  NAG B   1      18.937  26.330  11.6680  0.00  0.00     0.000 C
ATOM      5  C5  NAG B   1      18.196  25.993  10.3670  0.00  0.00     0.000 C
ATOM      6  O5  NAG B   1      17.306  24.872  10.5500  0.00  0.00     0.000 O
ATOM      7   O  NAG B   1      18.581  27.147  13.9470  0.00  0.00     0.000 O
ATOM      9  HD  NAG B   1      17.830  26.837  14.2470  0.00  0.00     0.000 HD
ATOM      9   O  NAG B   1      19.837  27.402  11.4450  0.00  0.00     0.000 O
ATOM     11  HD  NAG B   1      19.085  27.093  11.7440  0.00  0.00     0.000 HD
ATOM     11   C  NAG B   1      19.206  25.739   9.2410  0.00  0.00     0.000 C
ATOM     12   O  NAG B   1      18.683  24.832   8.2720  0.00  0.00     0.000 O
ATOM     14  HD  NAG B   1      17.932  24.522   8.5710  0.00  0.00     0.000 HD
ENDROOT
BRANCH 2 16
ATOM     14   N  NAG B   1      16.891  24.645  14.1650  0.00  0.00     0.000 N
ATOM     16  HD  NAG B   1      17.091  24.597  15.0060  0.00  0.00     0.000 HD
ATOM     16   C  NAG B   1      15.994  24.936  15.1230  0.00  0.00     0.000 C
ATOM     17   C  NAG B   1      15.142  26.172  15.0050  0.00  0.00     0.000 C
ATOM     18   O  NAG B   1      15.831  24.194  16.0920  0.00  0.00     0.000 OA
ENDBRANCH 2 16
BRANCH 1 19
ATOM     19  O4  BDP B   2      16.000  23.674  11.9880  0.00  0.00     0.000 O
BRANCH 19 23
ATOM     20  C1  BDP B   2      16.378  19.964  10.2470  0.00  0.00     0.000 C
ATOM     21  C2  BDP B   2      17.625  20.536  10.8900  0.00  0.00     0.000 C
ATOM     22  C3  BDP B   2      17.284  21.664  11.8380  0.00  0.00     0.000 C
ATOM     23  C4  BDP B   2      16.441  22.689  11.0850  0.00  0.00     0.000 C
ATOM     24  C5  BDP B   2      15.221  22.006  10.4980  0.00  0.00     0.000 C
ATOM     25  O5  BDP B   2      15.632  20.989   9.6050  0.00  0.00     0.000 O
ATOM     26   O  BDP B   2      18.325  19.526  11.5840  0.00  0.00     0.000 O
ATOM     28  HD  BDP B   2      17.757  19.047  11.1400  0.00  0.00     0.000 HD
ATOM     28   O  BDP B   2      18.499  22.235  12.3490  0.00  0.00     0.000 O
ATOM     30  HD  BDP B   2      17.931  21.755  11.9050  0.00  0.00     0.000 HD
BRANCH 24 30
ATOM     30   C  BDP B   2      14.359  22.950   9.7390  0.00  0.00     0.000 C
ATOM     31   O  BDP B   2      13.223  23.194  10.2080  0.00  0.00     0.000 OA
ATOM     32   O  BDP B   2      14.809  23.446   8.6670  0.00  0.00     0.000 OA
ENDBRANCH 24 30
BRANCH 20 33
ATOM     33  O3  NAG B   3      16.874  19.075   9.2760  0.00  0.00     0.000 O
BRANCH 33 36
ATOM     34  C1  NAG B   3      14.792  16.123   8.2260  0.00  0.00     0.000 C
ATOM     35  C2  NAG B   3      15.753  16.939   9.0700  0.00  0.00     0.000 C
ATOM     36  C3  NAG B   3      15.817  18.397   8.5910  0.00  0.00     0.000 C
ATOM     37  C4  NAG B   3      16.103  18.424   7.0910  0.00  0.00     0.000 C
ATOM     38  C5  NAG B   3      15.134  17.505   6.3520  0.00  0.00     0.000 C
ATOM     39  O5  NAG B   3      15.221  16.191   6.8740  0.00  0.00     0.000 O
ATOM     40   O  NAG B   3      15.968  19.763   6.5900  0.00  0.00     0.000 O
ATOM     42  HD  NAG B   3      15.424  19.371   6.0420  0.00  0.00     0.000 HD
ATOM     42   C  NAG B   3      15.430  17.370   4.8600  0.00  0.00     0.000 C
ATOM     43   O  NAG B   3      16.691  16.714   4.6790  0.00  0.00     0.000 O
ATOM     45  HD  NAG B   3      16.147  16.322   4.1310  0.00  0.00     0.000 HD
BRANCH 35 47
ATOM     45   N  NAG B   3      16.530  16.384  10.1700  0.00  0.00     0.000 N
ATOM     47  HD  NAG B   3      17.025  16.634   9.5050  0.00  0.00     0.000 HD
ATOM     47   C  NAG B   3      16.233  16.594  11.4370  0.00  0.00     0.000 C
ATOM     48   C  NAG B   3      17.149  15.966  12.4450  0.00  0.00     0.000 C
ATOM     49   O  NAG B   3      15.275  17.287  11.7750  0.00  0.00     0.000 OA
ENDBRANCH 35 47
BRANCH 34 50
ATOM     50  O4  BDP B   4      14.942  14.810   8.7250  0.00  0.00     0.000 O
BRANCH 50 54
ATOM     51  C1  BDP B   4      13.009  11.317   9.5080  0.00  0.00     0.000 C
ATOM     52  C2  BDP B   4      13.030  11.711   8.0360  0.00  0.00     0.000 C
ATOM     53  C3  BDP B   4      14.063  12.777   7.8390  0.00  0.00     0.000 C
ATOM     54  C4  BDP B   4      13.781  13.966   8.8030  0.00  0.00     0.000 C
ATOM     55  C5  BDP B   4      13.567  13.509  10.2400  0.00  0.00     0.000 C
ATOM     56  O5  BDP B   4      12.629  12.437  10.2870  0.00  0.00     0.000 O
ATOM     57   O  BDP B   4      13.352  10.594   7.2340  0.00  0.00     0.000 O
ATOM     59  HD  BDP B   4      12.596  10.346   6.8930  0.00  0.00     0.000 HD
ATOM     59   O  BDP B   4      13.919  13.257   6.4870  0.00  0.00     0.000 O
ATOM     61  HD  BDP B   4      13.163  13.009   6.1460  0.00  0.00     0.000 HD
BRANCH 55 61
ATOM     61   C  BDP B   4      13.039  14.671  11.0610  0.00  0.00     0.000 C
ATOM     62   O  BDP B   4      12.279  15.499  10.4940  0.00  0.00     0.000 OA
ATOM     63   O  BDP B   4      13.385  14.752  12.2790  0.00  0.00     0.000 OA
ENDBRANCH 55 61
BRANCH 51 64
ATOM     64  O3  NAG B   5      12.053  10.248   9.6510  0.00  0.00     0.000 O
BRANCH 64 67
ATOM     65  C1  NAG B   5      11.861   7.906  12.4920  0.00  0.00     0.000 C
ATOM     66  C2  NAG B   5      12.275   8.453  11.1370  0.00  0.00     0.000 C
ATOM     67  C3  NAG B   5      11.823   9.901  11.0020  0.00  0.00     0.000 C
ATOM     68  C4  NAG B   5      10.327  10.043  11.3180  0.00  0.00     0.000 C
ATOM     69  C5  NAG B   5       9.994   9.386  12.6480  0.00  0.00     0.000 C
ATOM     70  O5  NAG B   5      10.467   8.031  12.6550  0.00  0.00     0.000 O
ATOM     71   O  NAG B   5       9.996  11.415  11.3280  0.00  0.00     0.000 O
ATOM     73  HD  NAG B   5       9.299  11.126  10.9030  0.00  0.00     0.000 HD
ATOM     73   C  NAG B   5       8.496   9.367  12.9860  0.00  0.00     0.000 C
ATOM     74   O  NAG B   5       7.792   8.562  12.0170  0.00  0.00     0.000 O
ATOM     76  HD  NAG B   5       7.095   8.273  11.5920  0.00  0.00     0.000 HD
BRANCH 66 78
ATOM     76   N  NAG B   5      13.660   7.945  11.1440  0.00  0.00     0.000 N
ATOM     78  HD  NAG B   5      13.031   8.071  10.5630  0.00  0.00     0.000 HD
ATOM     78   C  NAG B   5      14.417   7.701  10.0630  0.00  0.00     0.000 C
ATOM     79   C  NAG B   5      15.798   7.205  10.3970  0.00  0.00     0.000 C
ATOM     80   O  NAG B   5      14.001   7.866   8.8610  0.00  0.00     0.000 OA
ENDBRANCH 66 78
BRANCH 65 81
ATOM     81  O4  BDP B   6      12.243   6.529  12.6050  0.00  0.00     0.000 O
BRANCH 81 85
ATOM     82  C1  BDP B   6      12.203   3.314  15.4380  0.00  0.00     0.000 C
ATOM     83  C2  BDP B   6      10.860   3.792  14.8940  0.00  0.00     0.000 C
ATOM     84  C3  BDP B   6      10.997   4.631  13.6210  0.00  0.00     0.000 C
ATOM     85  C4  BDP B   6      12.006   5.769  13.7920  0.00  0.00     0.000 C
ATOM     86  C5  BDP B   6      13.306   5.168  14.3780  0.00  0.00     0.000 C
ATOM     87  O5  BDP B   6      13.057   4.435  15.6200  0.00  0.00     0.000 O
ATOM     88   O  BDP B   6      10.122   2.607  14.6070  0.00  0.00     0.000 O
ATOM     90  HD  BDP B   6       9.597   2.278  14.0020  0.00  0.00     0.000 HD
ATOM     90   O  BDP B   6       9.716   5.136  13.2380  0.00  0.00     0.000 O
ATOM     92  HD  BDP B   6       9.191   4.807  12.6330  0.00  0.00     0.000 HD
BRANCH 86 92
ATOM     92   C  BDP B   6      14.256   6.265  14.7930  0.00  0.00     0.000 C
ATOM     93   O  BDP B   6      15.261   6.528  14.0660  0.00  0.00     0.000 OA
ATOM     94   O  BDP B   6      13.988   6.901  15.8600  0.00  0.00     0.000 OA
ENDBRANCH 86 92
BRANCH 82 95
ATOM     95  O3  NAG B   7      11.982   2.712  16.7280  0.00  0.00     0.000 O
BRANCH 95 98
ATOM     96  C1  NAG B   7      13.082  -0.004  18.9090  0.00  0.00     0.000 C
ATOM     97  C2  NAG B   7      12.290   1.238  18.5220  0.00  0.00     0.000 C
ATOM     98  C3  NAG B   7      12.770   1.586  17.1140  0.00  0.00     0.000 C
ATOM     99  C4  NAG B   7      14.271   1.864  17.1310  0.00  0.00     0.000 C
ATOM    100  C5  NAG B   7      15.035   0.696  17.7570  0.00  0.00     0.000 C
ATOM    101  O5  NAG B   7      14.456   0.388  19.0150  0.00  0.00     0.000 O
BRANCH 97 104
ATOM    102   N  NAG B   7      10.837   1.159  18.3220  0.00  0.00     0.000 N
ATOM    104  HD  NAG B   7      10.042   1.257  17.9910  0.00  0.00     0.000 HD
ATOM    104   O  NAG B   7       8.650   1.505  18.7970  0.00  0.00     0.000 OA
ATOM    105   C  NAG B   7       9.848   1.587  19.1300  0.00  0.00     0.000 C
ATOM    106   C  NAG B   7      10.199   2.186  20.4490  0.00  0.00     0.000 C
ENDBRANCH 97 104
ATOM    107   O  NAG B   7      17.182  -0.151  18.1780  0.00  0.00     0.000 O
ATOM    109  HD  NAG B   7      16.373  -0.355  17.9470  0.00  0.00     0.000 HD
ATOM    109   O  NAG B   7      17.182  -0.151  18.1780  0.00  0.00     0.000 O
ATOM    111  HD  NAG B   7      16.373  -0.355  17.9470  0.00  0.00     0.000 HD
ENDBRANCH 95 98
ENDBRANCH 82 95
ENDBRANCH 81 85
ENDBRANCH 65 81
ENDBRANCH 64 67
ENDBRANCH 51 64
ENDBRANCH 50 54
ENDBRANCH 34 50
ENDBRANCH 33 36
ENDBRANCH 20 33
ENDBRANCH 19 23
ENDBRANCH 1 19
TORSDOF 19
ENDMDL
MODEL 88
REMARK VINA RESULT:      -5.1      7.941     12.953
ROOT
ATOM      1  C1  NAG B   1       9.852  14.592  23.8470  0.00  0.00     0.000 C
ATOM      2  C2  NAG B   1      10.078  15.712  24.8590  0.00  0.00     0.000 C
ATOM      3  C3  NAG B   1      11.514  15.756  25.3410  0.00  0.00     0.000 C
ATOM      4  C4  NAG B   1      11.789  14.377  25.9310  0.00  0.00     0.000 C
ATOM      5  C5  NAG B   1      11.671  13.323  24.8220  0.00  0.00     0.000 C
ATOM      6  O5  NAG B   1      10.341  13.306  24.2600  0.00  0.00     0.000 O
ATOM      7   O  NAG B   1      11.726  16.791  26.3290  0.00  0.00     0.000 O
ATOM      9  HD  NAG B   1      11.137  17.150  25.8060  0.00  0.00     0.000 HD
ATOM      9   O  NAG B   1      13.089  14.337  26.4940  0.00  0.00     0.000 O
ATOM     11  HD  NAG B   1      12.500  14.697  25.9710  0.00  0.00     0.000 HD
ATOM     11   C  NAG B   1      12.077  11.947  25.3620  0.00  0.00     0.000 C
ATOM     12   O  NAG B   1      11.402  10.898  24.6680  0.00  0.00     0.000 O
ATOM     14  HD  NAG B   1      10.813  11.258  24.1450  0.00  0.00     0.000 HD
ENDROOT
BRANCH 2 16
ATOM     14   N  NAG B   1       8.845  16.452  25.1810  0.00  0.00     0.000 N
ATOM     16  HD  NAG B   1       8.521  17.054  25.7130  0.00  0.00     0.000 HD
ATOM     16   C  NAG B   1       8.614  17.710  24.7680  0.00  0.00     0.000 C
ATOM     17   C  NAG B   1       9.654  18.439  23.9590  0.00  0.00     0.000 C
ATOM     18   O  NAG B   1       7.550  18.278  25.0150  0.00  0.00     0.000 OA
ENDBRANCH 2 16
BRANCH 1 19
ATOM     19  O4  BDP B   2       8.437  14.477  23.8020  0.00  0.00     0.000 O
BRANCH 19 23
ATOM     20  C1  BDP B   2       8.358  12.929  19.9890  0.00  0.00     0.000 C
ATOM     21  C2  BDP B   2       8.167  14.427  20.1120  0.00  0.00     0.000 C
ATOM     22  C3  BDP B   2       8.625  14.929  21.4620  0.00  0.00     0.000 C
ATOM     23  C4  BDP B   2       7.918  14.117  22.5440  0.00  0.00     0.000 C
ATOM     24  C5  BDP B   2       8.190  12.641  22.3260  0.00  0.00     0.000 C
ATOM     25  O5  BDP B   2       7.705  12.253  21.0550  0.00  0.00     0.000 O
ATOM     26   O  BDP B   2       8.875  15.095  19.0910  0.00  0.00     0.000 O
ATOM     28  HD  BDP B   2       8.926  14.278  18.8080  0.00  0.00     0.000 HD
ATOM     28   O  BDP B   2       8.338  16.332  21.5680  0.00  0.00     0.000 O
ATOM     30  HD  BDP B   2       8.389  15.515  21.2850  0.00  0.00     0.000 HD
BRANCH 24 30
ATOM     30   C  BDP B   2       7.519  11.789  23.3430  0.00  0.00     0.000 C
ATOM     31   O  BDP B   2       6.278  11.909  23.4640  0.00  0.00     0.000 OA
ATOM     32   O  BDP B   2       8.230  11.003  24.0310  0.00  0.00     0.000 OA
ENDBRANCH 24 30
BRANCH 20 33
ATOM     33  O3  NAG B   3       7.722  12.603  18.7770  0.00  0.00     0.000 O
BRANCH 33 36
ATOM     34  C1  NAG B   3       8.924   9.771  16.6120  0.00  0.00     0.000 C
ATOM     35  C2  NAG B   3       8.832  11.182  17.1610  0.00  0.00     0.000 C
ATOM     36  C3  NAG B   3       7.944  11.238  18.4140  0.00  0.00     0.000 C
ATOM     37  C4  NAG B   3       6.600  10.583  18.1100  0.00  0.00     0.000 C
ATOM     38  C5  NAG B   3       6.811   9.206  17.4840  0.00  0.00     0.000 C
ATOM     39  O5  NAG B   3       7.608   9.323  16.3180  0.00  0.00     0.000 O
ATOM     40   O  NAG B   3       5.836  10.446  19.3180  0.00  0.00     0.000 O
ATOM     42  HD  NAG B   3       5.809   9.619  19.0610  0.00  0.00     0.000 HD
ATOM     42   C  NAG B   3       5.520   8.531  17.0280  0.00  0.00     0.000 C
ATOM     43   O  NAG B   3       4.941   9.282  15.9540  0.00  0.00     0.000 O
ATOM     45  HD  NAG B   3       4.914   8.456  15.6970  0.00  0.00     0.000 HD
BRANCH 35 47
ATOM     45   N  NAG B   3       9.456  12.361  16.5760  0.00  0.00     0.000 N
ATOM     47  HD  NAG B   3       8.592  12.410  16.5830  0.00  0.00     0.000 HD
ATOM     47   C  NAG B   3      10.574  12.885  17.0370  0.00  0.00     0.000 C
ATOM     48   C  NAG B   3      11.070  14.112  16.3310  0.00  0.00     0.000 C
ATOM     49   O  NAG B   3      11.163  12.413  18.0070  0.00  0.00     0.000 OA
ENDBRANCH 35 47
BRANCH 34 50
ATOM     50  O4  BDP B   4       9.669   9.923  15.4230  0.00  0.00     0.000 O
BRANCH 50 54
ATOM     51  C1  BDP B   4      12.318   8.125  12.9120  0.00  0.00     0.000 C
ATOM     52  C2  BDP B   4      10.939   7.476  12.9460  0.00  0.00     0.000 C
ATOM     53  C3  BDP B   4       9.978   8.425  13.5920  0.00  0.00     0.000 C
ATOM     54  C4  BDP B   4      10.511   8.839  14.9940  0.00  0.00     0.000 C
ATOM     55  C5  BDP B   4      11.963   9.296  14.9500  0.00  0.00     0.000 C
ATOM     56  O5  BDP B   4      12.760   8.354  14.2370  0.00  0.00     0.000 O
ATOM     57   O  BDP B   4      10.501   7.187  11.6350  0.00  0.00     0.000 O
ATOM     59  HD  BDP B   4      10.619   6.333  11.5490  0.00  0.00     0.000 HD
ATOM     59   O  BDP B   4       8.742   7.707  13.7810  0.00  0.00     0.000 O
ATOM     61  HD  BDP B   4       8.859   6.853  13.6950  0.00  0.00     0.000 HD
BRANCH 55 61
ATOM     61   C  BDP B   4      12.491   9.426  16.3670  0.00  0.00     0.000 C
ATOM     62   O  BDP B   4      12.136   8.561  17.2110  0.00  0.00     0.000 OA
ATOM     63   O  BDP B   4      13.264  10.396  16.6340  0.00  0.00     0.000 OA
ENDBRANCH 55 61
BRANCH 51 64
ATOM     64  O3  NAG B   5      13.202   7.216  12.2280  0.00  0.00     0.000 O
BRANCH 64 67
ATOM     65  C1  NAG B   5      15.863   8.375   9.9550  0.00  0.00     0.000 C
ATOM     66  C2  NAG B   5      14.473   7.968  10.4120  0.00  0.00     0.000 C
ATOM     67  C3  NAG B   5      14.455   7.798  11.9260  0.00  0.00     0.000 C
ATOM     68  C4  NAG B   5      15.579   6.861  12.3890  0.00  0.00     0.000 C
ATOM     69  C5  NAG B   5      16.914   7.295  11.8070  0.00  0.00     0.000 C
ATOM     70  O5  NAG B   5      16.808   7.421  10.3810  0.00  0.00     0.000 O
ATOM     71   O  NAG B   5      15.613   6.860  13.8000  0.00  0.00     0.000 O
ATOM     73  HD  NAG B   5      15.727   6.010  13.6760  0.00  0.00     0.000 HD
ATOM     73   C  NAG B   5      18.078   6.342  12.1130  0.00  0.00     0.000 C
ATOM     74   O  NAG B   5      17.831   5.063  11.4930  0.00  0.00     0.000 O
ATOM     76  HD  NAG B   5      17.945   4.213  11.3690  0.00  0.00     0.000 HD
BRANCH 66 78
ATOM     76   N  NAG B   5      13.659   9.006   9.7510  0.00  0.00     0.000 N
ATOM     78  HD  NAG B   5      13.642   8.145   9.8410  0.00  0.00     0.000 HD
ATOM     78   C  NAG B   5      12.439   8.833   9.2200  0.00  0.00     0.000 C
ATOM     79   C  NAG B   5      11.856  10.089   8.6330  0.00  0.00     0.000 C
ATOM     80   O  NAG B   5      11.832   7.702   9.2060  0.00  0.00     0.000 OA
ENDBRANCH 66 78
BRANCH 65 81
ATOM     81  O4  BDP B   6      15.897   8.491   8.5260  0.00  0.00     0.000 O
BRANCH 81 85
ATOM     82  C1  BDP B   6      18.097  10.600   5.5130  0.00  0.00     0.000 C
ATOM     83  C2  BDP B   6      18.604   9.219   5.9200  0.00  0.00     0.000 C
ATOM     84  C3  BDP B   6      17.554   8.398   6.6730  0.00  0.00     0.000 C
ATOM     85  C4  BDP B   6      16.950   9.176   7.8440  0.00  0.00     0.000 C
ATOM     86  C5  BDP B   6      16.508  10.562   7.3160  0.00  0.00     0.000 C
ATOM     87  O5  BDP B   6      17.608  11.274   6.6640  0.00  0.00     0.000 O
ATOM     88   O  BDP B   6      18.939   8.562   4.7010  0.00  0.00     0.000 O
ATOM     90  HD  BDP B   6      18.869   7.788   4.3190  0.00  0.00     0.000 HD
ATOM     90   O  BDP B   6      18.135   7.170   7.1200  0.00  0.00     0.000 O
ATOM     92  HD  BDP B   6      18.065   6.396   6.7380  0.00  0.00     0.000 HD
BRANCH 86 92
ATOM     92   C  BDP B   6      16.123  11.467   8.4610  0.00  0.00     0.000 C
ATOM     93   O  BDP B   6      14.899  11.720   8.6730  0.00  0.00     0.000 OA
ATOM     94   O  BDP B   6      17.060  11.923   9.1880  0.00  0.00     0.000 OA
ENDBRANCH 86 92
BRANCH 82 95
ATOM     95  O3  NAG B   7      19.209  11.357   4.9960  0.00  0.00     0.000 O
BRANCH 95 98
ATOM     96  C1  NAG B   7      19.812  13.398   2.0280  0.00  0.00     0.000 C
ATOM     97  C2  NAG B   7      20.112  12.322   3.0630  0.00  0.00     0.000 C
ATOM     98  C3  NAG B   7      18.960  12.407   4.0620  0.00  0.00     0.000 C
ATOM     99  C4  NAG B   7      18.922  13.796   4.6940  0.00  0.00     0.000 C
ATOM    100  C5  NAG B   7      18.870  14.883   3.6210  0.00  0.00     0.000 C
ATOM    101  O5  NAG B   7      19.920  14.663   2.6910  0.00  0.00     0.000 O
BRANCH 97 104
ATOM    102   N  NAG B   7      20.083  10.921   2.6220  0.00  0.00     0.000 N
ATOM    104  HD  NAG B   7      19.892  10.079   2.5600  0.00  0.00     0.000 HD
ATOM    104   O  NAG B   7      20.903   8.847   2.2250  0.00  0.00     0.000 OA
ATOM    105   C  NAG B   7      21.092  10.031   2.5690  0.00  0.00     0.000 C
ATOM    106   C  NAG B   7      22.466  10.470   2.9430  0.00  0.00     0.000 C
ENDBRANCH 97 104
ATOM    107   O  NAG B   7      18.617  17.190   3.2760  0.00  0.00     0.000 O
ATOM    109  HD  NAG B   7      18.416  16.403   2.9760  0.00  0.00     0.000 HD
ATOM    109   O  NAG B   7      18.617  17.190   3.2760  0.00  0.00     0.000 O
ATOM    111  HD  NAG B   7      18.416  16.403   2.9760  0.00  0.00     0.000 HD
ENDBRANCH 95 98
ENDBRANCH 82 95
ENDBRANCH 81 85
ENDBRANCH 65 81
ENDBRANCH 64 67
ENDBRANCH 51 64
ENDBRANCH 50 54
ENDBRANCH 34 50
ENDBRANCH 33 36
ENDBRANCH 20 33
ENDBRANCH 19 23
ENDBRANCH 1 19
TORSDOF 19
ENDMDL
MODEL 89
REMARK VINA RESULT:      -5.1      7.996     20.843
ROOT
ATOM      1  C1  NAG B   1      13.953   7.806  10.0250  0.00  0.00     0.000 C
ATOM      2  C2  NAG B   1      13.607   9.113   9.3170  0.00  0.00     0.000 C
ATOM      3  C3  NAG B   1      14.227   9.187   7.9360  0.00  0.00     0.000 C
ATOM      4  C4  NAG B   1      15.728   9.023   8.1520  0.00  0.00     0.000 C
ATOM      5  C5  NAG B   1      16.001   7.634   8.7440  0.00  0.00     0.000 C
ATOM      6  O5  NAG B   1      15.351   7.476  10.0230  0.00  0.00     0.000 O
ATOM      7   O  NAG B   1      13.935  10.440   7.2740  0.00  0.00     0.000 O
ATOM      9  HD  NAG B   1      13.210  10.293   7.7250  0.00  0.00     0.000 HD
ATOM      9   O  NAG B   1      16.416   9.165   6.9210  0.00  0.00     0.000 O
ATOM     11  HD  NAG B   1      15.692   9.019   7.3720  0.00  0.00     0.000 HD
ATOM     11   C  NAG B   1      17.513   7.396   8.8410  0.00  0.00     0.000 C
ATOM     12   O  NAG B   1      17.829   6.508   9.9120  0.00  0.00     0.000 O
ATOM     14  HD  NAG B   1      17.104   6.362  10.3630  0.00  0.00     0.000 HD
ENDROOT
BRANCH 2 16
ATOM     14   N  NAG B   1      12.144   9.182   9.4810  0.00  0.00     0.000 N
ATOM     16  HD  NAG B   1      11.514   9.132  10.0720  0.00  0.00     0.000 HD
ATOM     16   C  NAG B   1      11.506  10.277   9.9280  0.00  0.00     0.000 C
ATOM     17   C  NAG B   1      12.294  11.501  10.3140  0.00  0.00     0.000 C
ATOM     18   O  NAG B   1      10.278  10.314  10.0040  0.00  0.00     0.000 OA
ENDBRANCH 2 16
BRANCH 1 19
ATOM     19  O4  BDP B   2      13.616   8.072  11.3790  0.00  0.00     0.000 O
BRANCH 19 23
ATOM     20  C1  BDP B   2      12.482   5.708  14.5520  0.00  0.00     0.000 C
ATOM     21  C2  BDP B   2      13.957   6.040  14.4530  0.00  0.00     0.000 C
ATOM     22  C3  BDP B   2      14.193   7.219  13.5370  0.00  0.00     0.000 C
ATOM     23  C4  BDP B   2      13.525   6.929  12.1960  0.00  0.00     0.000 C
ATOM     24  C5  BDP B   2      12.057   6.624  12.4190  0.00  0.00     0.000 C
ATOM     25  O5  BDP B   2      11.931   5.494  13.2610  0.00  0.00     0.000 O
ATOM     26   O  BDP B   2      14.482   6.320  15.7330  0.00  0.00     0.000 O
ATOM     28  HD  BDP B   2      13.711   5.990  15.9480  0.00  0.00     0.000 HD
ATOM     28   O  BDP B   2      15.606   7.437  13.4000  0.00  0.00     0.000 O
ATOM     30  HD  BDP B   2      14.835   7.107  13.6150  0.00  0.00     0.000 HD
BRANCH 24 30
ATOM     30   C  BDP B   2      11.346   6.320  11.1490  0.00  0.00     0.000 C
ATOM     31   O  BDP B   2      11.789   5.376  10.4550  0.00  0.00     0.000 OA
ATOM     32   O  BDP B   2      10.348   7.029  10.8340  0.00  0.00     0.000 OA
ENDBRANCH 24 30
BRANCH 20 33
ATOM     33  O3  NAG B   3      12.453   4.501  15.2740  0.00  0.00     0.000 O
BRANCH 33 36
ATOM     34  C1  NAG B   3       9.471   3.609  17.3870  0.00  0.00     0.000 C
ATOM     35  C2  NAG B   3      10.800   4.245  17.0240  0.00  0.00     0.000 C
ATOM     36  C3  NAG B   3      11.114   4.071  15.5310  0.00  0.00     0.000 C
ATOM     37  C4  NAG B   3      10.988   2.596  15.1570  0.00  0.00     0.000 C
ATOM     38  C5  NAG B   3       9.653   2.038  15.6430  0.00  0.00     0.000 C
ATOM     39  O5  NAG B   3       9.529   2.233  17.0420  0.00  0.00     0.000 O
ATOM     40   O  NAG B   3      11.080   2.441  13.7320  0.00  0.00     0.000 O
ATOM     42  HD  NAG B   3      10.328   2.029  13.8530  0.00  0.00     0.000 HD
ATOM     42   C  NAG B   3       9.497   0.535  15.4270  0.00  0.00     0.000 C
ATOM     43   O  NAG B   3      10.448  -0.167  16.2370  0.00  0.00     0.000 O
ATOM     45  HD  NAG B   3       9.696  -0.579  16.3570  0.00  0.00     0.000 HD
BRANCH 35 47
ATOM     45   N  NAG B   3      11.739   4.907  17.9210  0.00  0.00     0.000 N
ATOM     47  HD  NAG B   3      12.089   4.227  17.5140  0.00  0.00     0.000 HD
ATOM     47   C  NAG B   3      11.782   6.215  18.0760  0.00  0.00     0.000 C
ATOM     48   C  NAG B   3      12.824   6.734  19.0220  0.00  0.00     0.000 C
ATOM     49   O  NAG B   3      11.031   6.969  17.4610  0.00  0.00     0.000 OA
ENDBRANCH 35 47
BRANCH 34 50
ATOM     50  O4  BDP B   4       9.399   3.762  18.7890  0.00  0.00     0.000 O
BRANCH 50 54
ATOM     51  C1  BDP B   4       6.993   3.378  22.0470  0.00  0.00     0.000 C
ATOM     52  C2  BDP B   4       7.224   2.083  21.2770  0.00  0.00     0.000 C
ATOM     53  C3  BDP B   4       8.392   2.274  20.3580  0.00  0.00     0.000 C
ATOM     54  C4  BDP B   4       8.146   3.511  19.4460  0.00  0.00     0.000 C
ATOM     55  C5  BDP B   4       7.720   4.740  20.2390  0.00  0.00     0.000 C
ATOM     56  O5  BDP B   4       6.663   4.412  21.1370  0.00  0.00     0.000 O
ATOM     57   O  BDP B   4       7.500   1.025  22.1690  0.00  0.00     0.000 O
ATOM     59  HD  BDP B   4       6.763   0.572  22.2050  0.00  0.00     0.000 HD
ATOM     59   O  BDP B   4       8.457   1.106  19.5140  0.00  0.00     0.000 O
ATOM     61  HD  BDP B   4       7.720   0.653  19.5490  0.00  0.00     0.000 HD
BRANCH 55 61
ATOM     61   C  BDP B   4       7.244   5.815  19.2790  0.00  0.00     0.000 C
ATOM     62   O  BDP B   4       6.054   5.761  18.8740  0.00  0.00     0.000 OA
ATOM     63   O  BDP B   4       8.066   6.718  18.9330  0.00  0.00     0.000 OA
ENDBRANCH 55 61
BRANCH 51 64
ATOM     64  O3  NAG B   5       5.909   3.141  22.9650  0.00  0.00     0.000 O
BRANCH 64 67
ATOM     65  C1  NAG B   5       5.934   4.121  26.5200  0.00  0.00     0.000 C
ATOM     66  C2  NAG B   5       6.163   3.260  25.2890  0.00  0.00     0.000 C
ATOM     67  C3  NAG B   5       5.884   4.071  24.0300  0.00  0.00     0.000 C
ATOM     68  C4  NAG B   5       4.501   4.735  24.0970  0.00  0.00     0.000 C
ATOM     69  C5  NAG B   5       4.333   5.495  25.4030  0.00  0.00     0.000 C
ATOM     70  O5  NAG B   5       4.621   4.631  26.5120  0.00  0.00     0.000 O
ATOM     71   O  NAG B   5       4.357   5.591  22.9840  0.00  0.00     0.000 O
ATOM     73  HD  NAG B   5       3.563   5.244  22.9730  0.00  0.00     0.000 HD
ATOM     73   C  NAG B   5       2.932   6.086  25.6140  0.00  0.00     0.000 C
ATOM     74   O  NAG B   5       1.965   5.019  25.7090  0.00  0.00     0.000 O
ATOM     76  HD  NAG B   5       1.172   4.672  25.6980  0.00  0.00     0.000 HD
BRANCH 66 78
ATOM     76   N  NAG B   5       6.706   1.911  25.5390  0.00  0.00     0.000 N
ATOM     78  HD  NAG B   5       6.949   2.628  25.1180  0.00  0.00     0.000 HD
ATOM     78   C  NAG B   5       7.960   1.505  25.2810  0.00  0.00     0.000 C
ATOM     79   C  NAG B   5       8.217   0.074  25.6660  0.00  0.00     0.000 C
ATOM     80   O  NAG B   5       8.849   2.262  24.7500  0.00  0.00     0.000 OA
ENDBRANCH 66 78
BRANCH 65 81
ATOM     81  O4  BDP B   6       6.150   3.349  27.7080  0.00  0.00     0.000 O
BRANCH 81 85
ATOM     82  C1  BDP B   6       7.682   3.771  31.6880  0.00  0.00     0.000 C
ATOM     83  C2  BDP B   6       6.408   4.535  31.3370  0.00  0.00     0.000 C
ATOM     84  C3  BDP B   6       5.730   4.012  30.0680  0.00  0.00     0.000 C
ATOM     85  C4  BDP B   6       6.707   3.919  28.8950  0.00  0.00     0.000 C
ATOM     86  C5  BDP B   6       7.964   3.158  29.3810  0.00  0.00     0.000 C
ATOM     87  O5  BDP B   6       8.554   3.781  30.5670  0.00  0.00     0.000 O
ATOM     88   O  BDP B   6       5.538   4.356  32.4520  0.00  0.00     0.000 O
ATOM     90  HD  BDP B   6       4.706   4.197  32.6290  0.00  0.00     0.000 HD
ATOM     90   O  BDP B   6       4.615   4.845  29.7420  0.00  0.00     0.000 O
ATOM     92  HD  BDP B   6       3.783   4.687  29.9200  0.00  0.00     0.000 HD
BRANCH 86 92
ATOM     92   C  BDP B   6       9.063   3.237  28.3490  0.00  0.00     0.000 C
ATOM     93   O  BDP B   6       9.770   2.211  28.1110  0.00  0.00     0.000 OA
ATOM     94   O  BDP B   6       9.217   4.341  27.7400  0.00  0.00     0.000 OA
ENDBRANCH 86 92
BRANCH 82 95
ATOM     95  O3  NAG B   7       8.342   4.459  32.7680  0.00  0.00     0.000 O
BRANCH 95 98
ATOM     96  C1  NAG B   7       9.861   3.468  35.9380  0.00  0.00     0.000 C
ATOM     97  C2  NAG B   7       8.968   4.290  35.0180  0.00  0.00     0.000 C
ATOM     98  C3  NAG B   7       9.225   3.731  33.6200  0.00  0.00     0.000 C
ATOM     99  C4  NAG B   7      10.699   3.893  33.2590  0.00  0.00     0.000 C
ATOM    100  C5  NAG B   7      11.595   3.271  34.3310  0.00  0.00     0.000 C
ATOM    101  O5  NAG B   7      11.216   3.781  35.6000  0.00  0.00     0.000 O
BRANCH 97 104
ATOM    102   N  NAG B   7       7.514   4.158  35.1820  0.00  0.00     0.000 N
ATOM    104  HD  NAG B   7       6.674   4.018  35.0230  0.00  0.00     0.000 HD
ATOM    104   O  NAG B   7       5.397   4.846  35.6000  0.00  0.00     0.000 OA
ATOM    105   C  NAG B   7       6.619   5.089  35.5630  0.00  0.00     0.000 C
ATOM    106   C  NAG B   7       7.102   6.449  35.9360  0.00  0.00     0.000 C
ENDBRANCH 97 104
ATOM    107   O  NAG B   7      13.815   2.722  34.8560  0.00  0.00     0.000 O
ATOM    109  HD  NAG B   7      12.991   2.462  34.9050  0.00  0.00     0.000 HD
ATOM    109   O  NAG B   7      13.815   2.722  34.8560  0.00  0.00     0.000 O
ATOM    111  HD  NAG B   7      12.991   2.462  34.9050  0.00  0.00     0.000 HD
ENDBRANCH 95 98
ENDBRANCH 82 95
ENDBRANCH 81 85
ENDBRANCH 65 81
ENDBRANCH 64 67
ENDBRANCH 51 64
ENDBRANCH 50 54
ENDBRANCH 34 50
ENDBRANCH 33 36
ENDBRANCH 20 33
ENDBRANCH 19 23
ENDBRANCH 1 19
TORSDOF 19
ENDMDL
MODEL 90
REMARK VINA RESULT:      -5.1      7.718     16.625
ROOT
ATOM      1  C1  NAG B   1      15.647   7.998   8.6190  0.00  0.00     0.000 C
ATOM      2  C2  NAG B   1      15.915   9.149   7.6520  0.00  0.00     0.000 C
ATOM      3  C3  NAG B   1      16.793   8.720   6.4940  0.00  0.00     0.000 C
ATOM      4  C4  NAG B   1      18.072   8.184   7.1280  0.00  0.00     0.000 C
ATOM      5  C5  NAG B   1      17.735   6.951   7.9760  0.00  0.00     0.000 C
ATOM      6  O5  NAG B   1      16.821   7.287   9.0430  0.00  0.00     0.000 O
ATOM      7   O  NAG B   1      17.082   9.814   5.5950  0.00  0.00     0.000 O
ATOM      9  HD  NAG B   1      16.275   9.992   5.8510  0.00  0.00     0.000 HD
ATOM      9   O  NAG B   1      19.006   7.832   6.1200  0.00  0.00     0.000 O
ATOM     11  HD  NAG B   1      18.198   8.010   6.3770  0.00  0.00     0.000 HD
ATOM     11   C  NAG B   1      19.023   6.315   8.5120  0.00  0.00     0.000 C
ATOM     12   O  NAG B   1      18.795   5.647   9.7510  0.00  0.00     0.000 O
ATOM     14  HD  NAG B   1      17.987   5.824  10.0080  0.00  0.00     0.000 HD
ENDROOT
BRANCH 2 16
ATOM     14   N  NAG B   1      14.544   9.667   7.5010  0.00  0.00     0.000 N
ATOM     16  HD  NAG B   1      13.875   9.988   7.9480  0.00  0.00     0.000 HD
ATOM     16   C  NAG B   1      14.251  10.979   7.4910  0.00  0.00     0.000 C
ATOM     17   C  NAG B   1      15.348  11.995   7.6660  0.00  0.00     0.000 C
ATOM     18   O  NAG B   1      13.099  11.375   7.3120  0.00  0.00     0.000 OA
ENDBRANCH 2 16
BRANCH 1 19
ATOM     19  O4  BDP B   2      15.149   8.656   9.7750  0.00  0.00     0.000 O
BRANCH 19 23
ATOM     20  C1  BDP B   2      13.617   7.458  13.4030  0.00  0.00     0.000 C
ATOM     21  C2  BDP B   2      15.125   7.422  13.2640  0.00  0.00     0.000 C
ATOM     22  C3  BDP B   2      15.587   8.257  12.0910  0.00  0.00     0.000 C
ATOM     23  C4  BDP B   2      14.833   7.799  10.8460  0.00  0.00     0.000 C
ATOM     24  C5  BDP B   2      13.341   7.889  11.0990  0.00  0.00     0.000 C
ATOM     25  O5  BDP B   2      12.994   7.058  12.1900  0.00  0.00     0.000 O
ATOM     26   O  BDP B   2      15.736   7.886  14.4490  0.00  0.00     0.000 O
ATOM     28  HD  BDP B   2      14.918   7.798  14.7180  0.00  0.00     0.000 HD
ATOM     28   O  BDP B   2      17.009   8.117  11.9430  0.00  0.00     0.000 O
ATOM     30  HD  BDP B   2      16.191   8.029  12.2120  0.00  0.00     0.000 HD
BRANCH 24 30
ATOM     30   C  BDP B   2      12.544   7.446   9.9240  0.00  0.00     0.000 C
ATOM     31   O  BDP B   2      12.396   6.212   9.7640  0.00  0.00     0.000 OA
ATOM     32   O  BDP B   2      12.070   8.327   9.1520  0.00  0.00     0.000 OA
ENDBRANCH 24 30
BRANCH 20 33
ATOM     33  O3  NAG B   3      13.344   6.503  14.3990  0.00  0.00     0.000 O
BRANCH 33 36
ATOM     34  C1  NAG B   3       9.931   6.215  15.9550  0.00  0.00     0.000 C
ATOM     35  C2  NAG B   3      11.348   6.718  15.7530  0.00  0.00     0.000 C
ATOM     36  C3  NAG B   3      11.953   6.174  14.4500  0.00  0.00     0.000 C
ATOM     37  C4  NAG B   3      11.804   4.655  14.4180  0.00  0.00     0.000 C
ATOM     38  C5  NAG B   3      10.360   4.259  14.7170  0.00  0.00     0.000 C
ATOM     39  O5  NAG B   3       9.961   4.795  15.9670  0.00  0.00     0.000 O
ATOM     40   O  NAG B   3      12.179   4.152  13.1260  0.00  0.00     0.000 O
ATOM     42  HD  NAG B   3      11.391   3.796  13.1730  0.00  0.00     0.000 HD
ATOM     42   C  NAG B   3      10.145   2.752  14.8340  0.00  0.00     0.000 C
ATOM     43   O  NAG B   3      10.854   2.255  15.9760  0.00  0.00     0.000 O
ATOM     45  HD  NAG B   3      10.065   1.899  16.0220  0.00  0.00     0.000 HD
BRANCH 35 47
ATOM     45   N  NAG B   3      12.098   7.567  16.6690  0.00  0.00     0.000 N
ATOM     47  HD  NAG B   3      12.469   6.794  16.5510  0.00  0.00     0.000 HD
ATOM     47   C  NAG B   3      12.227   8.868  16.4970  0.00  0.00     0.000 C
ATOM     48   C  NAG B   3      13.050   9.591  17.5220  0.00  0.00     0.000 C
ATOM     49   O  NAG B   3      11.727   9.452  15.5380  0.00  0.00     0.000 OA
ENDBRANCH 35 47
BRANCH 34 50
ATOM     50  O4  BDP B   4       9.579   6.711  17.2300  0.00  0.00     0.000 O
BRANCH 50 54
ATOM     51  C1  BDP B   4       6.491   7.923  19.5850  0.00  0.00     0.000 C
ATOM     52  C2  BDP B   4       6.460   6.444  19.2140  0.00  0.00     0.000 C
ATOM     53  C3  BDP B   4       7.806   6.055  18.6840  0.00  0.00     0.000 C
ATOM     54  C4  BDP B   4       8.196   6.990  17.5030  0.00  0.00     0.000 C
ATOM     55  C5  BDP B   4       8.022   8.463  17.8480  0.00  0.00     0.000 C
ATOM     56  O5  BDP B   4       6.737   8.691  18.4210  0.00  0.00     0.000 O
ATOM     57   O  BDP B   4       6.161   5.661  20.3490  0.00  0.00     0.000 O
ATOM     59  HD  BDP B   4       5.329   5.440  20.2490  0.00  0.00     0.000 HD
ATOM     59   O  BDP B   4       7.682   4.714  18.1670  0.00  0.00     0.000 O
ATOM     61  HD  BDP B   4       6.851   4.493  18.0670  0.00  0.00     0.000 HD
BRANCH 55 61
ATOM     61   C  BDP B   4       8.159   9.293  16.5850  0.00  0.00     0.000 C
ATOM     62   O  BDP B   4       7.624   8.859  15.5310  0.00  0.00     0.000 OA
ATOM     63   O  BDP B   4       8.804  10.384  16.6500  0.00  0.00     0.000 OA
ENDBRANCH 55 61
BRANCH 51 64
ATOM     64  O3  NAG B   5       5.206   8.248  20.1500  0.00  0.00     0.000 O
BRANCH 64 67
ATOM     65  C1  NAG B   5       4.908  10.611  22.9640  0.00  0.00     0.000 C
ATOM     66  C2  NAG B   5       5.167   9.301  22.2400  0.00  0.00     0.000 C
ATOM     67  C3  NAG B   5       5.179   9.535  20.7340  0.00  0.00     0.000 C
ATOM     68  C4  NAG B   5       3.913  10.276  20.2810  0.00  0.00     0.000 C
ATOM     69  C5  NAG B   5       3.688  11.521  21.1240  0.00  0.00     0.000 C
ATOM     70  O5  NAG B   5       3.697  11.176  22.5170  0.00  0.00     0.000 O
ATOM     71   O  NAG B   5       4.045  10.601  18.9140  0.00  0.00     0.000 O
ATOM     73  HD  NAG B   5       3.217  10.346  18.8980  0.00  0.00     0.000 HD
ATOM     73   C  NAG B   5       2.375  12.258  20.8260  0.00  0.00     0.000 C
ATOM     74   O  NAG B   5       1.258  11.408  21.1610  0.00  0.00     0.000 O
ATOM     76  HD  NAG B   5       0.430  11.154  21.1450  0.00  0.00     0.000 HD
BRANCH 66 78
ATOM     76   N  NAG B   5       6.413   8.824  22.8700  0.00  0.00     0.000 N
ATOM     78  HD  NAG B   5       5.614   8.520  22.7260  0.00  0.00     0.000 HD
ATOM     78   C  NAG B   5       6.670   7.563  23.2540  0.00  0.00     0.000 C
ATOM     79   C  NAG B   5       8.041   7.386  23.8490  0.00  0.00     0.000 C
ATOM     80   O  NAG B   5       5.826   6.605  23.1330  0.00  0.00     0.000 OA
ENDBRANCH 66 78
BRANCH 65 81
ATOM     81  O4  BDP B   6       4.849  10.388  24.3790  0.00  0.00     0.000 O
BRANCH 81 85
ATOM     82  C1  BDP B   6       5.628  12.529  28.0080  0.00  0.00     0.000 C
ATOM     83  C2  BDP B   6       4.202  12.557  27.4650  0.00  0.00     0.000 C
ATOM     84  C3  BDP B   6       3.938  11.459  26.4310  0.00  0.00     0.000 C
ATOM     85  C4  BDP B   6       4.994  11.452  25.3230  0.00  0.00     0.000 C
ATOM     86  C5  BDP B   6       6.388  11.459  25.9950  0.00  0.00     0.000 C
ATOM     87  O5  BDP B   6       6.541  12.582  26.9220  0.00  0.00     0.000 O
ATOM     88   O  BDP B   6       3.360  12.357  28.5970  0.00  0.00     0.000 O
ATOM     90  HD  BDP B   6       2.647  11.924  28.8310  0.00  0.00     0.000 HD
ATOM     90   O  BDP B   6       2.626  11.619  25.8860  0.00  0.00     0.000 O
ATOM     92  HD  BDP B   6       1.913  11.186  26.1200  0.00  0.00     0.000 HD
BRANCH 86 92
ATOM     92   C  BDP B   6       7.469  11.691  24.9670  0.00  0.00     0.000 C
ATOM     93   O  BDP B   6       7.589  12.835  24.4340  0.00  0.00     0.000 OA
ATOM     94   O  BDP B   6       8.239  10.717  24.6970  0.00  0.00     0.000 OA
ENDBRANCH 86 92
BRANCH 82 95
ATOM     95  O3  NAG B   7       5.830  13.707  28.8130  0.00  0.00     0.000 O
BRANCH 95 98
ATOM     96  C1  NAG B   7       6.494  14.583  32.2960  0.00  0.00     0.000 C
ATOM     97  C2  NAG B   7       5.903  14.760  30.9040  0.00  0.00     0.000 C
ATOM     98  C3  NAG B   7       6.434  13.576  30.0990  0.00  0.00     0.000 C
ATOM     99  C4  NAG B   7       7.960  13.613  30.0670  0.00  0.00     0.000 C
ATOM    100  C5  NAG B   7       8.534  13.686  31.4830  0.00  0.00     0.000 C
ATOM    101  O5  NAG B   7       7.910  14.755  32.1780  0.00  0.00     0.000 O
BRANCH 97 104
ATOM    102   N  NAG B   7       4.438  14.674  30.8190  0.00  0.00     0.000 N
ATOM    104  HD  NAG B   7       3.636  14.409  30.6280  0.00  0.00     0.000 HD
ATOM    104   O  NAG B   7       2.345  15.328  30.2530  0.00  0.00     0.000 OA
ATOM    105   C  NAG B   7       3.567  15.566  30.3110  0.00  0.00     0.000 C
ATOM    106   C  NAG B   7       4.082  16.865  29.7920  0.00  0.00     0.000 C
ENDBRANCH 97 104
ATOM    107   O  NAG B   7      10.525  13.617  32.7230  0.00  0.00     0.000 O
ATOM    109  HD  NAG B   7       9.695  13.372  32.7020  0.00  0.00     0.000 HD
ATOM    109   O  NAG B   7      10.525  13.617  32.7230  0.00  0.00     0.000 O
ATOM    111  HD  NAG B   7       9.695  13.372  32.7020  0.00  0.00     0.000 HD
ENDBRANCH 95 98
ENDBRANCH 82 95
ENDBRANCH 81 85
ENDBRANCH 65 81
ENDBRANCH 64 67
ENDBRANCH 51 64
ENDBRANCH 50 54
ENDBRANCH 34 50
ENDBRANCH 33 36
ENDBRANCH 20 33
ENDBRANCH 19 23
ENDBRANCH 1 19
TORSDOF 19
ENDMDL
MODEL 91
REMARK VINA RESULT:      -5.0      5.399     16.594
ROOT
ATOM      1  C1  NAG B   1      18.640  16.682   3.9780  0.00  0.00     0.000 C
ATOM      2  C2  NAG B   1      18.770  15.725   2.7970  0.00  0.00     0.000 C
ATOM      3  C3  NAG B   1      18.993  16.463   1.4930  0.00  0.00     0.000 C
ATOM      4  C4  NAG B   1      17.803  17.405   1.3490  0.00  0.00     0.000 C
ATOM      5  C5  NAG B   1      17.820  18.418   2.5010  0.00  0.00     0.000 C
ATOM      6  O5  NAG B   1      17.705  17.755   3.7780  0.00  0.00     0.000 O
ATOM      7   O  NAG B   1      19.079  15.564   0.3640  0.00  0.00     0.000 O
ATOM      9  HD  NAG B   1      19.450  15.104   0.9970  0.00  0.00     0.000 HD
ATOM      9   O  NAG B   1      17.869  18.089   0.1080  0.00  0.00     0.000 O
ATOM     11  HD  NAG B   1      18.240  17.629   0.7410  0.00  0.00     0.000 HD
ATOM     11   C  NAG B   1      16.711  19.459   2.3000  0.00  0.00     0.000 C
ATOM     12   O  NAG B   1      16.253  19.974   3.5490  0.00  0.00     0.000 O
ATOM     14  HD  NAG B   1      16.624  19.515   4.1820  0.00  0.00     0.000 HD
ENDROOT
BRANCH 2 16
ATOM     14   N  NAG B   1      18.578  14.288   3.0650  0.00  0.00     0.000 N
ATOM     16  HD  NAG B   1      18.577  13.510   2.6850  0.00  0.00     0.000 HD
ATOM     16   C  NAG B   1      19.599  13.426   3.2150  0.00  0.00     0.000 C
ATOM     17   C  NAG B   1      21.018  13.911   3.0820  0.00  0.00     0.000 C
ATOM     18   O  NAG B   1      19.400  12.243   3.4880  0.00  0.00     0.000 OA
ENDBRANCH 2 16
BRANCH 1 19
ATOM     19  O4  BDP B   2      18.084  15.864   4.9980  0.00  0.00     0.000 O
BRANCH 19 23
ATOM     20  C1  BDP B   2      15.289  16.353   7.9800  0.00  0.00     0.000 C
ATOM     21  C2  BDP B   2      14.758  16.297   6.5620  0.00  0.00     0.000 C
ATOM     22  C3  BDP B   2      15.781  15.707   5.6180  0.00  0.00     0.000 C
ATOM     23  C4  BDP B   2      17.084  16.487   5.7680  0.00  0.00     0.000 C
ATOM     24  C5  BDP B   2      17.521  16.464   7.2200  0.00  0.00     0.000 C
ATOM     25  O5  BDP B   2      16.521  17.059   8.0250  0.00  0.00     0.000 O
ATOM     26   O  BDP B   2      13.571  15.535   6.5140  0.00  0.00     0.000 O
ATOM     28  HD  BDP B   2      13.664  15.628   7.3700  0.00  0.00     0.000 HD
ATOM     28   O  BDP B   2      15.271  15.761   4.2760  0.00  0.00     0.000 O
ATOM     30  HD  BDP B   2      15.364  15.853   5.1320  0.00  0.00     0.000 HD
BRANCH 24 30
ATOM     30   C  BDP B   2      18.783  17.218   7.4390  0.00  0.00     0.000 C
ATOM     31   O  BDP B   2      18.690  18.456   7.6100  0.00  0.00     0.000 OA
ATOM     32   O  BDP B   2      19.874  16.579   7.4330  0.00  0.00     0.000 OA
ENDBRANCH 24 30
BRANCH 20 33
ATOM     33  O3  NAG B   3      14.312  17.083   8.6800  0.00  0.00     0.000 O
BRANCH 33 36
ATOM     34  C1  NAG B   3      13.989  16.661  12.4050  0.00  0.00     0.000 C
ATOM     35  C2  NAG B   3      13.798  16.354  10.9310  0.00  0.00     0.000 C
ATOM     36  C3  NAG B   3      14.670  17.265  10.0530  0.00  0.00     0.000 C
ATOM     37  C4  NAG B   3      14.427  18.722  10.4390  0.00  0.00     0.000 C
ATOM     38  C5  NAG B   3      14.561  18.899  11.9490  0.00  0.00     0.000 C
ATOM     39  O5  NAG B   3      13.666  18.027  12.6190  0.00  0.00     0.000 O
ATOM     40   O  NAG B   3      15.374  19.570   9.7720  0.00  0.00     0.000 O
ATOM     42  HD  NAG B   3      15.525  19.831  10.5840  0.00  0.00     0.000 HD
ATOM     42   C  NAG B   3      14.206  20.300  12.4400  0.00  0.00     0.000 C
ATOM     43   O  NAG B   3      12.814  20.549  12.2130  0.00  0.00     0.000 O
ATOM     45  HD  NAG B   3      12.964  20.809  13.0250  0.00  0.00     0.000 HD
BRANCH 35 47
ATOM     45   N  NAG B   3      13.976  14.912  10.8100  0.00  0.00     0.000 N
ATOM     47  HD  NAG B   3      14.048  15.190  11.6270  0.00  0.00     0.000 HD
ATOM     47   C  NAG B   3      13.274  14.171   9.9760  0.00  0.00     0.000 C
ATOM     48   C  NAG B   3      13.568  12.700   9.9920  0.00  0.00     0.000 C
ATOM     49   O  NAG B   3      12.409  14.652   9.2470  0.00  0.00     0.000 OA
ENDBRANCH 35 47
BRANCH 34 50
ATOM     50  O4  BDP B   4      13.047  15.826  13.0450  0.00  0.00     0.000 O
BRANCH 50 54
ATOM     51  C1  BDP B   4      12.241  13.804  16.4820  0.00  0.00     0.000 C
ATOM     52  C2  BDP B   4      11.855  15.278  16.5110  0.00  0.00     0.000 C
ATOM     53  C3  BDP B   4      11.849  15.800  15.1070  0.00  0.00     0.000 C
ATOM     54  C4  BDP B   4      13.227  15.526  14.4390  0.00  0.00     0.000 C
ATOM     55  C5  BDP B   4      13.674  14.080  14.6050  0.00  0.00     0.000 C
ATOM     56  O5  BDP B   4      13.554  13.674  15.9660  0.00  0.00     0.000 O
ATOM     57   O  BDP B   4      10.571  15.438  17.0740  0.00  0.00     0.000 O
ATOM     59  HD  BDP B   4      10.719  15.724  17.8780  0.00  0.00     0.000 HD
ATOM     59   O  BDP B   4      11.673  17.229  15.1910  0.00  0.00     0.000 O
ATOM     61  HD  BDP B   4      11.821  17.516  15.9940  0.00  0.00     0.000 HD
BRANCH 55 61
ATOM     61   C  BDP B   4      15.123  13.950  14.1720  0.00  0.00     0.000 C
ATOM     62   O  BDP B   4      15.368  13.323  13.1080  0.00  0.00     0.000 OA
ATOM     63   O  BDP B   4      16.017  14.480  14.8990  0.00  0.00     0.000 OA
ENDBRANCH 55 61
BRANCH 51 64
ATOM     64  O3  NAG B   5      12.175  13.318  17.8370  0.00  0.00     0.000 O
BRANCH 64 67
ATOM     65  C1  NAG B   5      11.661   9.687  18.2130  0.00  0.00     0.000 C
ATOM     66  C2  NAG B   5      11.341  11.131  17.8680  0.00  0.00     0.000 C
ATOM     67  C3  NAG B   5      12.606  11.977  17.9550  0.00  0.00     0.000 C
ATOM     68  C4  NAG B   5      13.306  11.783  19.3070  0.00  0.00     0.000 C
ATOM     69  C5  NAG B   5      13.499  10.304  19.6060  0.00  0.00     0.000 C
ATOM     70  O5  NAG B   5      12.245   9.615  19.4930  0.00  0.00     0.000 O
ATOM     71   O  NAG B   5      14.542  12.464  19.2770  0.00  0.00     0.000 O
ATOM     73  HD  NAG B   5      14.299  12.691  20.0770  0.00  0.00     0.000 HD
ATOM     73   C  NAG B   5      14.078  10.010  20.9960  0.00  0.00     0.000 C
ATOM     74   O  NAG B   5      13.149  10.448  22.0100  0.00  0.00     0.000 O
ATOM     76  HD  NAG B   5      12.906  10.675  22.8090  0.00  0.00     0.000 HD
BRANCH 66 78
ATOM     76   N  NAG B   5      10.631  10.950  16.5880  0.00  0.00     0.000 N
ATOM     78  HD  NAG B   5      10.512  11.388  17.3260  0.00  0.00     0.000 HD
ATOM     78   C  NAG B   5       9.584  11.671  16.1570  0.00  0.00     0.000 C
ATOM     79   C  NAG B   5       9.089  11.258  14.7980  0.00  0.00     0.000 C
ATOM     80   O  NAG B   5       9.051  12.616  16.8430  0.00  0.00     0.000 OA
ENDBRANCH 66 78
BRANCH 65 81
ATOM     81  O4  BDP B   6      10.466   8.896  18.1780  0.00  0.00     0.000 O
BRANCH 81 85
ATOM     82  C1  BDP B   6       9.280   4.779  18.0980  0.00  0.00     0.000 C
ATOM     83  C2  BDP B   6       9.576   5.402  19.4600  0.00  0.00     0.000 C
ATOM     84  C3  BDP B   6       9.585   6.932  19.4250  0.00  0.00     0.000 C
ATOM     85  C4  BDP B   6      10.491   7.473  18.3160  0.00  0.00     0.000 C
ATOM     86  C5  BDP B   6      10.121   6.746  17.0020  0.00  0.00     0.000 C
ATOM     87  O5  BDP B   6      10.198   5.291  17.1430  0.00  0.00     0.000 O
ATOM     88   O  BDP B   6       8.532   4.951  20.3190  0.00  0.00     0.000 O
ATOM     90  HD  BDP B   6       8.008   5.244  20.9430  0.00  0.00     0.000 HD
ATOM     90   O  BDP B   6       9.980   7.439  20.7020  0.00  0.00     0.000 O
ATOM     92  HD  BDP B   6       9.455   7.732  21.3260  0.00  0.00     0.000 HD
BRANCH 86 92
ATOM     92   C  BDP B   6      11.129   7.056  15.9230  0.00  0.00     0.000 C
ATOM     93   O  BDP B   6      10.882   7.974  15.0830  0.00  0.00     0.000 OA
ATOM     94   O  BDP B   6      12.209   6.387  15.9190  0.00  0.00     0.000 OA
ENDBRANCH 86 92
BRANCH 82 95
ATOM     95  O3  NAG B   7       9.490   3.356  18.1950  0.00  0.00     0.000 O
BRANCH 95 98
ATOM     96  C1  NAG B   7       8.716   0.486  16.0730  0.00  0.00     0.000 C
ATOM     97  C2  NAG B   7       8.756   1.294  17.3630  0.00  0.00     0.000 C
ATOM     98  C3  NAG B   7       9.508   2.573  17.0020  0.00  0.00     0.000 C
ATOM     99  C4  NAG B   7      10.913   2.230  16.5140  0.00  0.00     0.000 C
ATOM    100  C5  NAG B   7      10.860   1.218  15.3680  0.00  0.00     0.000 C
ATOM    101  O5  NAG B   7      10.064   0.113  15.7670  0.00  0.00     0.000 O
BRANCH 97 104
ATOM    102   N  NAG B   7       7.416   1.626  17.8660  0.00  0.00     0.000 N
ATOM    104  HD  NAG B   7       6.682   2.051  18.0430  0.00  0.00     0.000 HD
ATOM    104   O  NAG B   7       5.812   2.008  19.4180  0.00  0.00     0.000 OA
ATOM    105   C  NAG B   7       6.970   1.644  19.1360  0.00  0.00     0.000 C
ATOM    106   C  NAG B   7       7.892   1.232  20.2330  0.00  0.00     0.000 C
ENDBRANCH 97 104
ATOM    107   O  NAG B   7      12.163   0.111  13.7610  0.00  0.00     0.000 O
ATOM    109  HD  NAG B   7      11.402   0.496  13.9140  0.00  0.00     0.000 HD
ATOM    109   O  NAG B   7      12.163   0.111  13.7610  0.00  0.00     0.000 O
ATOM    111  HD  NAG B   7      11.402   0.496  13.9140  0.00  0.00     0.000 HD
ENDBRANCH 95 98
ENDBRANCH 82 95
ENDBRANCH 81 85
ENDBRANCH 65 81
ENDBRANCH 64 67
ENDBRANCH 51 64
ENDBRANCH 50 54
ENDBRANCH 34 50
ENDBRANCH 33 36
ENDBRANCH 20 33
ENDBRANCH 19 23
ENDBRANCH 1 19
TORSDOF 19
ENDMDL
MODEL 92
REMARK VINA RESULT:      -5.0      5.223      6.992
ROOT
ATOM      1  C1  NAG B   1      11.896   6.774  15.1710  0.00  0.00     0.000 C
ATOM      2  C2  NAG B   1      10.581   7.050  15.8960  0.00  0.00     0.000 C
ATOM      3  C3  NAG B   1      10.086   5.832  16.6490  0.00  0.00     0.000 C
ATOM      4  C4  NAG B   1       9.951   4.731  15.6010  0.00  0.00     0.000 C
ATOM      5  C5  NAG B   1      11.336   4.423  15.0160  0.00  0.00     0.000 C
ATOM      6  O5  NAG B   1      11.897   5.584  14.3670  0.00  0.00     0.000 O
ATOM      7   O  NAG B   1       8.821   6.074  17.3060  0.00  0.00     0.000 O
ATOM      9  HD  NAG B   1       9.216   6.842  17.3710  0.00  0.00     0.000 HD
ATOM      9   O  NAG B   1       9.407   3.562  16.1880  0.00  0.00     0.000 O
ATOM     11  HD  NAG B   1       9.801   4.330  16.2540  0.00  0.00     0.000 HD
ATOM     11   C  NAG B   1      11.245   3.226  14.0600  0.00  0.00     0.000 C
ATOM     12   O  NAG B   1      12.242   3.300  13.0430  0.00  0.00     0.000 O
ATOM     14  HD  NAG B   1      12.637   4.068  13.1080  0.00  0.00     0.000 HD
ENDROOT
BRANCH 2 16
ATOM     14   N  NAG B   1      10.787   8.247  16.7300  0.00  0.00     0.000 N
ATOM     16  HD  NAG B   1      11.160   9.029  16.7340  0.00  0.00     0.000 HD
ATOM     16   C  NAG B   1      10.069   9.375  16.5870  0.00  0.00     0.000 C
ATOM     17   C  NAG B   1       9.014   9.463  15.5160  0.00  0.00     0.000 C
ATOM     18   O  NAG B   1      10.235  10.337  17.3350  0.00  0.00     0.000 OA
ENDBRANCH 2 16
BRANCH 1 19
ATOM     19  O4  BDP B   2      11.998   7.861  14.2620  0.00  0.00     0.000 O
BRANCH 19 23
ATOM     20  C1  BDP B   2      13.973   8.490  10.7050  0.00  0.00     0.000 C
ATOM     21  C2  BDP B   2      12.600   7.858  10.6100  0.00  0.00     0.000 C
ATOM     22  C3  BDP B   2      11.814   8.059  11.8860  0.00  0.00     0.000 C
ATOM     23  C4  BDP B   2      12.656   7.555  13.0550  0.00  0.00     0.000 C
ATOM     24  C5  BDP B   2      13.996   8.264  13.0550  0.00  0.00     0.000 C
ATOM     25  O5  BDP B   2      14.672   7.999  11.8400  0.00  0.00     0.000 O
ATOM     26   O  BDP B   2      11.885   8.402   9.5210  0.00  0.00     0.000 O
ATOM     28  HD  BDP B   2      12.678   8.710   9.3590  0.00  0.00     0.000 HD
ATOM     28   O  BDP B   2      10.561   7.364  11.7850  0.00  0.00     0.000 O
ATOM     30  HD  BDP B   2      11.354   7.673  11.6220  0.00  0.00     0.000 HD
BRANCH 24 30
ATOM     30   C  BDP B   2      14.873   7.810  14.1660  0.00  0.00     0.000 C
ATOM     31   O  BDP B   2      15.174   8.654  15.0410  0.00  0.00     0.000 OA
ATOM     32   O  BDP B   2      15.271   6.610  14.1660  0.00  0.00     0.000 OA
ENDBRANCH 24 30
BRANCH 20 33
ATOM     33  O3  NAG B   3      14.627   8.060   9.5370  0.00  0.00     0.000 O
BRANCH 33 36
ATOM     34  C1  NAG B   3      17.521   9.958   8.0610  0.00  0.00     0.000 C
ATOM     35  C2  NAG B   3      16.078   9.563   8.3120  0.00  0.00     0.000 C
ATOM     36  C3  NAG B   3      15.966   8.556   9.4670  0.00  0.00     0.000 C
ATOM     37  C4  NAG B   3      16.915   7.387   9.2130  0.00  0.00     0.000 C
ATOM     38  C5  NAG B   3      18.314   7.902   8.8880  0.00  0.00     0.000 C
ATOM     39  O5  NAG B   3      18.261   8.780   7.7770  0.00  0.00     0.000 O
ATOM     40   O  NAG B   3      16.973   6.541  10.3710  0.00  0.00     0.000 O
ATOM     42  HD  NAG B   3      17.822   6.687  10.2820  0.00  0.00     0.000 HD
ATOM     42   C  NAG B   3      19.299   6.805   8.4910  0.00  0.00     0.000 C
ATOM     43   O  NAG B   3      18.883   6.213   7.2540  0.00  0.00     0.000 O
ATOM     45  HD  NAG B   3      19.732   6.359   7.1650  0.00  0.00     0.000 HD
BRANCH 35 47
ATOM     45   N  NAG B   3      15.138  10.298   7.4750  0.00  0.00     0.000 N
ATOM     47  HD  NAG B   3      15.387   9.550   7.1180  0.00  0.00     0.000 HD
ATOM     47   C  NAG B   3      14.121  10.978   7.9660  0.00  0.00     0.000 C
ATOM     48   C  NAG B   3      13.238  11.661   6.9640  0.00  0.00     0.000 C
ATOM     49   O  NAG B   3      13.892  11.028   9.1730  0.00  0.00     0.000 OA
ENDBRANCH 35 47
BRANCH 34 50
ATOM     50  O4  BDP B   4      17.447  10.782   6.9160  0.00  0.00     0.000 O
BRANCH 50 54
ATOM     51  C1  BDP B   4      19.263  13.901   5.0380  0.00  0.00     0.000 C
ATOM     52  C2  BDP B   4      19.743  12.526   4.5870  0.00  0.00     0.000 C
ATOM     53  C3  BDP B   4      18.762  11.497   5.0590  0.00  0.00     0.000 C
ATOM     54  C4  BDP B   4      18.570  11.621   6.5980  0.00  0.00     0.000 C
ATOM     55  C5  BDP B   4      18.288  13.053   7.0330  0.00  0.00     0.000 C
ATOM     56  O5  BDP B   4      19.235  13.946   6.4530  0.00  0.00     0.000 O
ATOM     57   O  BDP B   4      19.833  12.475   3.1790  0.00  0.00     0.000 O
ATOM     59  HD  BDP B   4      20.680  12.542   3.0120  0.00  0.00     0.000 HD
ATOM     59   O  BDP B   4      19.344  10.205   4.7870  0.00  0.00     0.000 O
ATOM     61  HD  BDP B   4      20.191  10.273   4.6200  0.00  0.00     0.000 HD
BRANCH 55 61
ATOM     61   C  BDP B   4      18.378  13.144   8.5460  0.00  0.00     0.000 C
ATOM     62   O  BDP B   4      17.373  13.571   9.1730  0.00  0.00     0.000 OA
ATOM     63   O  BDP B   4      19.458  12.785   9.1060  0.00  0.00     0.000 OA
ENDBRANCH 55 61
BRANCH 51 64
ATOM     64  O3  NAG B   5      20.191  14.870   4.5140  0.00  0.00     0.000 O
BRANCH 64 67
ATOM     65  C1  NAG B   5      19.156  18.337   3.8070  0.00  0.00     0.000 C
ATOM     66  C2  NAG B   5      19.335  16.844   3.5930  0.00  0.00     0.000 C
ATOM     67  C3  NAG B   5      19.853  16.196   4.8710  0.00  0.00     0.000 C
ATOM     68  C4  NAG B   5      21.102  16.920   5.3900  0.00  0.00     0.000 C
ATOM     69  C5  NAG B   5      20.856  18.417   5.4830  0.00  0.00     0.000 C
ATOM     70  O5  NAG B   5      20.373  18.912   4.2250  0.00  0.00     0.000 O
ATOM     71   O  NAG B   5      21.448  16.379   6.6470  0.00  0.00     0.000 O
ATOM     73  HD  NAG B   5      22.247  16.435   6.3160  0.00  0.00     0.000 HD
ATOM     73   C  NAG B   5      22.093  19.239   5.8720  0.00  0.00     0.000 C
ATOM     74   O  NAG B   5      23.097  19.118   4.8430  0.00  0.00     0.000 O
ATOM     76  HD  NAG B   5      23.896  19.174   4.5120  0.00  0.00     0.000 HD
BRANCH 66 78
ATOM     76   N  NAG B   5      18.019  16.526   3.0070  0.00  0.00     0.000 N
ATOM     78  HD  NAG B   5      18.849  16.329   2.8540  0.00  0.00     0.000 HD
ATOM     78   C  NAG B   5      17.774  15.581   2.0850  0.00  0.00     0.000 C
ATOM     79   C  NAG B   5      16.323  15.483   1.6980  0.00  0.00     0.000 C
ATOM     80   O  NAG B   5      18.689  14.839   1.5770  0.00  0.00     0.000 OA
ENDBRANCH 66 78
BRANCH 65 81
ATOM     81  O4  BDP B   6      18.714  18.960   2.5940  0.00  0.00     0.000 O
BRANCH 81 85
ATOM     82  C1  BDP B   6      16.155  22.226   1.5240  0.00  0.00     0.000 C
ATOM     83  C2  BDP B   6      17.660  22.429   1.3680  0.00  0.00     0.000 C
ATOM     84  C3  BDP B   6      18.441  21.112   1.3770  0.00  0.00     0.000 C
ATOM     85  C4  BDP B   6      18.083  20.242   2.5840  0.00  0.00     0.000 C
ATOM     86  C5  BDP B   6      16.540  20.141   2.6550  0.00  0.00     0.000 C
ATOM     87  O5  BDP B   6      15.908  21.460   2.6940  0.00  0.00     0.000 O
ATOM     88   O  BDP B   6      17.828  23.074   0.1090  0.00  0.00     0.000 O
ATOM     90  HD  BDP B   6      18.341  23.054  -0.5880  0.00  0.00     0.000 HD
ATOM     90   O  BDP B   6      19.844  21.386   1.3430  0.00  0.00     0.000 O
ATOM     92  HD  BDP B   6      20.357  21.366   0.6450  0.00  0.00     0.000 HD
BRANCH 86 92
ATOM     92   C  BDP B   6      16.111  19.498   3.9520  0.00  0.00     0.000 C
ATOM     93   O  BDP B   6      16.215  20.148   5.0360  0.00  0.00     0.000 OA
ATOM     94   O  BDP B   6      15.636  18.321   3.8940  0.00  0.00     0.000 OA
ENDBRANCH 86 92
BRANCH 82 95
ATOM     95  O3  NAG B   7      15.540  23.517   1.7020  0.00  0.00     0.000 O
BRANCH 95 98
ATOM     96  C1  NAG B   7      13.040  25.725   0.2130  0.00  0.00     0.000 C
ATOM     97  C2  NAG B   7      14.233  25.360   1.0870  0.00  0.00     0.000 C
ATOM     98  C3  NAG B   7      14.384  23.848   0.9340  0.00  0.00     0.000 C
ATOM     99  C4  NAG B   7      13.111  23.150   1.4070  0.00  0.00     0.000 C
ATOM    100  C5  NAG B   7      11.882  23.709   0.6890  0.00  0.00     0.000 C
ATOM    101  O5  NAG B   7      11.884  25.123   0.8070  0.00  0.00     0.000 O
BRANCH 97 104
ATOM    102   N  NAG B   7      15.553  25.876   0.6970  0.00  0.00     0.000 N
ATOM    104  HD  NAG B   7      16.389  25.922   0.4760  0.00  0.00     0.000 HD
ATOM    104   O  NAG B   7      17.477  27.050   0.9200  0.00  0.00     0.000 OA
ATOM    105   C  NAG B   7      16.345  26.748   1.3480  0.00  0.00     0.000 C
ATOM    106   C  NAG B   7      15.861  27.357   2.6190  0.00  0.00     0.000 C
ENDBRANCH 97 104
ATOM    107   O  NAG B   7       9.575  23.416   0.3820  0.00  0.00     0.000 O
ATOM    109  HD  NAG B   7      10.322  23.618  -0.0080  0.00  0.00     0.000 HD
ATOM    109   O  NAG B   7       9.575  23.416   0.3820  0.00  0.00     0.000 O
ATOM    111  HD  NAG B   7      10.322  23.618  -0.0080  0.00  0.00     0.000 HD
ENDBRANCH 95 98
ENDBRANCH 82 95
ENDBRANCH 81 85
ENDBRANCH 65 81
ENDBRANCH 64 67
ENDBRANCH 51 64
ENDBRANCH 50 54
ENDBRANCH 34 50
ENDBRANCH 33 36
ENDBRANCH 20 33
ENDBRANCH 19 23
ENDBRANCH 1 19
TORSDOF 19
ENDMDL
MODEL 93
REMARK VINA RESULT:      -5.0      8.950     17.646
ROOT
ATOM      1  C1  NAG B   1       9.749   7.091  14.4090  0.00  0.00     0.000 C
ATOM      2  C2  NAG B   1       9.956   6.631  15.8490  0.00  0.00     0.000 C
ATOM      3  C3  NAG B   1       8.967   7.279  16.7960  0.00  0.00     0.000 C
ATOM      4  C4  NAG B   1       9.168   8.782  16.6310  0.00  0.00     0.000 C
ATOM      5  C5  NAG B   1       8.813   9.182  15.1930  0.00  0.00     0.000 C
ATOM      6  O5  NAG B   1       9.668   8.515  14.2410  0.00  0.00     0.000 O
ATOM      7   O  NAG B   1       9.182   6.878  18.1680  0.00  0.00     0.000 O
ATOM      9  HD  NAG B   1       9.385   6.159  17.7300  0.00  0.00     0.000 HD
ATOM      9   O  NAG B   1       8.344   9.488  17.5430  0.00  0.00     0.000 O
ATOM     11  HD  NAG B   1       8.547   8.769  17.1050  0.00  0.00     0.000 HD
ATOM     11   C  NAG B   1       8.876  10.707  15.0430  0.00  0.00     0.000 C
ATOM     12   O  NAG B   1       9.208  11.082  13.7080  0.00  0.00     0.000 O
ATOM     14  HD  NAG B   1       9.411  10.364  13.2690  0.00  0.00     0.000 HD
ENDROOT
BRANCH 2 16
ATOM     14   N  NAG B   1       9.958   5.159  15.7830  0.00  0.00     0.000 N
ATOM     16  HD  NAG B   1      10.274   4.489  15.3330  0.00  0.00     0.000 HD
ATOM     16   C  NAG B   1      10.964   4.403  16.2540  0.00  0.00     0.000 C
ATOM     17   C  NAG B   1      12.176   5.059  16.8620  0.00  0.00     0.000 C
ATOM     18   O  NAG B   1      10.907   3.174  16.2250  0.00  0.00     0.000 OA
ENDBRANCH 2 16
BRANCH 1 19
ATOM     19  O4  BDP B   2      10.950   6.688  13.7650  0.00  0.00     0.000 O
BRANCH 19 23
ATOM     20  C1  BDP B   2      13.933   8.564  11.6370  0.00  0.00     0.000 C
ATOM     21  C2  BDP B   2      13.883   8.852  13.1230  0.00  0.00     0.000 C
ATOM     22  C3  BDP B   2      13.054   7.820  13.8540  0.00  0.00     0.000 C
ATOM     23  C4  BDP B   2      11.685   7.740  13.1850  0.00  0.00     0.000 C
ATOM     24  C5  BDP B   2      11.860   7.437  11.7100  0.00  0.00     0.000 C
ATOM     25  O5  BDP B   2      12.620   8.465  11.1030  0.00  0.00     0.000 O
ATOM     26   O  BDP B   2      15.188   8.880  13.6600  0.00  0.00     0.000 O
ATOM     28  HD  BDP B   2      15.367   8.881  12.8130  0.00  0.00     0.000 HD
ATOM     28   O  BDP B   2      12.957   8.185  15.2400  0.00  0.00     0.000 O
ATOM     30  HD  BDP B   2      13.136   8.187  14.3920  0.00  0.00     0.000 HD
BRANCH 24 30
ATOM     30   C  BDP B   2      10.560   7.356  10.9940  0.00  0.00     0.000 C
ATOM     31   O  BDP B   2      10.332   6.317  10.3330  0.00  0.00     0.000 OA
ATOM     32   O  BDP B   2       9.763   8.334  11.0820  0.00  0.00     0.000 OA
ENDBRANCH 24 30
BRANCH 20 33
ATOM     33  O3  NAG B   3      14.570   9.694  11.0930  0.00  0.00     0.000 O
BRANCH 33 36
ATOM     34  C1  NAG B   3      16.103   9.483   7.6640  0.00  0.00     0.000 C
ATOM     35  C2  NAG B   3      15.992   9.324   9.1680  0.00  0.00     0.000 C
ATOM     36  C3  NAG B   3      14.577   9.660   9.6630  0.00  0.00     0.000 C
ATOM     37  C4  NAG B   3      14.169  11.033   9.1340  0.00  0.00     0.000 C
ATOM     38  C5  NAG B   3      14.401  11.109   7.6280  0.00  0.00     0.000 C
ATOM     39  O5  NAG B   3      15.757  10.820   7.3320  0.00  0.00     0.000 O
ATOM     40   O  NAG B   3      12.782  11.276   9.4170  0.00  0.00     0.000 O
ATOM     42  HD  NAG B   3      12.761  11.418   8.5630  0.00  0.00     0.000 HD
ATOM     42   C  NAG B   3      14.143  12.491   7.0330  0.00  0.00     0.000 C
ATOM     43   O  NAG B   3      15.101  13.422   7.5500  0.00  0.00     0.000 O
ATOM     45  HD  NAG B   3      15.080  13.565   6.6960  0.00  0.00     0.000 HD
BRANCH 35 47
ATOM     45   N  NAG B   3      17.029   8.962  10.1260  0.00  0.00     0.000 N
ATOM     47  HD  NAG B   3      16.656   9.722  10.3090  0.00  0.00     0.000 HD
ATOM     47   C  NAG B   3      17.226   7.726  10.5370  0.00  0.00     0.000 C
ATOM     48   C  NAG B   3      18.323   7.530  11.5410  0.00  0.00     0.000 C
ATOM     49   O  NAG B   3      16.534   6.790  10.1430  0.00  0.00     0.000 OA
ENDBRANCH 35 47
BRANCH 34 50
ATOM     50  O4  BDP B   4      17.471   9.249   7.4030  0.00  0.00     0.000 O
BRANCH 50 54
ATOM     51  C1  BDP B   4      20.123   7.951   4.6050  0.00  0.00     0.000 C
ATOM     52  C2  BDP B   4      19.666   9.393   4.4210  0.00  0.00     0.000 C
ATOM     53  C3  BDP B   4      19.013   9.855   5.6870  0.00  0.00     0.000 C
ATOM     54  C4  BDP B   4      17.865   8.877   6.0720  0.00  0.00     0.000 C
ATOM     55  C5  BDP B   4      18.312   7.422   6.0500  0.00  0.00     0.000 C
ATOM     56  O5  BDP B   4      18.994   7.128   4.8340  0.00  0.00     0.000 O
ATOM     57   O  BDP B   4      20.771  10.225   4.1350  0.00  0.00     0.000 O
ATOM     59  HD  BDP B   4      20.720  10.370   3.2830  0.00  0.00     0.000 HD
ATOM     59   O  BDP B   4      18.426  11.143   5.4120  0.00  0.00     0.000 O
ATOM     61  HD  BDP B   4      18.375  11.288   4.5590  0.00  0.00     0.000 HD
BRANCH 55 61
ATOM     61   C  BDP B   4      17.095   6.522   6.1700  0.00  0.00     0.000 C
ATOM     62   O  BDP B   4      16.899   5.935   7.2660  0.00  0.00     0.000 OA
ATOM     63   O  BDP B   4      16.333   6.406   5.1620  0.00  0.00     0.000 OA
ENDBRANCH 55 61
BRANCH 51 64
ATOM     64  O3  NAG B   5      20.803   7.561   3.3960  0.00  0.00     0.000 O
BRANCH 64 67
ATOM     65  C1  NAG B   5      23.752   5.347   3.4040  0.00  0.00     0.000 C
ATOM     66  C2  NAG B   5      22.949   6.633   3.5060  0.00  0.00     0.000 C
ATOM     67  C3  NAG B   5      21.460   6.314   3.5190  0.00  0.00     0.000 C
ATOM     68  C4  NAG B   5      21.078   5.417   2.3340  0.00  0.00     0.000 C
ATOM     69  C5  NAG B   5      21.994   4.205   2.2600  0.00  0.00     0.000 C
ATOM     70  O5  NAG B   5      23.365   4.630   2.2540  0.00  0.00     0.000 O
ATOM     71   O  NAG B   5      19.728   5.029   2.4780  0.00  0.00     0.000 O
ATOM     73  HD  NAG B   5      19.717   5.191   1.6270  0.00  0.00     0.000 HD
ATOM     73   C  NAG B   5      21.768   3.315   1.0300  0.00  0.00     0.000 C
ATOM     74   O  NAG B   5      22.080   4.057  -0.1670  0.00  0.00     0.000 O
ATOM     76  HD  NAG B   5      22.069   4.219  -1.0180  0.00  0.00     0.000 HD
BRANCH 66 78
ATOM     76   N  NAG B   5      23.554   7.272   4.6910  0.00  0.00     0.000 N
ATOM     78  HD  NAG B   5      23.372   7.490   3.8720  0.00  0.00     0.000 HD
ATOM     78   C  NAG B   5      23.830   8.579   4.8270  0.00  0.00     0.000 C
ATOM     79   C  NAG B   5      24.428   8.929   6.1630  0.00  0.00     0.000 C
ATOM     80   O  NAG B   5      23.613   9.444   3.9050  0.00  0.00     0.000 OA
ENDBRANCH 66 78
BRANCH 65 81
ATOM     81  O4  BDP B   6      25.153   5.645   3.3440  0.00  0.00     0.000 O
BRANCH 81 85
ATOM     82  C1  BDP B   6      28.920   3.738   4.0790  0.00  0.00     0.000 C
ATOM     83  C2  BDP B   6      28.287   3.543   2.7040  0.00  0.00     0.000 C
ATOM     84  C3  BDP B   6      27.188   4.567   2.4040  0.00  0.00     0.000 C
ATOM     85  C4  BDP B   6      26.152   4.639   3.5280  0.00  0.00     0.000 C
ATOM     86  C5  BDP B   6      26.912   4.800   4.8660  0.00  0.00     0.000 C
ATOM     87  O5  BDP B   6      27.898   3.737   5.0650  0.00  0.00     0.000 O
ATOM     88   O  BDP B   6      29.352   3.700   1.7700  0.00  0.00     0.000 O
ATOM     90  HD  BDP B   6      29.519   4.067   1.0030  0.00  0.00     0.000 HD
ATOM     90   O  BDP B   6      26.568   4.252   1.1550  0.00  0.00     0.000 O
ATOM     92  HD  BDP B   6      26.735   4.620   0.3890  0.00  0.00     0.000 HD
BRANCH 86 92
ATOM     92   C  BDP B   6      25.969   4.640   6.0340  0.00  0.00     0.000 C
ATOM     93   O  BDP B   6      25.635   3.477   6.4120  0.00  0.00     0.000 OA
ATOM     94   O  BDP B   6      25.564   5.698   6.6090  0.00  0.00     0.000 OA
ENDBRANCH 86 92
BRANCH 82 95
ATOM     95  O3  NAG B   7      29.789   2.619   4.3410  0.00  0.00     0.000 O
BRANCH 95 98
ATOM     96  C1  NAG B   7      33.294   2.129   5.2420  0.00  0.00     0.000 C
ATOM     97  C2  NAG B   7      31.999   1.860   4.4870  0.00  0.00     0.000 C
ATOM     98  C3  NAG B   7      30.984   2.828   5.0910  0.00  0.00     0.000 C
ATOM     99  C4  NAG B   7      30.828   2.551   6.5850  0.00  0.00     0.000 C
ATOM    100  C5  NAG B   7      32.185   2.582   7.2900  0.00  0.00     0.000 C
ATOM    101  O5  NAG B   7      33.082   1.726   6.6000  0.00  0.00     0.000 O
BRANCH 97 104
ATOM    102   N  NAG B   7      31.977   2.174   3.0520  0.00  0.00     0.000 N
ATOM    104  HD  NAG B   7      31.763   2.511   2.2840  0.00  0.00     0.000 HD
ATOM    104   O  NAG B   7      31.746   1.765   0.8360  0.00  0.00     0.000 OA
ATOM    105   C  NAG B   7      31.801   1.342   2.0080  0.00  0.00     0.000 C
ATOM    106   C  NAG B   7      31.655  -0.119   2.2620  0.00  0.00     0.000 C
ENDBRANCH 97 104
ATOM    107   O  NAG B   7      33.226   2.510   9.3910  0.00  0.00     0.000 O
ATOM    109  HD  NAG B   7      33.240   2.875   8.6060  0.00  0.00     0.000 HD
ATOM    109   O  NAG B   7      33.226   2.510   9.3910  0.00  0.00     0.000 O
ATOM    111  HD  NAG B   7      33.240   2.875   8.6060  0.00  0.00     0.000 HD
ENDBRANCH 95 98
ENDBRANCH 82 95
ENDBRANCH 81 85
ENDBRANCH 65 81
ENDBRANCH 64 67
ENDBRANCH 51 64
ENDBRANCH 50 54
ENDBRANCH 34 50
ENDBRANCH 33 36
ENDBRANCH 20 33
ENDBRANCH 19 23
ENDBRANCH 1 19
TORSDOF 19
ENDMDL
MODEL 94
REMARK VINA RESULT:      -5.0      1.972      3.081
ROOT
ATOM      1  C1  NAG B   1       9.621   6.548  16.0350  0.00  0.00     0.000 C
ATOM      2  C2  NAG B   1       8.996   6.478  17.4250  0.00  0.00     0.000 C
ATOM      3  C3  NAG B   1       8.243   7.747  17.7700  0.00  0.00     0.000 C
ATOM      4  C4  NAG B   1       9.263   8.874  17.6460  0.00  0.00     0.000 C
ATOM      5  C5  NAG B   1       9.743   8.961  16.1920  0.00  0.00     0.000 C
ATOM      6  O5  NAG B   1      10.387   7.736  15.7810  0.00  0.00     0.000 O
ATOM      7   O  NAG B   1       7.681   7.703  19.1010  0.00  0.00     0.000 O
ATOM      9  HD  NAG B   1       7.612   6.880  18.8430  0.00  0.00     0.000 HD
ATOM      9   O  NAG B   1       8.679  10.106  18.0350  0.00  0.00     0.000 O
ATOM     11  HD  NAG B   1       8.610   9.282  17.7760  0.00  0.00     0.000 HD
ATOM     11   C  NAG B   1      10.665  10.174  16.0170  0.00  0.00     0.000 C
ATOM     12   O  NAG B   1      11.614   9.957  14.9740  0.00  0.00     0.000 O
ATOM     14  HD  NAG B   1      11.545   9.133  14.7150  0.00  0.00     0.000 HD
ENDROOT
BRANCH 2 16
ATOM     14   N  NAG B   1       8.268   5.197  17.4090  0.00  0.00     0.000 N
ATOM     16  HD  NAG B   1       8.353   4.358  17.2110  0.00  0.00     0.000 HD
ATOM     16   C  NAG B   1       8.414   4.257  18.3590  0.00  0.00     0.000 C
ATOM     17   C  NAG B   1       9.378   4.478  19.4940  0.00  0.00     0.000 C
ATOM     18   O  NAG B   1       7.751   3.220  18.3370  0.00  0.00     0.000 OA
ENDBRANCH 2 16
BRANCH 1 19
ATOM     19  O4  BDP B   2      10.554   5.476  16.0450  0.00  0.00     0.000 O
BRANCH 19 23
ATOM     20  C1  BDP B   2      12.861   6.872  12.9350  0.00  0.00     0.000 C
ATOM     21  C2  BDP B   2      11.646   6.050  12.5560  0.00  0.00     0.000 C
ATOM     22  C3  BDP B   2      10.669   5.955  13.7060  0.00  0.00     0.000 C
ATOM     23  C4  BDP B   2      11.416   5.439  14.9330  0.00  0.00     0.000 C
ATOM     24  C5  BDP B   2      12.598   6.343  15.2200  0.00  0.00     0.000 C
ATOM     25  O5  BDP B   2      13.471   6.350  14.1070  0.00  0.00     0.000 O
ATOM     26   O  BDP B   2      11.004   6.615  11.4320  0.00  0.00     0.000 O
ATOM     28  HD  BDP B   2      11.746   7.062  11.4310  0.00  0.00     0.000 HD
ATOM     28   O  BDP B   2       9.582   5.092  13.3330  0.00  0.00     0.000 O
ATOM     30  HD  BDP B   2      10.324   5.540  13.3320  0.00  0.00     0.000 HD
BRANCH 24 30
ATOM     30   C  BDP B   2      13.379   5.889  16.4010  0.00  0.00     0.000 C
ATOM     31   O  BDP B   2      13.576   6.724  17.3140  0.00  0.00     0.000 OA
ATOM     32   O  BDP B   2      13.805   4.699  16.4190  0.00  0.00     0.000 OA
ENDBRANCH 24 30
BRANCH 20 33
ATOM     33  O3  NAG B   3      13.736   6.708  11.8460  0.00  0.00     0.000 O
BRANCH 33 36
ATOM     34  C1  NAG B   3      16.148   9.479  11.0380  0.00  0.00     0.000 C
ATOM     35  C2  NAG B   3      14.832   8.725  11.0770  0.00  0.00     0.000 C
ATOM     36  C3  NAG B   3      14.919   7.495  11.9940  0.00  0.00     0.000 C
ATOM     37  C4  NAG B   3      16.128   6.652  11.5960  0.00  0.00     0.000 C
ATOM     38  C5  NAG B   3      17.376   7.526  11.5050  0.00  0.00     0.000 C
ATOM     39  O5  NAG B   3      17.158   8.587  10.5910  0.00  0.00     0.000 O
ATOM     40   O  NAG B   3      16.342   5.612  12.5630  0.00  0.00     0.000 O
ATOM     42  HD  NAG B   3      17.134   5.962  12.5800  0.00  0.00     0.000 HD
ATOM     42   C  NAG B   3      18.608   6.789  10.9850  0.00  0.00     0.000 C
ATOM     43   O  NAG B   3      18.394   6.399   9.6230  0.00  0.00     0.000 O
ATOM     45  HD  NAG B   3      19.186   6.748   9.6400  0.00  0.00     0.000 HD
BRANCH 35 47
ATOM     45   N  NAG B   3      13.637   9.072  10.3190  0.00  0.00     0.000 N
ATOM     47  HD  NAG B   3      13.960   8.300  10.0970  0.00  0.00     0.000 HD
ATOM     47   C  NAG B   3      12.609   9.704  10.8500  0.00  0.00     0.000 C
ATOM     48   C  NAG B   3      11.450   9.966   9.9350  0.00  0.00     0.000 C
ATOM     49   O  NAG B   3      12.589  10.036  12.0330  0.00  0.00     0.000 OA
ENDBRANCH 35 47
BRANCH 34 50
ATOM     50  O4  BDP B   4      15.925  10.491  10.0790  0.00  0.00     0.000 O
BRANCH 50 54
ATOM     51  C1  BDP B   4      16.626  14.424   9.3080  0.00  0.00     0.000 C
ATOM     52  C2  BDP B   4      17.634  13.467   8.6810  0.00  0.00     0.000 C
ATOM     53  C3  BDP B   4      17.067  12.081   8.7170  0.00  0.00     0.000 C
ATOM     54  C4  BDP B   4      16.677  11.712  10.1770  0.00  0.00     0.000 C
ATOM     55  C5  BDP B   4      15.831  12.791  10.8410  0.00  0.00     0.000 C
ATOM     56  O5  BDP B   4      16.430  14.071  10.6650  0.00  0.00     0.000 O
ATOM     57   O  BDP B   4      17.889  13.833   7.3410  0.00  0.00     0.000 O
ATOM     59  HD  BDP B   4      18.661  14.224   7.3650  0.00  0.00     0.000 HD
ATOM     59   O  BDP B   4      18.118  11.186   8.2980  0.00  0.00     0.000 O
ATOM     61  HD  BDP B   4      18.890  11.578   8.3220  0.00  0.00     0.000 HD
BRANCH 55 61
ATOM     61   C  BDP B   4      15.716  12.493  12.3260  0.00  0.00     0.000 C
ATOM     62   O  BDP B   4      16.774  12.258  12.9650  0.00  0.00     0.000 OA
ATOM     63   O  BDP B   4      14.561  12.498  12.8510  0.00  0.00     0.000 OA
ENDBRANCH 55 61
BRANCH 51 64
ATOM     64  O3  NAG B   5      17.173  15.752   9.1990  0.00  0.00     0.000 O
BRANCH 64 67
ATOM     65  C1  NAG B   5      14.690  18.467   8.9690  0.00  0.00     0.000 C
ATOM     66  C2  NAG B   5      15.488  17.243   8.5550  0.00  0.00     0.000 C
ATOM     67  C3  NAG B   5      16.313  16.740   9.7320  0.00  0.00     0.000 C
ATOM     68  C4  NAG B   5      17.152  17.872  10.3410  0.00  0.00     0.000 C
ATOM     69  C5  NAG B   5      16.283  19.085  10.6360  0.00  0.00     0.000 C
ATOM     70  O5  NAG B   5      15.557  19.464   9.4580  0.00  0.00     0.000 O
ATOM     71   O  NAG B   5      17.775  17.392  11.5140  0.00  0.00     0.000 O
ATOM     73  HD  NAG B   5      18.447  17.833  11.1920  0.00  0.00     0.000 HD
ATOM     73   C  NAG B   5      17.060  20.313  11.1310  0.00  0.00     0.000 C
ATOM     74   O  NAG B   5      17.951  20.772  10.0930  0.00  0.00     0.000 O
ATOM     76  HD  NAG B   5      18.624  21.213   9.7710  0.00  0.00     0.000 HD
BRANCH 66 78
ATOM     76   N  NAG B   5      14.444  16.356   8.0070  0.00  0.00     0.000 N
ATOM     78  HD  NAG B   5      15.202  16.684   7.7470  0.00  0.00     0.000 HD
ATOM     78   C  NAG B   5      14.544  15.613   6.8930  0.00  0.00     0.000 C
ATOM     79   C  NAG B   5      13.314  14.795   6.6050  0.00  0.00     0.000 C
ATOM     80   O  NAG B   5      15.584  15.608   6.1420  0.00  0.00     0.000 OA
ENDBRANCH 66 78
BRANCH 65 81
ATOM     81  O4  BDP B   6      13.947  18.973   7.8520  0.00  0.00     0.000 O
BRANCH 81 85
ATOM     82  C1  BDP B   6      10.246  20.951   6.9840  0.00  0.00     0.000 C
ATOM     83  C2  BDP B   6      11.363  21.785   7.6050  0.00  0.00     0.000 C
ATOM     84  C3  BDP B   6      12.736  21.116   7.4960  0.00  0.00     0.000 C
ATOM     85  C4  BDP B   6      12.713  19.677   8.0150  0.00  0.00     0.000 C
ATOM     86  C5  BDP B   6      11.525  18.948   7.3430  0.00  0.00     0.000 C
ATOM     87  O5  BDP B   6      10.260  19.652   7.5590  0.00  0.00     0.000 O
ATOM     88   O  BDP B   6      11.371  23.011   6.8780  0.00  0.00     0.000 O
ATOM     90  HD  BDP B   6      11.927  23.577   6.5300  0.00  0.00     0.000 HD
ATOM     90   O  BDP B   6      13.707  21.898   8.1960  0.00  0.00     0.000 O
ATOM     92  HD  BDP B   6      14.263  22.464   7.8480  0.00  0.00     0.000 HD
BRANCH 86 92
ATOM     92   C  BDP B   6      11.300  17.600   7.9850  0.00  0.00     0.000 C
ATOM     93   O  BDP B   6      10.710  16.688   7.3300  0.00  0.00     0.000 OA
ATOM     94   O  BDP B   6      11.740  17.431   9.1640  0.00  0.00     0.000 OA
ENDBRANCH 86 92
BRANCH 82 95
ATOM     95  O3  NAG B   7       8.985  21.566   7.3110  0.00  0.00     0.000 O
BRANCH 95 98
ATOM     96  C1  NAG B   7       5.903  21.957   5.3910  0.00  0.00     0.000 C
ATOM     97  C2  NAG B   7       7.127  22.420   6.1690  0.00  0.00     0.000 C
ATOM     98  C3  NAG B   7       7.804  21.133   6.6370  0.00  0.00     0.000 C
ATOM     99  C4  NAG B   7       6.848  20.336   7.5220  0.00  0.00     0.000 C
ATOM    100  C5  NAG B   7       5.518  20.093   6.8070  0.00  0.00     0.000 C
ATOM    101  O5  NAG B   7       5.019  21.332   6.3290  0.00  0.00     0.000 O
BRANCH 97 104
ATOM    102   N  NAG B   7       8.344  23.123   5.7380  0.00  0.00     0.000 N
ATOM    104  HD  NAG B   7       9.115  23.517   5.7420  0.00  0.00     0.000 HD
ATOM    104   O  NAG B   7       9.572  24.825   4.8870  0.00  0.00     0.000 OA
ATOM    105   C  NAG B   7       8.459  24.325   5.1420  0.00  0.00     0.000 C
ATOM    106   C  NAG B   7       7.223  25.082   4.7930  0.00  0.00     0.000 C
ENDBRANCH 97 104
ATOM    107   O  NAG B   7       3.470  18.960   6.9600  0.00  0.00     0.000 O
ATOM    109  HD  NAG B   7       4.106  19.204   6.4250  0.00  0.00     0.000 HD
ATOM    109   O  NAG B   7       3.470  18.960   6.9600  0.00  0.00     0.000 O
ATOM    111  HD  NAG B   7       4.106  19.204   6.4250  0.00  0.00     0.000 HD
ENDBRANCH 95 98
ENDBRANCH 82 95
ENDBRANCH 81 85
ENDBRANCH 65 81
ENDBRANCH 64 67
ENDBRANCH 51 64
ENDBRANCH 50 54
ENDBRANCH 34 50
ENDBRANCH 33 36
ENDBRANCH 20 33
ENDBRANCH 19 23
ENDBRANCH 1 19
TORSDOF 19
ENDMDL
MODEL 95
REMARK VINA RESULT:      -5.0      9.258     17.437
ROOT
ATOM      1  C1  NAG B   1      10.080   6.277  14.2990  0.00  0.00     0.000 C
ATOM      2  C2  NAG B   1      10.296   5.513  15.6020  0.00  0.00     0.000 C
ATOM      3  C3  NAG B   1       9.435   6.056  16.7240  0.00  0.00     0.000 C
ATOM      4  C4  NAG B   1       9.806   7.530  16.8470  0.00  0.00     0.000 C
ATOM      5  C5  NAG B   1       9.436   8.252  15.5450  0.00  0.00     0.000 C
ATOM      6  O5  NAG B   1      10.163   7.706  14.4230  0.00  0.00     0.000 O
ATOM      7   O  NAG B   1       9.662   5.361  17.9720  0.00  0.00     0.000 O
ATOM      9  HD  NAG B   1       9.758   4.730  17.3860  0.00  0.00     0.000 HD
ATOM      9   O  NAG B   1       9.114   8.118  17.9350  0.00  0.00     0.000 O
ATOM     11  HD  NAG B   1       9.210   7.487  17.3500  0.00  0.00     0.000 HD
ATOM     11   C  NAG B   1       9.675   9.759  15.6960  0.00  0.00     0.000 C
ATOM     12   O  NAG B   1       9.988  10.362  14.4420  0.00  0.00     0.000 O
ATOM     14  HD  NAG B   1      10.084   9.731  13.8560  0.00  0.00     0.000 HD
ENDROOT
BRANCH 2 16
ATOM     14   N  NAG B   1      10.082   4.077  15.3460  0.00  0.00     0.000 N
ATOM     16  HD  NAG B   1      10.208   3.456  14.7560  0.00  0.00     0.000 HD
ATOM     16   C  NAG B   1      11.048   3.153  15.4870  0.00  0.00     0.000 C
ATOM     17   C  NAG B   1      12.434   3.573  15.8990  0.00  0.00     0.000 C
ATOM     18   O  NAG B   1      10.818   1.957  15.3120  0.00  0.00     0.000 OA
ENDBRANCH 2 16
BRANCH 1 19
ATOM     19  O4  BDP B   2      11.194   5.888  13.5070  0.00  0.00     0.000 O
BRANCH 19 23
ATOM     20  C1  BDP B   2      14.242   7.828  11.5350  0.00  0.00     0.000 C
ATOM     21  C2  BDP B   2      14.250   7.924  13.0460  0.00  0.00     0.000 C
ATOM     22  C3  BDP B   2      13.372   6.862  13.6680  0.00  0.00     0.000 C
ATOM     23  C4  BDP B   2      11.983   6.957  13.0410  0.00  0.00     0.000 C
ATOM     24  C5  BDP B   2      12.101   6.836  11.5350  0.00  0.00     0.000 C
ATOM     25  O5  BDP B   2      12.913   7.883  11.0370  0.00  0.00     0.000 O
ATOM     26   O  BDP B   2      15.567   7.800  13.5380  0.00  0.00     0.000 O
ATOM     28  HD  BDP B   2      15.724   7.899  12.6920  0.00  0.00     0.000 HD
ATOM     28   O  BDP B   2      13.336   7.051  15.0910  0.00  0.00     0.000 O
ATOM     30  HD  BDP B   2      13.492   7.150  14.2450  0.00  0.00     0.000 HD
BRANCH 24 30
ATOM     30   C  BDP B   2      10.780   6.932  10.8590  0.00  0.00     0.000 C
ATOM     31   O  BDP B   2      10.491   6.034  10.0340  0.00  0.00     0.000 OA
ATOM     32   O  BDP B   2      10.029   7.908  11.1420  0.00  0.00     0.000 OA
ENDBRANCH 24 30
BRANCH 20 33
ATOM     33  O3  NAG B   3      14.940   8.976  11.1170  0.00  0.00     0.000 O
BRANCH 33 36
ATOM     34  C1  NAG B   3      16.411   9.175   7.6610  0.00  0.00     0.000 C
ATOM     35  C2  NAG B   3      16.325   8.833   9.1360  0.00  0.00     0.000 C
ATOM     36  C3  NAG B   3      14.922   9.117   9.6940  0.00  0.00     0.000 C
ATOM     37  C4  NAG B   3      14.519  10.548   9.3450  0.00  0.00     0.000 C
ATOM     38  C5  NAG B   3      14.726  10.807   7.8550  0.00  0.00     0.000 C
ATOM     39  O5  NAG B   3      16.073  10.545   7.5010  0.00  0.00     0.000 O
ATOM     40   O  NAG B   3      13.140  10.765   9.6810  0.00  0.00     0.000 O
ATOM     42  HD  NAG B   3      13.105  11.012   8.8510  0.00  0.00     0.000 HD
ATOM     42   C  NAG B   3      14.471  12.253   7.4390  0.00  0.00     0.000 C
ATOM     43   O  NAG B   3      15.448  13.106   8.0480  0.00  0.00     0.000 O
ATOM     45  HD  NAG B   3      15.413  13.353   7.2190  0.00  0.00     0.000 HD
BRANCH 35 47
ATOM     45   N  NAG B   3      17.440   8.335   9.9300  0.00  0.00     0.000 N
ATOM     47  HD  NAG B   3      17.174   9.119  10.1840  0.00  0.00     0.000 HD
ATOM     47   C  NAG B   3      17.566   7.069  10.2760  0.00  0.00     0.000 C
ATOM     48   C  NAG B   3      18.764   6.728  11.1120  0.00  0.00     0.000 C
ATOM     49   O  NAG B   3      16.736   6.221   9.9560  0.00  0.00     0.000 OA
ENDBRANCH 35 47
BRANCH 34 50
ATOM     50  O4  BDP B   4      17.772   8.964   7.3480  0.00  0.00     0.000 O
BRANCH 50 54
ATOM     51  C1  BDP B   4      20.377   7.892   4.4130  0.00  0.00     0.000 C
ATOM     52  C2  BDP B   4      19.681   9.228   4.1830  0.00  0.00     0.000 C
ATOM     53  C3  BDP B   4      19.061   9.674   5.4710  0.00  0.00     0.000 C
ATOM     54  C4  BDP B   4      18.118   8.561   6.0120  0.00  0.00     0.000 C
ATOM     55  C5  BDP B   4      18.790   7.195   6.0400  0.00  0.00     0.000 C
ATOM     56  O5  BDP B   4      19.416   6.923   4.7890  0.00  0.00     0.000 O
ATOM     57   O  BDP B   4      20.613  10.198   3.7520  0.00  0.00     0.000 O
ATOM     59  HD  BDP B   4      20.474  10.271   2.9000  0.00  0.00     0.000 HD
ATOM     59   O  BDP B   4      18.255  10.832   5.1700  0.00  0.00     0.000 O
ATOM     61  HD  BDP B   4      18.116  10.904   4.3180  0.00  0.00     0.000 HD
BRANCH 55 61
ATOM     61   C  BDP B   4      17.747   6.129   6.3190  0.00  0.00     0.000 C
ATOM     62   O  BDP B   4      16.673   6.167   5.6620  0.00  0.00     0.000 OA
ATOM     63   O  BDP B   4      18.006   5.249   7.1960  0.00  0.00     0.000 OA
ENDBRANCH 55 61
BRANCH 51 64
ATOM     64  O3  NAG B   5      21.017   7.524   3.1750  0.00  0.00     0.000 O
BRANCH 64 67
ATOM     65  C1  NAG B   5      24.382   6.025   3.0370  0.00  0.00     0.000 C
ATOM     66  C2  NAG B   5      23.319   7.107   3.1130  0.00  0.00     0.000 C
ATOM     67  C3  NAG B   5      21.951   6.475   3.3360  0.00  0.00     0.000 C
ATOM     68  C4  NAG B   5      21.674   5.380   2.2970  0.00  0.00     0.000 C
ATOM     69  C5  NAG B   5      22.833   4.398   2.2280  0.00  0.00     0.000 C
ATOM     70  O5  NAG B   5      24.062   5.108   2.0160  0.00  0.00     0.000 O
ATOM     71   O  NAG B   5      20.470   4.727   2.6390  0.00  0.00     0.000 O
ATOM     73  HD  NAG B   5      20.340   4.780   1.7840  0.00  0.00     0.000 HD
ATOM     73   C  NAG B   5      22.700   3.340   1.1240  0.00  0.00     0.000 C
ATOM     74   O  NAG B   5      22.716   3.983  -0.1670  0.00  0.00     0.000 O
ATOM     76  HD  NAG B   5      22.586   4.035  -1.0220  0.00  0.00     0.000 HD
BRANCH 66 78
ATOM     76   N  NAG B   5      23.758   8.005   4.1980  0.00  0.00     0.000 N
ATOM     78  HD  NAG B   5      23.602   8.062   3.3480  0.00  0.00     0.000 HD
ATOM     78   C  NAG B   5      23.851   9.343   4.1270  0.00  0.00     0.000 C
ATOM     79   C  NAG B   5      24.313   9.981   5.4090  0.00  0.00     0.000 C
ATOM     80   O  NAG B   5      23.581  10.011   3.0660  0.00  0.00     0.000 OA
ENDBRANCH 66 78
BRANCH 65 81
ATOM     81  O4  BDP B   6      25.665   6.612   2.7800  0.00  0.00     0.000 O
BRANCH 81 85
ATOM     82  C1  BDP B   6      29.831   5.862   3.4480  0.00  0.00     0.000 C
ATOM     83  C2  BDP B   6      29.048   4.827   2.6440  0.00  0.00     0.000 C
ATOM     84  C3  BDP B   6      27.714   5.366   2.1200  0.00  0.00     0.000 C
ATOM     85  C4  BDP B   6      26.880   6.009   3.2300  0.00  0.00     0.000 C
ATOM     86  C5  BDP B   6      27.787   7.005   3.9900  0.00  0.00     0.000 C
ATOM     87  O5  BDP B   6      29.005   6.364   4.4890  0.00  0.00     0.000 O
ATOM     88   O  BDP B   6      29.888   4.483   1.5460  0.00  0.00     0.000 O
ATOM     90  HD  BDP B   6      29.844   4.330   0.6950  0.00  0.00     0.000 HD
ATOM     90   O  BDP B   6      26.990   4.313   1.4790  0.00  0.00     0.000 O
ATOM     92  HD  BDP B   6      26.946   4.159   0.6280  0.00  0.00     0.000 HD
BRANCH 86 92
ATOM     92   C  BDP B   6      27.102   7.498   5.2420  0.00  0.00     0.000 C
ATOM     93   O  BDP B   6      26.244   6.760   5.8150  0.00  0.00     0.000 OA
ATOM     94   O  BDP B   6      27.439   8.640   5.6840  0.00  0.00     0.000 OA
ENDBRANCH 86 92
BRANCH 82 95
ATOM     95  O3  NAG B   7      30.959   5.204   4.0560  0.00  0.00     0.000 O
BRANCH 95 98
ATOM     96  C1  NAG B   7      34.609   5.324   3.9920  0.00  0.00     0.000 C
ATOM     97  C2  NAG B   7      33.239   4.673   4.1300  0.00  0.00     0.000 C
ATOM     98  C3  NAG B   7      32.243   5.823   3.9910  0.00  0.00     0.000 C
ATOM     99  C4  NAG B   7      32.485   6.854   5.0910  0.00  0.00     0.000 C
ATOM    100  C5  NAG B   7      33.943   7.316   5.0950  0.00  0.00     0.000 C
ATOM    101  O5  NAG B   7      34.787   6.176   5.1290  0.00  0.00     0.000 O
BRANCH 97 104
ATOM    102   N  NAG B   7      32.797   3.735   3.0890  0.00  0.00     0.000 N
ATOM    104  HD  NAG B   7      32.326   3.341   2.4780  0.00  0.00     0.000 HD
ATOM    104   O  NAG B   7      32.170   1.741   2.2150  0.00  0.00     0.000 OA
ATOM    105   C  NAG B   7      32.609   2.404   3.1750  0.00  0.00     0.000 C
ATOM    106   C  NAG B   7      32.923   1.710   4.4570  0.00  0.00     0.000 C
ENDBRANCH 97 104
ATOM    107   O  NAG B   7      35.438   8.850   6.0510  0.00  0.00     0.000 O
ATOM    109  HD  NAG B   7      35.208   8.447   5.3200  0.00  0.00     0.000 HD
ATOM    109   O  NAG B   7      35.438   8.850   6.0510  0.00  0.00     0.000 O
ATOM    111  HD  NAG B   7      35.208   8.447   5.3200  0.00  0.00     0.000 HD
ENDBRANCH 95 98
ENDBRANCH 82 95
ENDBRANCH 81 85
ENDBRANCH 65 81
ENDBRANCH 64 67
ENDBRANCH 51 64
ENDBRANCH 50 54
ENDBRANCH 34 50
ENDBRANCH 33 36
ENDBRANCH 20 33
ENDBRANCH 19 23
ENDBRANCH 1 19
TORSDOF 19
ENDMDL
MODEL 96
REMARK VINA RESULT:      -5.0      7.610     15.600
ROOT
ATOM      1  C1  NAG B   1       9.933   6.165  16.4270  0.00  0.00     0.000 C
ATOM      2  C2  NAG B   1       9.107   6.007  17.7010  0.00  0.00     0.000 C
ATOM      3  C3  NAG B   1       9.436   4.721  18.4320  0.00  0.00     0.000 C
ATOM      4  C4  NAG B   1       9.176   3.603  17.4270  0.00  0.00     0.000 C
ATOM      5  C5  NAG B   1      10.136   3.758  16.2410  0.00  0.00     0.000 C
ATOM      6  O5  NAG B   1       9.927   5.016  15.5640  0.00  0.00     0.000 O
ATOM      7   O  NAG B   1       8.630   4.546  19.6190  0.00  0.00     0.000 O
ATOM      9  HD  NAG B   1       8.744   5.404  19.5960  0.00  0.00     0.000 HD
ATOM      9   O  NAG B   1       9.373   2.340  18.0420  0.00  0.00     0.000 O
ATOM     11  HD  NAG B   1       9.487   3.198  18.0190  0.00  0.00     0.000 HD
ATOM     11   C  NAG B   1       9.986   2.568  15.2860  0.00  0.00     0.000 C
ATOM     12   O  NAG B   1      10.303   2.937  13.9450  0.00  0.00     0.000 O
ATOM     14  HD  NAG B   1      10.418   3.795  13.9220  0.00  0.00     0.000 HD
ENDROOT
BRANCH 2 16
ATOM     14   N  NAG B   1       8.087   7.034  17.9800  0.00  0.00     0.000 N
ATOM     16  HD  NAG B   1       7.481   7.266  18.5530  0.00  0.00     0.000 HD
ATOM     16   C  NAG B   1       8.281   8.045  18.8440  0.00  0.00     0.000 C
ATOM     17   C  NAG B   1       9.578   8.149  19.6010  0.00  0.00     0.000 C
ATOM     18   O  NAG B   1       7.424   8.913  19.0130  0.00  0.00     0.000 OA
ENDBRANCH 2 16
BRANCH 1 19
ATOM     19  O4  BDP B   2       9.246   7.188  15.7210  0.00  0.00     0.000 O
BRANCH 19 23
ATOM     20  C1  BDP B   2      12.134   8.957  13.3810  0.00  0.00     0.000 C
ATOM     21  C2  BDP B   2      12.416   8.896  14.8680  0.00  0.00     0.000 C
ATOM     22  C3  BDP B   2      11.527   7.884  15.5540  0.00  0.00     0.000 C
ATOM     23  C4  BDP B   2      10.075   8.201  15.2040  0.00  0.00     0.000 C
ATOM     24  C5  BDP B   2       9.913   8.223  13.6970  0.00  0.00     0.000 C
ATOM     25  O5  BDP B   2      10.757   9.215  13.1440  0.00  0.00     0.000 O
ATOM     26   O  BDP B   2      13.771   8.571  15.0960  0.00  0.00     0.000 O
ATOM     28  HD  BDP B   2      13.790   8.738  14.2460  0.00  0.00     0.000 HD
ATOM     28   O  BDP B   2      11.763   7.929  16.9700  0.00  0.00     0.000 O
ATOM     30  HD  BDP B   2      11.782   8.095  16.1200  0.00  0.00     0.000 HD
BRANCH 24 30
ATOM     30   C  BDP B   2       8.519   8.539  13.2870  0.00  0.00     0.000 C
ATOM     31   O  BDP B   2       7.991   9.559  13.7860  0.00  0.00     0.000 OA
ATOM     32   O  BDP B   2       7.943   7.765  12.4710  0.00  0.00     0.000 OA
ENDBRANCH 24 30
BRANCH 20 33
ATOM     33  O3  NAG B   3      12.893  10.054  12.9350  0.00  0.00     0.000 O
BRANCH 33 36
ATOM     34  C1  NAG B   3      14.489  10.103   9.5290  0.00  0.00     0.000 C
ATOM     35  C2  NAG B   3      14.351   9.830  11.0140  0.00  0.00     0.000 C
ATOM     36  C3  NAG B   3      12.927  10.128  11.5070  0.00  0.00     0.000 C
ATOM     37  C4  NAG B   3      12.528  11.538  11.0770  0.00  0.00     0.000 C
ATOM     38  C5  NAG B   3      12.788  11.729   9.5850  0.00  0.00     0.000 C
ATOM     39  O5  NAG B   3      14.149  11.461   9.2930  0.00  0.00     0.000 O
ATOM     40   O  NAG B   3      11.136  11.760  11.3520  0.00  0.00     0.000 O
ATOM     42  HD  NAG B   3      11.130  11.967  10.5110  0.00  0.00     0.000 HD
ATOM     42   C  NAG B   3      12.539  13.152   9.0930  0.00  0.00     0.000 C
ATOM     43   O  NAG B   3      13.488  14.040   9.6960  0.00  0.00     0.000 O
ATOM     45  HD  NAG B   3      13.482  14.248   8.8550  0.00  0.00     0.000 HD
BRANCH 35 47
ATOM     45   N  NAG B   3      15.443   9.377  11.8660  0.00  0.00     0.000 N
ATOM     47  HD  NAG B   3      15.167  10.172  12.0720  0.00  0.00     0.000 HD
ATOM     47   C  NAG B   3      15.561   8.131  12.2800  0.00  0.00     0.000 C
ATOM     48   C  NAG B   3      16.733   7.838  13.1680  0.00  0.00     0.000 C
ATOM     49   O  NAG B   3      14.742   7.265  11.9790  0.00  0.00     0.000 OA
ENDBRANCH 35 47
BRANCH 34 50
ATOM     50  O4  BDP B   4      15.862   9.889   9.2760  0.00  0.00     0.000 O
BRANCH 50 54
ATOM     51  C1  BDP B   4      18.549   8.707   6.4590  0.00  0.00     0.000 C
ATOM     52  C2  BDP B   4      17.585   9.794   5.9960  0.00  0.00     0.000 C
ATOM     53  C3  BDP B   4      16.922  10.391   7.1990  0.00  0.00     0.000 C
ATOM     54  C4  BDP B   4      16.246   9.268   8.0380  0.00  0.00     0.000 C
ATOM     55  C5  BDP B   4      17.188   8.103   8.3110  0.00  0.00     0.000 C
ATOM     56  O5  BDP B   4      17.821   7.680   7.1070  0.00  0.00     0.000 O
ATOM     57   O  BDP B   4      18.283  10.803   5.2980  0.00  0.00     0.000 O
ATOM     59  HD  BDP B   4      18.108  10.651   4.4630  0.00  0.00     0.000 HD
ATOM     59   O  BDP B   4      15.885  11.269   6.7150  0.00  0.00     0.000 O
ATOM     61  HD  BDP B   4      15.711  11.117   5.8800  0.00  0.00     0.000 HD
BRANCH 55 61
ATOM     61   C  BDP B   4      16.396   6.945   8.8920  0.00  0.00     0.000 C
ATOM     62   O  BDP B   4      16.964   6.205   9.7380  0.00  0.00     0.000 OA
ATOM     63   O  BDP B   4      15.201   6.778   8.5000  0.00  0.00     0.000 OA
ENDBRANCH 55 61
BRANCH 51 64
ATOM     64  O3  NAG B   5      19.216   8.200   5.2870  0.00  0.00     0.000 O
BRANCH 64 67
ATOM     65  C1  NAG B   5      22.759   7.183   5.3430  0.00  0.00     0.000 C
ATOM     66  C2  NAG B   5      21.554   8.104   5.2570  0.00  0.00     0.000 C
ATOM     67  C3  NAG B   5      20.287   7.332   5.6030  0.00  0.00     0.000 C
ATOM     68  C4  NAG B   5      20.174   6.054   4.7610  0.00  0.00     0.000 C
ATOM     69  C5  NAG B   5      21.459   5.246   4.8360  0.00  0.00     0.000 C
ATOM     70  O5  NAG B   5      22.579   6.075   4.4910  0.00  0.00     0.000 O
ATOM     71   O  NAG B   5      19.071   5.304   5.2240  0.00  0.00     0.000 O
ATOM     73  HD  NAG B   5      18.941   5.197   4.3750  0.00  0.00     0.000 HD
ATOM     73   C  NAG B   5      21.485   4.012   3.9230  0.00  0.00     0.000 C
ATOM     74   O  NAG B   5      21.420   4.430   2.5430  0.00  0.00     0.000 O
ATOM     76  HD  NAG B   5      21.290   4.323   1.6940  0.00  0.00     0.000 HD
BRANCH 66 78
ATOM     76   N  NAG B   5      21.962   9.223   6.1280  0.00  0.00     0.000 N
ATOM     78  HD  NAG B   5      21.664   9.119   5.3210  0.00  0.00     0.000 HD
ATOM     78   C  NAG B   5      21.760  10.528   5.8830  0.00  0.00     0.000 C
ATOM     79   C  NAG B   5      22.276  11.429   6.9720  0.00  0.00     0.000 C
ATOM     80   O  NAG B   5      21.190  10.964   4.8200  0.00  0.00     0.000 OA
ENDBRANCH 66 78
BRANCH 65 81
ATOM     81  O4  BDP B   6      23.949   7.893   4.9740  0.00  0.00     0.000 O
BRANCH 81 85
ATOM     82  C1  BDP B   6      28.190   7.713   5.5570  0.00  0.00     0.000 C
ATOM     83  C2  BDP B   6      27.580   6.771   4.5220  0.00  0.00     0.000 C
ATOM     84  C3  BDP B   6      26.168   7.186   4.1000  0.00  0.00     0.000 C
ATOM     85  C4  BDP B   6      25.254   7.414   5.3060  0.00  0.00     0.000 C
ATOM     86  C5  BDP B   6      25.992   8.349   6.2930  0.00  0.00     0.000 C
ATOM     87  O5  BDP B   6      27.307   7.823   6.6640  0.00  0.00     0.000 O
ATOM     88   O  BDP B   6      28.451   6.828   3.3960  0.00  0.00     0.000 O
ATOM     90  HD  BDP B   6      28.421   6.866   2.5310  0.00  0.00     0.000 HD
ATOM     90   O  BDP B   6      25.621   6.200   3.2220  0.00  0.00     0.000 O
ATOM     92  HD  BDP B   6      25.591   6.237   2.3570  0.00  0.00     0.000 HD
BRANCH 86 92
ATOM     92   C  BDP B   6      25.252   8.426   7.6060  0.00  0.00     0.000 C
ATOM     93   O  BDP B   6      24.907   7.355   8.1910  0.00  0.00     0.000 OA
ATOM     94   O  BDP B   6      25.024   9.580   8.0840  0.00  0.00     0.000 OA
ENDBRANCH 86 92
BRANCH 82 95
ATOM     95  O3  NAG B   7      29.421   7.131   6.0300  0.00  0.00     0.000 O
BRANCH 95 98
ATOM     96  C1  NAG B   7      32.905   8.182   6.3380  0.00  0.00     0.000 C
ATOM     97  C2  NAG B   7      31.760   7.237   5.9970  0.00  0.00     0.000 C
ATOM     98  C3  NAG B   7      30.496   7.989   6.4070  0.00  0.00     0.000 C
ATOM     99  C4  NAG B   7      30.539   8.299   7.9020  0.00  0.00     0.000 C
ATOM    100  C5  NAG B   7      31.826   9.038   8.2700  0.00  0.00     0.000 C
ATOM    101  O5  NAG B   7      32.935   8.310   7.7640  0.00  0.00     0.000 O
BRANCH 97 104
ATOM    102   N  NAG B   7      31.519   6.924   4.5820  0.00  0.00     0.000 N
ATOM    104  HD  NAG B   7      31.135   6.822   3.8120  0.00  0.00     0.000 HD
ATOM    104   O  NAG B   7      31.351   5.616   2.7400  0.00  0.00     0.000 OA
ATOM    105   C  NAG B   7      31.653   5.746   3.9430  0.00  0.00     0.000 C
ATOM    106   C  NAG B   7      32.161   4.566   4.6980  0.00  0.00     0.000 C
ENDBRANCH 97 104
ATOM    107   O  NAG B   7      32.939  10.146  10.0120  0.00  0.00     0.000 O
ATOM    109  HD  NAG B   7      32.772  10.151   9.1630  0.00  0.00     0.000 HD
ATOM    109   O  NAG B   7      32.939  10.146  10.0120  0.00  0.00     0.000 O
ATOM    111  HD  NAG B   7      32.772  10.151   9.1630  0.00  0.00     0.000 HD
ENDBRANCH 95 98
ENDBRANCH 82 95
ENDBRANCH 81 85
ENDBRANCH 65 81
ENDBRANCH 64 67
ENDBRANCH 51 64
ENDBRANCH 50 54
ENDBRANCH 34 50
ENDBRANCH 33 36
ENDBRANCH 20 33
ENDBRANCH 19 23
ENDBRANCH 1 19
TORSDOF 19
ENDMDL
MODEL 97
REMARK VINA RESULT:      -5.0      5.191     11.221
ROOT
ATOM      1  C1  NAG B   1      11.215   8.914  26.6230  0.00  0.00     0.000 C
ATOM      2  C2  NAG B   1      11.121   9.828  27.8420  0.00  0.00     0.000 C
ATOM      3  C3  NAG B   1      12.134  10.953  27.7830  0.00  0.00     0.000 C
ATOM      4  C4  NAG B   1      13.494  10.271  27.6710  0.00  0.00     0.000 C
ATOM      5  C5  NAG B   1      13.554   9.481  26.3570  0.00  0.00     0.000 C
ATOM      6  O5  NAG B   1      12.541   8.453  26.3210  0.00  0.00     0.000 O
ATOM      7   O  NAG B   1      12.077  11.800  28.9530  0.00  0.00     0.000 O
ATOM      9  HD  NAG B   1      11.247  11.580  28.8410  0.00  0.00     0.000 HD
ATOM      9   O  NAG B   1      14.529  11.240  27.6960  0.00  0.00     0.000 O
ATOM     11  HD  NAG B   1      13.699  11.020  27.5840  0.00  0.00     0.000 HD
ATOM     11   C  NAG B   1      14.960   8.901  26.1590  0.00  0.00     0.000 C
ATOM     12   O  NAG B   1      14.920   7.697  25.3940  0.00  0.00     0.000 O
ATOM     14  HD  NAG B   1      14.090   7.477  25.2830  0.00  0.00     0.000 HD
ENDROOT
BRANCH 2 16
ATOM     14   N  NAG B   1       9.756  10.361  28.0050  0.00  0.00     0.000 N
ATOM     16  HD  NAG B   1       8.921  10.168  27.8800  0.00  0.00     0.000 HD
ATOM     16   C  NAG B   1       8.950  10.015  29.0240  0.00  0.00     0.000 C
ATOM     17   C  NAG B   1       9.420   9.018  30.0500  0.00  0.00     0.000 C
ATOM     18   O  NAG B   1       7.835  10.520  29.1540  0.00  0.00     0.000 OA
ENDBRANCH 2 16
BRANCH 1 19
ATOM     19  O4  BDP B   2      10.482   7.763  27.0240  0.00  0.00     0.000 O
BRANCH 19 23
ATOM     20  C1  BDP B   2       9.606   6.567  23.1840  0.00  0.00     0.000 C
ATOM     21  C2  BDP B   2       8.568   7.428  23.8740  0.00  0.00     0.000 C
ATOM     22  C3  BDP B   2       9.156   8.141  25.0710  0.00  0.00     0.000 C
ATOM     23  C4  BDP B   2       9.812   7.103  25.9780  0.00  0.00     0.000 C
ATOM     24  C5  BDP B   2      10.834   6.314  25.1840  0.00  0.00     0.000 C
ATOM     25  O5  BDP B   2      10.194   5.659  24.1050  0.00  0.00     0.000 O
ATOM     26   O  BDP B   2       8.037   8.373  22.9710  0.00  0.00     0.000 O
ATOM     28  HD  BDP B   2       8.468   7.858  22.4240  0.00  0.00     0.000 HD
ATOM     28   O  BDP B   2       8.117   8.868  25.7460  0.00  0.00     0.000 O
ATOM     30  HD  BDP B   2       8.548   8.352  25.1990  0.00  0.00     0.000 HD
BRANCH 24 30
ATOM     30   C  BDP B   2      11.505   5.274  26.0080  0.00  0.00     0.000 C
ATOM     31   O  BDP B   2      10.799   4.326  26.4210  0.00  0.00     0.000 OA
ATOM     32   O  BDP B   2      12.738   5.404  26.2530  0.00  0.00     0.000 OA
ENDBRANCH 24 30
BRANCH 20 33
ATOM     33  O3  NAG B   3       8.867   5.843  22.2300  0.00  0.00     0.000 O
BRANCH 33 36
ATOM     34  C1  NAG B   3      10.499   4.830  18.9960  0.00  0.00     0.000 C
ATOM     35  C2  NAG B   3       9.785   5.723  19.9930  0.00  0.00     0.000 C
ATOM     36  C3  NAG B   3       9.717   5.068  21.3810  0.00  0.00     0.000 C
ATOM     37  C4  NAG B   3       9.134   3.663  21.2490  0.00  0.00     0.000 C
ATOM     38  C5  NAG B   3       9.871   2.884  20.1620  0.00  0.00     0.000 C
ATOM     39  O5  NAG B   3       9.808   3.591  18.9350  0.00  0.00     0.000 O
ATOM     40   O  NAG B   3       9.249   2.964  22.4980  0.00  0.00     0.000 O
ATOM     42  HD  NAG B   3       9.643   2.381  21.9940  0.00  0.00     0.000 HD
ATOM     42   C  NAG B   3       9.270   1.512  19.8710  0.00  0.00     0.000 C
ATOM     43   O  NAG B   3       7.959   1.671  19.3140  0.00  0.00     0.000 O
ATOM     45  HD  NAG B   3       8.354   1.087  18.8100  0.00  0.00     0.000 HD
BRANCH 35 47
ATOM     45   N  NAG B   3       9.177   7.019  19.7190  0.00  0.00     0.000 N
ATOM     47  HD  NAG B   3       8.603   6.434  20.0000  0.00  0.00     0.000 HD
ATOM     47   C  NAG B   3       9.776   8.162  19.9860  0.00  0.00     0.000 C
ATOM     48   C  NAG B   3       9.002   9.405  19.6610  0.00  0.00     0.000 C
ATOM     49   O  NAG B   3      10.893   8.209  20.4970  0.00  0.00     0.000 OA
ENDBRANCH 35 47
BRANCH 34 50
ATOM     50  O4  BDP B   4      10.371   5.525  17.7730  0.00  0.00     0.000 O
BRANCH 50 54
ATOM     51  C1  BDP B   4      12.069   6.076  14.1170  0.00  0.00     0.000 C
ATOM     52  C2  BDP B   4      11.112   4.892  14.1980  0.00  0.00     0.000 C
ATOM     53  C3  BDP B   4      10.291   5.023  15.4430  0.00  0.00     0.000 C
ATOM     54  C4  BDP B   4      11.227   5.158  16.6780  0.00  0.00     0.000 C
ATOM     55  C5  BDP B   4      12.300   6.220  16.4790  0.00  0.00     0.000 C
ATOM     56  O5  BDP B   4      12.951   6.040  15.2250  0.00  0.00     0.000 O
ATOM     57   O  BDP B   4      10.259   4.875  13.0730  0.00  0.00     0.000 O
ATOM     59  HD  BDP B   4      10.580   4.252  12.5650  0.00  0.00     0.000 HD
ATOM     59   O  BDP B   4       9.542   3.798  15.5830  0.00  0.00     0.000 O
ATOM     61  HD  BDP B   4       9.864   3.175  15.0750  0.00  0.00     0.000 HD
BRANCH 55 61
ATOM     61   C  BDP B   4      13.324   6.112  17.5940  0.00  0.00     0.000 C
ATOM     62   O  BDP B   4      14.139   5.152  17.5570  0.00  0.00     0.000 OA
ATOM     63   O  BDP B   4      13.314   6.992  18.5070  0.00  0.00     0.000 OA
ENDBRANCH 55 61
BRANCH 51 64
ATOM     64  O3  NAG B   5      12.797   5.954  12.8800  0.00  0.00     0.000 O
BRANCH 64 67
ATOM     65  C1  NAG B   5      13.712   8.927  10.9010  0.00  0.00     0.000 C
ATOM     66  C2  NAG B   5      12.847   7.804  11.4470  0.00  0.00     0.000 C
ATOM     67  C3  NAG B   5      13.571   7.101  12.5890  0.00  0.00     0.000 C
ATOM     68  C4  NAG B   5      14.982   6.671  12.1650  0.00  0.00     0.000 C
ATOM     69  C5  NAG B   5      15.736   7.837  11.5460  0.00  0.00     0.000 C
ATOM     70  O5  NAG B   5      14.959   8.416  10.4880  0.00  0.00     0.000 O
ATOM     71   O  NAG B   5      15.659   6.166  13.2960  0.00  0.00     0.000 O
ATOM     73  HD  NAG B   5      15.920   5.571  12.7230  0.00  0.00     0.000 HD
ATOM     73   C  NAG B   5      17.113   7.469  10.9760  0.00  0.00     0.000 C
ATOM     74   O  NAG B   5      16.952   6.544   9.8810  0.00  0.00     0.000 O
ATOM     76  HD  NAG B   5      17.213   5.949   9.3090  0.00  0.00     0.000 HD
BRANCH 66 78
ATOM     76   N  NAG B   5      11.580   8.483  11.7790  0.00  0.00     0.000 N
ATOM     78  HD  NAG B   5      11.836   7.815  11.2910  0.00  0.00     0.000 HD
ATOM     78   C  NAG B   5      10.347   8.034  11.4970  0.00  0.00     0.000 C
ATOM     79   C  NAG B   5       9.252   8.945  11.9830  0.00  0.00     0.000 C
ATOM     80   O  NAG B   5      10.124   6.940  10.8660  0.00  0.00     0.000 OA
ENDBRANCH 66 78
BRANCH 65 81
ATOM     81  O4  BDP B   6      13.055   9.561   9.7960  0.00  0.00     0.000 O
BRANCH 81 85
ATOM     82  C1  BDP B   6      12.991  13.470   8.0400  0.00  0.00     0.000 C
ATOM     83  C2  BDP B   6      13.731  12.369   7.2850  0.00  0.00     0.000 C
ATOM     84  C3  BDP B   6      13.358  10.964   7.7640  0.00  0.00     0.000 C
ATOM     85  C4  BDP B   6      13.481  10.826   9.2830  0.00  0.00     0.000 C
ATOM     86  C5  BDP B   6      12.724  12.010   9.9310  0.00  0.00     0.000 C
ATOM     87  O5  BDP B   6      13.203  13.301   9.4340  0.00  0.00     0.000 O
ATOM     88   O  BDP B   6      13.353  12.524   5.9200  0.00  0.00     0.000 O
ATOM     90  HD  BDP B   6      13.129  12.048   5.2310  0.00  0.00     0.000 HD
ATOM     90   O  BDP B   6      14.171   9.997   7.0950  0.00  0.00     0.000 O
ATOM     92  HD  BDP B   6      13.947   9.522   6.4060  0.00  0.00     0.000 HD
BRANCH 86 92
ATOM     92   C  BDP B   6      13.002  12.070  11.4130  0.00  0.00     0.000 C
ATOM     93   O  BDP B   6      14.053  12.646  11.8280  0.00  0.00     0.000 OA
ATOM     94   O  BDP B   6      12.145  11.549  12.1920  0.00  0.00     0.000 OA
ENDBRANCH 86 92
BRANCH 82 95
ATOM     95  O3  NAG B   7      13.553  14.740   7.6570  0.00  0.00     0.000 O
BRANCH 95 98
ATOM     96  C1  NAG B   7      12.613  18.218   7.0530  0.00  0.00     0.000 C
ATOM     97  C2  NAG B   7      13.492  16.977   6.9660  0.00  0.00     0.000 C
ATOM     98  C3  NAG B   7      12.761  15.920   7.7910  0.00  0.00     0.000 C
ATOM     99  C4  NAG B   7      12.611  16.398   9.2320  0.00  0.00     0.000 C
ATOM    100  C5  NAG B   7      11.942  17.773   9.2840  0.00  0.00     0.000 C
ATOM    101  O5  NAG B   7      12.635  18.655   8.4160  0.00  0.00     0.000 O
BRANCH 97 104
ATOM    102   N  NAG B   7      13.749  16.164   5.7700  0.00  0.00     0.000 N
ATOM    104  HD  NAG B   7      13.968  15.508   5.2480  0.00  0.00     0.000 HD
ATOM    104   O  NAG B   7      14.755  15.584   3.8250  0.00  0.00     0.000 OA
ATOM    105   C  NAG B   7      14.599  16.402   4.7520  0.00  0.00     0.000 C
ATOM    106   C  NAG B   7      15.381  17.671   4.7440  0.00  0.00     0.000 C
ENDBRANCH 97 104
ATOM    107   O  NAG B   7      11.046  19.387  10.7320  0.00  0.00     0.000 O
ATOM    109  HD  NAG B   7      10.949  18.987   9.9700  0.00  0.00     0.000 HD
ATOM    109   O  NAG B   7      11.046  19.387  10.7320  0.00  0.00     0.000 O
ATOM    111  HD  NAG B   7      10.949  18.987   9.9700  0.00  0.00     0.000 HD
ENDBRANCH 95 98
ENDBRANCH 82 95
ENDBRANCH 81 85
ENDBRANCH 65 81
ENDBRANCH 64 67
ENDBRANCH 51 64
ENDBRANCH 50 54
ENDBRANCH 34 50
ENDBRANCH 33 36
ENDBRANCH 20 33
ENDBRANCH 19 23
ENDBRANCH 1 19
TORSDOF 19
ENDMDL
MODEL 98
REMARK VINA RESULT:      -5.0      5.847     17.807
ROOT
ATOM      1  C1  NAG B   1      15.247  14.860   6.6060  0.00  0.00     0.000 C
ATOM      2  C2  NAG B   1      14.827  16.250   6.1340  0.00  0.00     0.000 C
ATOM      3  C3  NAG B   1      15.414  16.587   4.7790  0.00  0.00     0.000 C
ATOM      4  C4  NAG B   1      16.925  16.462   4.9460  0.00  0.00     0.000 C
ATOM      5  C5  NAG B   1      17.274  15.008   5.2890  0.00  0.00     0.000 C
ATOM      6  O5  NAG B   1      16.658  14.604   6.5310  0.00  0.00     0.000 O
ATOM      7   O  NAG B   1      15.052  17.917   4.3430  0.00  0.00     0.000 O
ATOM      9  HD  NAG B   1      14.344  17.662   4.7720  0.00  0.00     0.000 HD
ATOM      9   O  NAG B   1      17.581  16.844   3.7490  0.00  0.00     0.000 O
ATOM     11  HD  NAG B   1      16.873  16.588   4.1770  0.00  0.00     0.000 HD
ATOM     11   C  NAG B   1      18.797  14.831   5.3270  0.00  0.00     0.000 C
ATOM     12   O  NAG B   1      19.176  13.791   6.2270  0.00  0.00     0.000 O
ATOM     14  HD  NAG B   1      18.467  13.536   6.6550  0.00  0.00     0.000 HD
ENDROOT
BRANCH 2 16
ATOM     14   N  NAG B   1      13.357  16.276   6.2380  0.00  0.00     0.000 N
ATOM     16  HD  NAG B   1      12.698  16.055   6.7550  0.00  0.00     0.000 HD
ATOM     16   C  NAG B   1      12.687  17.190   6.9600  0.00  0.00     0.000 C
ATOM     17   C  NAG B   1      13.444  18.236   7.7360  0.00  0.00     0.000 C
ATOM     18   O  NAG B   1      11.457  17.210   6.9820  0.00  0.00     0.000 OA
ENDBRANCH 2 16
BRANCH 1 19
ATOM     19  O4  BDP B   2      14.926  14.877   7.9900  0.00  0.00     0.000 O
BRANCH 19 23
ATOM     20  C1  BDP B   2      13.902  11.921  10.6650  0.00  0.00     0.000 C
ATOM     21  C2  BDP B   2      15.337  12.406  10.7140  0.00  0.00     0.000 C
ATOM     22  C3  BDP B   2      15.489  13.737  10.0150  0.00  0.00     0.000 C
ATOM     23  C4  BDP B   2      14.918  13.611   8.6050  0.00  0.00     0.000 C
ATOM     24  C5  BDP B   2      13.482  13.132   8.6830  0.00  0.00     0.000 C
ATOM     25  O5  BDP B   2      13.437  11.871   9.3230  0.00  0.00     0.000 O
ATOM     26   O  BDP B   2      15.770  12.518  12.0520  0.00  0.00     0.000 O
ATOM     28  HD  BDP B   2      15.029  12.084  12.1630  0.00  0.00     0.000 HD
ATOM     28   O  BDP B   2      16.876  14.111  10.0040  0.00  0.00     0.000 O
ATOM     30  HD  BDP B   2      16.135  13.676  10.1150  0.00  0.00     0.000 HD
BRANCH 24 30
ATOM     30   C  BDP B   2      12.867  12.977   7.3390  0.00  0.00     0.000 C
ATOM     31   O  BDP B   2      11.937  13.760   7.0380  0.00  0.00     0.000 OA
ATOM     32   O  BDP B   2      13.305  12.066   6.5800  0.00  0.00     0.000 OA
ENDBRANCH 24 30
BRANCH 20 33
ATOM     33  O3  NAG B   3      13.967  10.613  11.1800  0.00  0.00     0.000 O
BRANCH 33 36
ATOM     34  C1  NAG B   3      11.143   8.996  13.0660  0.00  0.00     0.000 C
ATOM     35  C2  NAG B   3      12.418   9.788  12.8480  0.00  0.00     0.000 C
ATOM     36  C3  NAG B   3      12.666  10.048  11.3540  0.00  0.00     0.000 C
ATOM     37  C4  NAG B   3      12.595   8.726  10.5920  0.00  0.00     0.000 C
ATOM     38  C5  NAG B   3      11.315   7.976  10.9520  0.00  0.00     0.000 C
ATOM     39  O5  NAG B   3      11.252   7.773  12.3530  0.00  0.00     0.000 O
ATOM     40   O  NAG B   3      12.623   8.972   9.1780  0.00  0.00     0.000 O
ATOM     42  HD  NAG B   3      11.899   8.498   9.2060  0.00  0.00     0.000 HD
ATOM     42   C  NAG B   3      11.223   6.583  10.3350  0.00  0.00     0.000 C
ATOM     43   O  NAG B   3      12.247   5.746  10.8870  0.00  0.00     0.000 O
ATOM     45  HD  NAG B   3      11.523   5.272  10.9150  0.00  0.00     0.000 HD
BRANCH 35 47
ATOM     45   N  NAG B   3      13.344  10.225  13.8850  0.00  0.00     0.000 N
ATOM     47  HD  NAG B   3      13.709   9.680  13.3200  0.00  0.00     0.000 HD
ATOM     47   C  NAG B   3      13.353  11.452  14.3670  0.00  0.00     0.000 C
ATOM     48   C  NAG B   3      14.385  11.741  15.4170  0.00  0.00     0.000 C
ATOM     49   O  NAG B   3      12.581  12.317  13.9610  0.00  0.00     0.000 OA
ENDBRANCH 35 47
BRANCH 34 50
ATOM     50  O4  BDP B   4      11.134   8.756  14.4580  0.00  0.00     0.000 O
BRANCH 50 54
ATOM     51  C1  BDP B   4       9.082   6.973  17.4860  0.00  0.00     0.000 C
ATOM     52  C2  BDP B   4       9.958   6.027  16.6730  0.00  0.00     0.000 C
ATOM     53  C3  BDP B   4      10.920   6.840  15.8630  0.00  0.00     0.000 C
ATOM     54  C4  BDP B   4      10.138   7.870  14.9970  0.00  0.00     0.000 C
ATOM     55  C5  BDP B   4       9.126   8.662  15.8140  0.00  0.00     0.000 C
ATOM     56  O5  BDP B   4       8.328   7.786  16.6040  0.00  0.00     0.000 O
ATOM     57   O  BDP B   4      10.679   5.168  17.5310  0.00  0.00     0.000 O
ATOM     59  HD  BDP B   4      10.261   4.411  17.4830  0.00  0.00     0.000 HD
ATOM     59   O  BDP B   4      11.593   5.929  14.9700  0.00  0.00     0.000 O
ATOM     61  HD  BDP B   4      11.174   5.172  14.9220  0.00  0.00     0.000 HD
BRANCH 55 61
ATOM     61   C  BDP B   4       8.226   9.444  14.8730  0.00  0.00     0.000 C
ATOM     62   O  BDP B   4       8.516  10.647  14.6410  0.00  0.00     0.000 OA
ATOM     63   O  BDP B   4       7.227   8.849  14.3640  0.00  0.00     0.000 OA
ENDBRANCH 55 61
BRANCH 51 64
ATOM     64  O3  NAG B   5       8.215   6.160  18.3000  0.00  0.00     0.000 O
BRANCH 64 67
ATOM     65  C1  NAG B   5       7.210   7.100  21.7200  0.00  0.00     0.000 C
ATOM     66  C2  NAG B   5       8.065   6.517  20.6080  0.00  0.00     0.000 C
ATOM     67  C3  NAG B   5       7.496   6.918  19.2530  0.00  0.00     0.000 C
ATOM     68  C4  NAG B   5       6.003   6.573  19.1580  0.00  0.00     0.000 C
ATOM     69  C5  NAG B   5       5.248   7.118  20.3600  0.00  0.00     0.000 C
ATOM     70  O5  NAG B   5       5.875   6.676  21.5730  0.00  0.00     0.000 O
ATOM     71   O  NAG B   5       5.494   7.099  17.9520  0.00  0.00     0.000 O
ATOM     73  HD  NAG B   5       5.092   6.332  17.9280  0.00  0.00     0.000 HD
ATOM     73   C  NAG B   5       3.769   6.712  20.4150  0.00  0.00     0.000 C
ATOM     74   O  NAG B   5       3.665   5.281  20.5640  0.00  0.00     0.000 O
ATOM     76  HD  NAG B   5       3.264   4.514  20.5400  0.00  0.00     0.000 HD
BRANCH 66 78
ATOM     76   N  NAG B   5       9.297   5.788  20.9670  0.00  0.00     0.000 N
ATOM     78  HD  NAG B   5       9.088   6.529  20.5700  0.00  0.00     0.000 HD
ATOM     78   C  NAG B   5      10.547   6.274  20.9070  0.00  0.00     0.000 C
ATOM     79   C  NAG B   5      11.594   5.292  21.3580  0.00  0.00     0.000 C
ATOM     80   O  NAG B   5      10.822   7.457  20.4960  0.00  0.00     0.000 OA
ENDBRANCH 66 78
BRANCH 65 81
ATOM     81  O4  BDP B   6       7.715   6.688  22.9970  0.00  0.00     0.000 O
BRANCH 81 85
ATOM     82  C1  BDP B   6       7.761   7.971  27.0860  0.00  0.00     0.000 C
ATOM     83  C2  BDP B   6       6.468   7.360  26.5520  0.00  0.00     0.000 C
ATOM     84  C3  BDP B   6       6.671   6.577  25.2520  0.00  0.00     0.000 C
ATOM     85  C4  BDP B   6       7.416   7.401  24.1990  0.00  0.00     0.000 C
ATOM     86  C5  BDP B   6       8.681   7.992  24.8650  0.00  0.00     0.000 C
ATOM     87  O5  BDP B   6       8.356   8.762  26.0670  0.00  0.00     0.000 O
ATOM     88   O  BDP B   6       6.015   6.476  27.5750  0.00  0.00     0.000 O
ATOM     90  HD  BDP B   6       5.670   5.688  27.6710  0.00  0.00     0.000 HD
ATOM     90   O  BDP B   6       5.406   6.135  24.7560  0.00  0.00     0.000 O
ATOM     92  HD  BDP B   6       5.060   5.346  24.8520  0.00  0.00     0.000 HD
BRANCH 86 92
ATOM     92   C  BDP B   6       9.334   9.005  23.9550  0.00  0.00     0.000 C
ATOM     93   O  BDP B   6       8.727  10.086  23.6870  0.00  0.00     0.000 OA
ATOM     94   O  BDP B   6      10.492   8.732  23.5110  0.00  0.00     0.000 OA
ENDBRANCH 86 92
BRANCH 82 95
ATOM     95  O3  NAG B   7       7.432   8.841  28.1860  0.00  0.00     0.000 O
BRANCH 95 98
ATOM     96  C1  NAG B   7       8.823   9.400  31.5170  0.00  0.00     0.000 C
ATOM     97  C2  NAG B   7       7.732   9.118  30.4920  0.00  0.00     0.000 C
ATOM     98  C3  NAG B   7       8.441   9.167  29.1400  0.00  0.00     0.000 C
ATOM     99  C4  NAG B   7       9.063  10.546  28.9300  0.00  0.00     0.000 C
ATOM    100  C5  NAG B   7       9.972  10.920  30.1020  0.00  0.00     0.000 C
ATOM    101  O5  NAG B   7       9.253  10.751  31.3140  0.00  0.00     0.000 O
BRANCH 97 104
ATOM    102   N  NAG B   7       7.112   7.786  30.5260  0.00  0.00     0.000 N
ATOM    104  HD  NAG B   7       6.838   6.997  30.2990  0.00  0.00     0.000 HD
ATOM    104   O  NAG B   7       5.430   6.278  30.6900  0.00  0.00     0.000 OA
ATOM    105   C  NAG B   7       5.826   7.459  30.7520  0.00  0.00     0.000 C
ATOM    106   C  NAG B   7       4.849   8.539  31.0700  0.00  0.00     0.000 C
ENDBRANCH 97 104
ATOM    107   O  NAG B   7      11.516  12.513  30.8640  0.00  0.00     0.000 O
ATOM    109  HD  NAG B   7      11.326  11.668  30.8330  0.00  0.00     0.000 HD
ATOM    109   O  NAG B   7      11.516  12.513  30.8640  0.00  0.00     0.000 O
ATOM    111  HD  NAG B   7      11.326  11.668  30.8330  0.00  0.00     0.000 HD
ENDBRANCH 95 98
ENDBRANCH 82 95
ENDBRANCH 81 85
ENDBRANCH 65 81
ENDBRANCH 64 67
ENDBRANCH 51 64
ENDBRANCH 50 54
ENDBRANCH 34 50
ENDBRANCH 33 36
ENDBRANCH 20 33
ENDBRANCH 19 23
ENDBRANCH 1 19
TORSDOF 19
ENDMDL
MODEL 99
REMARK VINA RESULT:      -4.9      5.508      7.953
ROOT
ATOM      1  C1  NAG B   1       9.702   8.694  14.1330  0.00  0.00     0.000 C
ATOM      2  C2  NAG B   1       9.441   7.830  12.9010  0.00  0.00     0.000 C
ATOM      3  C3  NAG B   1       8.180   8.251  12.1740  0.00  0.00     0.000 C
ATOM      4  C4  NAG B   1       7.061   8.148  13.2050  0.00  0.00     0.000 C
ATOM      5  C5  NAG B   1       7.332   9.140  14.3430  0.00  0.00     0.000 C
ATOM      6  O5  NAG B   1       8.576   8.840  15.0110  0.00  0.00     0.000 O
ATOM      7   O  NAG B   1       7.905   7.413  11.0290  0.00  0.00     0.000 O
ATOM      9  HD  NAG B   1       8.771   7.444  11.0340  0.00  0.00     0.000 HD
ATOM      9   O  NAG B   1       5.812   8.439  12.6010  0.00  0.00     0.000 O
ATOM     11  HD  NAG B   1       6.678   8.470  12.6060  0.00  0.00     0.000 HD
ATOM     11   C  NAG B   1       6.150   9.151  15.3210  0.00  0.00     0.000 C
ATOM     12   O  NAG B   1       6.573   9.491  16.6400  0.00  0.00     0.000 O
ATOM     14  HD  NAG B   1       7.438   9.521  16.6460  0.00  0.00     0.000 HD
ENDROOT
BRANCH 2 16
ATOM     14   N  NAG B   1      10.421   6.744  12.7230  0.00  0.00     0.000 N
ATOM     16  HD  NAG B   1      10.595   6.044  12.2440  0.00  0.00     0.000 HD
ATOM     16   C  NAG B   1      11.368   6.758  11.7700  0.00  0.00     0.000 C
ATOM     17   C  NAG B   1      11.444   7.909  10.8020  0.00  0.00     0.000 C
ATOM     18   O  NAG B   1      12.200   5.855  11.6830  0.00  0.00     0.000 OA
ENDBRANCH 2 16
BRANCH 1 19
ATOM     19  O4  BDP B   2      10.668   7.942  14.8560  0.00  0.00     0.000 O
BRANCH 19 23
ATOM     20  C1  BDP B   2      12.330  11.247  16.6610  0.00  0.00     0.000 C
ATOM     21  C2  BDP B   2      13.041  10.723  15.4310  0.00  0.00     0.000 C
ATOM     22  C3  BDP B   2      12.145   9.808  14.6280  0.00  0.00     0.000 C
ATOM     23  C4  BDP B   2      11.611   8.719  15.5540  0.00  0.00     0.000 C
ATOM     24  C5  BDP B   2      10.912   9.362  16.7360  0.00  0.00     0.000 C
ATOM     25  O5  BDP B   2      11.829  10.174  17.4450  0.00  0.00     0.000 O
ATOM     26   O  BDP B   2      13.475  11.794  14.6220  0.00  0.00     0.000 O
ATOM     28  HD  BDP B   2      13.252  12.221  15.3410  0.00  0.00     0.000 HD
ATOM     28   O  BDP B   2      12.890   9.262  13.5270  0.00  0.00     0.000 O
ATOM     30  HD  BDP B   2      12.667   9.689  14.2470  0.00  0.00     0.000 HD
BRANCH 24 30
ATOM     30   C  BDP B   2      10.376   8.353  17.6880  0.00  0.00     0.000 C
ATOM     31   O  BDP B   2      11.159   7.455  18.0750  0.00  0.00     0.000 OA
ATOM     32   O  BDP B   2       9.168   8.449  18.0480  0.00  0.00     0.000 OA
ENDBRANCH 24 30
BRANCH 20 33
ATOM     33  O3  NAG B   3      13.339  11.914  17.3790  0.00  0.00     0.000 O
BRANCH 33 36
ATOM     34  C1  NAG B   3      12.522  15.148  19.1180  0.00  0.00     0.000 C
ATOM     35  C2  NAG B   3      12.889  14.216  17.9790  0.00  0.00     0.000 C
ATOM     36  C3  NAG B   3      12.795  12.744  18.4080  0.00  0.00     0.000 C
ATOM     37  C4  NAG B   3      13.602  12.539  19.6880  0.00  0.00     0.000 C
ATOM     38  C5  NAG B   3      13.212  13.581  20.7330  0.00  0.00     0.000 C
ATOM     39  O5  NAG B   3      13.394  14.884  20.2070  0.00  0.00     0.000 O
ATOM     40   O  NAG B   3      13.363  11.223  20.2130  0.00  0.00     0.000 O
ATOM     42  HD  NAG B   3      13.165  11.678  20.9240  0.00  0.00     0.000 HD
ATOM     42   C  NAG B   3      14.062  13.532  22.0000  0.00  0.00     0.000 C
ATOM     43   O  NAG B   3      15.413  13.889  21.6840  0.00  0.00     0.000 O
ATOM     45  HD  NAG B   3      15.216  14.343  22.3950  0.00  0.00     0.000 HD
BRANCH 35 47
ATOM     45   N  NAG B   3      13.274  14.754  16.6800  0.00  0.00     0.000 N
ATOM     47  HD  NAG B   3      13.945  14.425  17.1170  0.00  0.00     0.000 HD
ATOM     47   C  NAG B   3      12.521  14.638  15.6040  0.00  0.00     0.000 C
ATOM     48   C  NAG B   3      13.076  15.230  14.3420  0.00  0.00     0.000 C
ATOM     49   O  NAG B   3      11.440  14.054  15.6250  0.00  0.00     0.000 OA
ENDBRANCH 35 47
BRANCH 34 50
ATOM     50  O4  BDP B   4      12.769  16.435  18.5890  0.00  0.00     0.000 O
BRANCH 50 54
ATOM     51  C1  BDP B   4      10.703  19.859  17.8410  0.00  0.00     0.000 C
ATOM     52  C2  BDP B   4      11.806  20.002  18.8830  0.00  0.00     0.000 C
ATOM     53  C3  BDP B   4      12.710  18.810  18.7910  0.00  0.00     0.000 C
ATOM     54  C4  BDP B   4      11.875  17.506  18.9360  0.00  0.00     0.000 C
ATOM     55  C5  BDP B   4      10.662  17.488  18.0160  0.00  0.00     0.000 C
ATOM     56  O5  BDP B   4       9.932  18.707  18.1310  0.00  0.00     0.000 O
ATOM     57   O  BDP B   4      12.554  21.175  18.6470  0.00  0.00     0.000 O
ATOM     59  HD  BDP B   4      12.272  21.738  19.2420  0.00  0.00     0.000 HD
ATOM     59   O  BDP B   4      13.617  18.884  19.9100  0.00  0.00     0.000 O
ATOM     61  HD  BDP B   4      13.335  19.447  20.5050  0.00  0.00     0.000 HD
BRANCH 55 61
ATOM     61   C  BDP B   4       9.760  16.328  18.3980  0.00  0.00     0.000 C
ATOM     62   O  BDP B   4       9.446  15.504  17.5000  0.00  0.00     0.000 OA
ATOM     63   O  BDP B   4       9.368  16.243  19.6010  0.00  0.00     0.000 OA
ENDBRANCH 55 61
BRANCH 51 64
ATOM     64  O3  NAG B   5       9.892  21.047  17.9120  0.00  0.00     0.000 O
BRANCH 64 67
ATOM     65  C1  NAG B   5       8.128  22.240  14.9020  0.00  0.00     0.000 C
ATOM     66  C2  NAG B   5       9.281  21.990  15.8590  0.00  0.00     0.000 C
ATOM     67  C3  NAG B   5       8.839  21.045  16.9680  0.00  0.00     0.000 C
ATOM     68  C4  NAG B   5       7.551  21.544  17.6370  0.00  0.00     0.000 C
ATOM     69  C5  NAG B   5       6.489  21.854  16.5950  0.00  0.00     0.000 C
ATOM     70  O5  NAG B   5       7.020  22.750  15.6070  0.00  0.00     0.000 O
ATOM     71   O  NAG B   5       7.104  20.561  18.5470  0.00  0.00     0.000 O
ATOM     73  HD  NAG B   5       6.958  21.257  19.0410  0.00  0.00     0.000 HD
ATOM     73   C  NAG B   5       5.208  22.481  17.1640  0.00  0.00     0.000 C
ATOM     74   O  NAG B   5       5.514  23.769  17.7380  0.00  0.00     0.000 O
ATOM     76  HD  NAG B   5       5.368  24.465  18.2320  0.00  0.00     0.000 HD
BRANCH 66 78
ATOM     76   N  NAG B   5      10.341  21.603  14.9080  0.00  0.00     0.000 N
ATOM     78  HD  NAG B   5      10.255  22.141  15.5810  0.00  0.00     0.000 HD
ATOM     78   C  NAG B   5      11.643  21.914  15.0090  0.00  0.00     0.000 C
ATOM     79   C  NAG B   5      12.481  21.356  13.8900  0.00  0.00     0.000 C
ATOM     80   O  NAG B   5      12.125  22.625  15.9610  0.00  0.00     0.000 OA
ENDBRANCH 66 78
BRANCH 65 81
ATOM     81  O4  BDP B   6       8.525  23.166  13.8820  0.00  0.00     0.000 O
BRANCH 81 85
ATOM     82  C1  BDP B   6       7.151  24.716  10.1310  0.00  0.00     0.000 C
ATOM     83  C2  BDP B   6       6.477  25.235  11.3980  0.00  0.00     0.000 C
ATOM     84  C3  BDP B   6       7.289  24.948  12.6640  0.00  0.00     0.000 C
ATOM     85  C4  BDP B   6       7.686  23.474  12.7660  0.00  0.00     0.000 C
ATOM     86  C5  BDP B   6       8.322  23.058  11.4180  0.00  0.00     0.000 C
ATOM     87  O5  BDP B   6       7.434  23.333  10.2880  0.00  0.00     0.000 O
ATOM     88   O  BDP B   6       6.360  26.644  11.2160  0.00  0.00     0.000 O
ATOM     90  HD  BDP B   6       6.456  27.383  11.6560  0.00  0.00     0.000 HD
ATOM     90   O  BDP B   6       6.545  25.359  13.8140  0.00  0.00     0.000 O
ATOM     92  HD  BDP B   6       6.641  26.098  14.2540  0.00  0.00     0.000 HD
BRANCH 86 92
ATOM     92   C  BDP B   6       8.520  21.562  11.3650  0.00  0.00     0.000 C
ATOM     93   O  BDP B   6       7.684  20.844  10.7380  0.00  0.00     0.000 OA
ATOM     94   O  BDP B   6       9.547  21.086  11.9420  0.00  0.00     0.000 OA
ENDBRANCH 86 92
BRANCH 82 95
ATOM     95  O3  NAG B   7       6.226  24.856   9.0350  0.00  0.00     0.000 O
BRANCH 95 98
ATOM     96  C1  NAG B   7       6.838  25.717   5.5390  0.00  0.00     0.000 C
ATOM     97  C2  NAG B   7       6.285  25.909   6.9440  0.00  0.00     0.000 C
ATOM     98  C3  NAG B   7       6.690  24.647   7.7020  0.00  0.00     0.000 C
ATOM     99  C4  NAG B   7       6.084  23.419   7.0260  0.00  0.00     0.000 C
ATOM    100  C5  NAG B   7       6.452  23.375   5.5420  0.00  0.00     0.000 C
ATOM    101  O5  NAG B   7       6.125  24.623   4.9510  0.00  0.00     0.000 O
BRANCH 97 104
ATOM    102   N  NAG B   7       6.824  26.957   7.8220  0.00  0.00     0.000 N
ATOM    104  HD  NAG B   7       7.132  27.377   8.5140  0.00  0.00     0.000 HD
ATOM    104   O  NAG B   7       6.836  28.914   8.9620  0.00  0.00     0.000 OA
ATOM    105   C  NAG B   7       6.284  28.146   8.1490  0.00  0.00     0.000 C
ATOM    106   C  NAG B   7       4.987  28.546   7.5340  0.00  0.00     0.000 C
ENDBRANCH 97 104
ATOM    107   O  NAG B   7       6.336  22.061   3.6030  0.00  0.00     0.000 O
ATOM    109  HD  NAG B   7       6.831  22.602   4.0630  0.00  0.00     0.000 HD
ATOM    109   O  NAG B   7       6.336  22.061   3.6030  0.00  0.00     0.000 O
ATOM    111  HD  NAG B   7       6.831  22.602   4.0630  0.00  0.00     0.000 HD
ENDBRANCH 95 98
ENDBRANCH 82 95
ENDBRANCH 81 85
ENDBRANCH 65 81
ENDBRANCH 64 67
ENDBRANCH 51 64
ENDBRANCH 50 54
ENDBRANCH 34 50
ENDBRANCH 33 36
ENDBRANCH 20 33
ENDBRANCH 19 23
ENDBRANCH 1 19
TORSDOF 19
ENDMDL
MODEL 100
REMARK VINA RESULT:       3.4      9.144     14.634
ROOT
ATOM      1  C1  NAG B   1      18.879   5.238   3.8960  0.00  0.00     0.000 C
ATOM      2  C2  NAG B   1      18.264   4.311   2.8510  0.00  0.00     0.000 C
ATOM      3  C3  NAG B   1      18.945   4.448   1.5040  0.00  0.00     0.000 C
ATOM      4  C4  NAG B   1      18.810   5.920   1.1270  0.00  0.00     0.000 C
ATOM      5  C5  NAG B   1      19.565   6.774   2.1540  0.00  0.00     0.000 C
ATOM      6  O5  NAG B   1      19.014   6.605   3.4780  0.00  0.00     0.000 O
ATOM      7   O  NAG B   1      18.342   3.601   0.4990  0.00  0.00     0.000 O
ATOM      9  HD  NAG B   1      18.269   3.121   1.2170  0.00  0.00     0.000 HD
ATOM      9   O  NAG B   1      19.342   6.143  -0.1680  0.00  0.00     0.000 O
ATOM     11  HD  NAG B   1      19.268   5.663   0.5500  0.00  0.00     0.000 HD
ATOM     11   C  NAG B   1      19.557   8.244   1.7190  0.00  0.00     0.000 C
ATOM     12   O  NAG B   1      19.625   9.118   2.8450  0.00  0.00     0.000 O
ATOM     14  HD  NAG B   1      19.552   8.638   3.5620  0.00  0.00     0.000 HD
ENDROOT
BRANCH 2 16
ATOM     14   N  NAG B   1      18.235   3.038   3.5940  0.00  0.00     0.000 N
ATOM     16  HD  NAG B   1      17.952   2.674   4.3270  0.00  0.00     0.000 HD
ATOM     16   C  NAG B   1      17.168   2.221   3.6110  0.00  0.00     0.000 C
ATOM     17   C  NAG B   1      15.915   2.606   2.8700  0.00  0.00     0.000 C
ATOM     18   O  NAG B   1      17.199   1.143   4.2030  0.00  0.00     0.000 OA
ENDBRANCH 2 16
BRANCH 1 19
ATOM     19  O4  BDP B   2      17.910   5.240   4.9360  0.00  0.00     0.000 O
BRANCH 19 23
ATOM     20  C1  BDP B   2      17.157   7.595   8.2270  0.00  0.00     0.000 C
ATOM     21  C2  BDP B   2      16.643   8.110   6.8990  0.00  0.00     0.000 C
ATOM     22  C3  BDP B   2      16.597   7.009   5.8640  0.00  0.00     0.000 C
ATOM     23  C4  BDP B   2      17.974   6.356   5.7920  0.00  0.00     0.000 C
ATOM     24  C5  BDP B   2      18.375   5.871   7.1710  0.00  0.00     0.000 C
ATOM     25  O5  BDP B   2      18.421   6.967   8.0640  0.00  0.00     0.000 O
ATOM     26   O  BDP B   2      15.357   8.670   7.0550  0.00  0.00     0.000 O
ATOM     28  HD  BDP B   2      15.591   8.580   7.8840  0.00  0.00     0.000 HD
ATOM     28   O  BDP B   2      16.195   7.562   4.6010  0.00  0.00     0.000 O
ATOM     30  HD  BDP B   2      16.429   7.472   5.4300  0.00  0.00     0.000 HD
BRANCH 24 30
ATOM     30   C  BDP B   2      19.717   5.232   7.1740  0.00  0.00     0.000 C
ATOM     31   O  BDP B   2      20.706   5.973   6.9710  0.00  0.00     0.000 OA
ATOM     32   O  BDP B   2      19.789   3.986   7.3720  0.00  0.00     0.000 OA
ENDBRANCH 24 30
BRANCH 20 33
ATOM     33  O3  NAG B   3      17.314   8.756   9.0050  0.00  0.00     0.000 O
BRANCH 33 36
ATOM     34  C1  NAG B   3      17.211   8.555  12.7600  0.00  0.00     0.000 C
ATOM     35  C2  NAG B   3      16.684   8.656  11.3410  0.00  0.00     0.000 C
ATOM     36  C3  NAG B   3      17.808   8.454  10.3120  0.00  0.00     0.000 C
ATOM     37  C4  NAG B   3      18.963   9.398  10.6340  0.00  0.00     0.000 C
ATOM     38  C5  NAG B   3      19.354   9.275  12.1050  0.00  0.00     0.000 C
ATOM     39  O5  NAG B   3      18.228   9.531  12.9270  0.00  0.00     0.000 O
ATOM     40   O  NAG B   3      20.097   9.085   9.8110  0.00  0.00     0.000 O
ATOM     42  HD  NAG B   3      20.489   9.039  10.5820  0.00  0.00     0.000 HD
ATOM     42   C  NAG B   3      20.417  10.277  12.5470  0.00  0.00     0.000 C
ATOM     43   O  NAG B   3      19.884  11.605  12.4710  0.00  0.00     0.000 O
ATOM     45  HD  NAG B   3      20.275  11.559  13.2420  0.00  0.00     0.000 HD
BRANCH 35 47
ATOM     45   N  NAG B   3      15.299   8.946  10.9950  0.00  0.00     0.000 N
ATOM     47  HD  NAG B   3      15.843   9.572  10.7450  0.00  0.00     0.000 HD
ATOM     47   C  NAG B   3      14.452   8.021  10.5890  0.00  0.00     0.000 C
ATOM     48   C  NAG B   3      13.068   8.493  10.2540  0.00  0.00     0.000 C
ATOM     49   O  NAG B   3      14.783   6.844  10.4660  0.00  0.00     0.000 OA
ENDBRANCH 35 47
BRANCH 34 50
ATOM     50  O4  BDP B   4      16.088   8.873  13.5560  0.00  0.00     0.000 O
BRANCH 50 54
ATOM     51  C1  BDP B   4      13.992   7.517  16.7680  0.00  0.00     0.000 C
ATOM     52  C2  BDP B   4      14.902   8.704  17.0630  0.00  0.00     0.000 C
ATOM     53  C3  BDP B   4      15.311   9.328  15.7650  0.00  0.00     0.000 C
ATOM     54  C4  BDP B   4      15.961   8.253  14.8470  0.00  0.00     0.000 C
ATOM     55  C5  BDP B   4      15.110   6.995  14.7370  0.00  0.00     0.000 C
ATOM     56  O5  BDP B   4      14.713   6.547  16.0300  0.00  0.00     0.000 O
ATOM     57   O  BDP B   4      14.221   9.660  17.8480  0.00  0.00     0.000 O
ATOM     59  HD  BDP B   4      14.534   9.549  18.6470  0.00  0.00     0.000 HD
ATOM     59   O  BDP B   4      16.317  10.316  16.0720  0.00  0.00     0.000 O
ATOM     61  HD  BDP B   4      16.630  10.205  16.8720  0.00  0.00     0.000 HD
BRANCH 55 61
ATOM     61   C  BDP B   4      15.916   5.903  14.0560  0.00  0.00     0.000 C
ATOM     62   O  BDP B   4      16.994   5.541  14.5960  0.00  0.00     0.000 OA
ATOM     63   O  BDP B   4      15.465   5.406  12.9790  0.00  0.00     0.000 OA
ENDBRANCH 55 61
BRANCH 51 64
ATOM     64  O3  NAG B   5      13.566   6.981  18.0360  0.00  0.00     0.000 O
BRANCH 64 67
ATOM     65  C1  NAG B   5      10.046   6.075  18.6570  0.00  0.00     0.000 C
ATOM     66  C2  NAG B   5      11.276   6.956  18.5220  0.00  0.00     0.000 C
ATOM     67  C3  NAG B   5      12.424   6.155  17.9210  0.00  0.00     0.000 C
ATOM     68  C4  NAG B   5      12.654   4.853  18.7000  0.00  0.00     0.000 C
ATOM     69  C5  NAG B   5      11.351   4.087  18.8640  0.00  0.00     0.000 C
ATOM     70  O5  NAG B   5      10.350   4.941  19.4370  0.00  0.00     0.000 O
ATOM     71   O  NAG B   5      13.618   4.081  18.0160  0.00  0.00     0.000 O
ATOM     73  HD  NAG B   5      13.908   3.949  18.8210  0.00  0.00     0.000 HD
ATOM     73   C  NAG B   5      11.462   2.832  19.7420  0.00  0.00     0.000 C
ATOM     74   O  NAG B   5      11.809   3.213  21.0890  0.00  0.00     0.000 O
ATOM     76  HD  NAG B   5      12.099   3.081  21.8950  0.00  0.00     0.000 HD
BRANCH 66 78
ATOM     76   N  NAG B   5      11.083   8.379  18.8630  0.00  0.00     0.000 N
ATOM     78  HD  NAG B   5      11.311   7.916  18.1670  0.00  0.00     0.000 HD
ATOM     78   C  NAG B   5      11.037   9.400  17.9920  0.00  0.00     0.000 C
ATOM     79   C  NAG B   5      10.808  10.735  18.6460  0.00  0.00     0.000 C
ATOM     80   O  NAG B   5      11.184   9.252  16.7270  0.00  0.00     0.000 OA
ENDBRANCH 66 78
BRANCH 65 81
ATOM     81  O4  BDP B   6       8.977   6.812  19.2650  0.00  0.00     0.000 O
BRANCH 81 85
ATOM     82  C1  BDP B   6       4.728   7.299  18.9940  0.00  0.00     0.000 C
ATOM     83  C2  BDP B   6       5.256   5.929  19.4140  0.00  0.00     0.000 C
ATOM     84  C3  BDP B   6       6.717   5.969  19.8710  0.00  0.00     0.000 C
ATOM     85  C4  BDP B   6       7.618   6.664  18.8480  0.00  0.00     0.000 C
ATOM     86  C5  BDP B   6       6.964   8.016  18.4780  0.00  0.00     0.000 C
ATOM     87  O5  BDP B   6       5.589   7.846  18.0060  0.00  0.00     0.000 O
ATOM     88   O  BDP B   6       4.428   5.518  20.4980  0.00  0.00     0.000 O
ATOM     90  HD  BDP B   6       4.484   5.137  21.2730  0.00  0.00     0.000 HD
ATOM     90   O  BDP B   6       7.172   4.641  20.1370  0.00  0.00     0.000 O
ATOM     92  HD  BDP B   6       7.229   4.259  20.9130  0.00  0.00     0.000 HD
BRANCH 86 92
ATOM     92   C  BDP B   6       7.673   8.644  17.3030  0.00  0.00     0.000 C
ATOM     93   O  BDP B   6       7.749   9.907  17.2210  0.00  0.00     0.000 OA
ATOM     94   O  BDP B   6       8.190   7.862  16.4450  0.00  0.00     0.000 OA
ENDBRANCH 86 92
BRANCH 82 95
ATOM     95  O3  NAG B   7       3.428   7.121  18.4000  0.00  0.00     0.000 O
BRANCH 95 98
ATOM     96  C1  NAG B   7       0.334   9.043  18.1310  0.00  0.00     0.000 C
ATOM     97  C2  NAG B   7       1.188   7.802  18.3540  0.00  0.00     0.000 C
ATOM     98  C3  NAG B   7       2.624   8.268  18.1290  0.00  0.00     0.000 C
ATOM     99  C4  NAG B   7       2.779   8.805  16.7080  0.00  0.00     0.000 C
ATOM    100  C5  NAG B   7       1.740   9.890  16.4180  0.00  0.00     0.000 C
ATOM    101  O5  NAG B   7       0.452   9.393  16.7480  0.00  0.00     0.000 O
BRANCH 97 104
ATOM    102   N  NAG B   7       1.232   7.223  19.7040  0.00  0.00     0.000 N
ATOM    104  HD  NAG B   7       1.517   6.911  20.4600  0.00  0.00     0.000 HD
ATOM    104   O  NAG B   7       0.929   5.648  21.3040  0.00  0.00     0.000 OA
ATOM    105   C  NAG B   7       0.765   6.034  20.1290  0.00  0.00     0.000 C
ATOM    106   C  NAG B   7       0.047   5.151  19.1660  0.00  0.00     0.000 C
ENDBRANCH 97 104
ATOM    107   O  NAG B   7       1.071  11.495  14.8440  0.00  0.00     0.000 O
ATOM    109  HD  NAG B   7       1.164  11.327  15.6880  0.00  0.00     0.000 HD
ATOM    109   O  NAG B   7       1.071  11.495  14.8440  0.00  0.00     0.000 O
ATOM    111  HD  NAG B   7       1.164  11.327  15.6880  0.00  0.00     0.000 HD
ENDBRANCH 95 98
ENDBRANCH 82 95
ENDBRANCH 81 85
ENDBRANCH 65 81
ENDBRANCH 64 67
ENDBRANCH 51 64
ENDBRANCH 50 54
ENDBRANCH 34 50
ENDBRANCH 33 36
ENDBRANCH 20 33
ENDBRANCH 19 23
ENDBRANCH 1 19
TORSDOF 19
ENDMDL
