MODEL 1
REMARK VINA RESULT:      -9.2      0.000      0.000
ROOT
ATOM      1  C1  SGN B   1      28.466   9.866  13.2120  0.00  0.00     0.000 C
ATOM      2  C2  SGN B   1      27.970   8.415  13.3200  0.00  0.00     0.000 C
ATOM      3  C3  SGN B   1      29.127   7.470  13.6600  0.00  0.00     0.000 C
ATOM      4  C4  SGN B   1      30.245   7.616  12.6320  0.00  0.00     0.000 C
ATOM      5  C5  SGN B   1      30.587   9.096  12.4750  0.00  0.00     0.000 C
ATOM      6  O5  SGN B   1      29.396   9.833  12.1380  0.00  0.00     0.000 O
ATOM      7   O  SGN B   1      28.673   6.122  13.7150  0.00  0.00     0.000 O
ATOM      9  HD  SGN B   1      28.497   6.334  12.8940  0.00  0.00     0.000 HD
ATOM      9   O  SGN B   1      31.382   6.895  13.0690  0.00  0.00     0.000 O
ATOM     11  HD  SGN B   1      31.206   7.107  12.2480  0.00  0.00     0.000 HD
ENDROOT
BRANCH 2 13
ATOM     11   N  SGN B   1      26.539   8.627  13.0290  0.00  0.00     0.000 N
ATOM     13  HD  SGN B   1      26.919   9.036  13.6910  0.00  0.00     0.000 HD
ATOM     13   S  SGN B   1      25.478   9.018  14.1740  0.00  0.00     0.000 S
ATOM     14   O  SGN B   1      26.134   9.164  15.4140  0.00  0.00     0.000 OA
ATOM     15   O  SGN B   1      24.659  10.077  13.6860  0.00  0.00     0.000 OA
ATOM     16   O  SGN B   1      24.619   7.717  14.1360  0.00  0.00     0.000 OA
ENDBRANCH 2 13
BRANCH 5 17
ATOM     17   C  SGN B   1      31.609   9.378  11.4010  0.00  0.00     0.000 C
ATOM     18   O  SGN B   1      31.062   9.126  10.0910  0.00  0.00     0.000 O
ATOM     19   S  SGN B   1      31.999   8.308   9.0860  0.00  0.00     0.000 S
ATOM     20   O  SGN B   1      31.337   8.394   7.8020  0.00  0.00     0.000 OA
ATOM     21   O  SGN B   1      33.262   9.007   9.1330  0.00  0.00     0.000 OA
ATOM     22   O  SGN B   1      32.049   6.966   9.6240  0.00  0.00     0.000 OA
ENDBRANCH 5 17
BRANCH 1 23
ATOM     23  O4  IDS B   2      28.656  10.974  13.9840  0.00  0.00     0.000 O
BRANCH 23 27
ATOM     24  C1  IDS B   2      27.277  14.576  15.5190  0.00  0.00     0.000 C
ATOM     25  C2  IDS B   2      26.681  14.160  14.1560  0.00  0.00     0.000 C
ATOM     26  C3  IDS B   2      27.020  12.708  13.8330  0.00  0.00     0.000 C
ATOM     27  C4  IDS B   2      28.512  12.407  13.8820  0.00  0.00     0.000 C
ATOM     28  C5  IDS B   2      29.171  13.197  15.0310  0.00  0.00     0.000 C
ATOM     29  O5  IDS B   2      28.205  13.592  15.9940  0.00  0.00     0.000 O
ATOM     30   O  IDS B   2      26.563  12.401  12.5200  0.00  0.00     0.000 O
ATOM     32  HD  IDS B   2      27.090  12.694  11.8980  0.00  0.00     0.000 HD
BRANCH 25 32
ATOM     32   O  IDS B   2      25.203  14.293  14.1260  0.00  0.00     0.000 O
ATOM     33   S  IDS B   2      24.457  15.548  13.3580  0.00  0.00     0.000 S
ATOM     34   O  IDS B   2      23.052  15.471  13.7270  0.00  0.00     0.000 OA
ATOM     35   O  IDS B   2      25.052  16.804  13.7920  0.00  0.00     0.000 OA
ATOM     36   O  IDS B   2      24.644  15.309  11.9460  0.00  0.00     0.000 OA
ENDBRANCH 25 32
BRANCH 28 37
ATOM     37   C  IDS B   2      30.354  12.540  15.7710  0.00  0.00     0.000 C
ATOM     38   O  IDS B   2      30.019  11.995  16.7970  0.00  0.00     0.000 OA
ATOM     39   O  IDS B   2      31.546  12.475  15.3830  0.00  0.00     0.000 OA
ENDBRANCH 28 37
BRANCH 24 40
ATOM     40  O4  SUS B   3      27.143  15.847  15.9530  0.00  0.00     0.000 O
BRANCH 40 44
ATOM     41  C1  SUS B   3      26.185  16.893  19.8940  0.00  0.00     0.000 C
ATOM     42  C2  SUS B   3      27.480  17.485  19.3020  0.00  0.00     0.000 C
ATOM     43  C3  SUS B   3      27.419  17.406  17.7790  0.00  0.00     0.000 C
ATOM     44  C4  SUS B   3      27.155  15.964  17.3710  0.00  0.00     0.000 C
ATOM     45  C5  SUS B   3      25.817  15.533  17.9360  0.00  0.00     0.000 C
ATOM     46  O5  SUS B   3      25.896  15.591  19.3740  0.00  0.00     0.000 O
BRANCH 42 49
ATOM     47   N  SUS B   3      28.835  17.699  19.8390  0.00  0.00     0.000 N
ATOM     49  HD  SUS B   3      29.224  17.011  20.1940  0.00  0.00     0.000 HD
ATOM     49   S  SUS B   3      28.899  18.905  20.8910  0.00  0.00     0.000 S
ATOM     50   O  SUS B   3      28.002  18.664  21.9520  0.00  0.00     0.000 OA
ATOM     51   O  SUS B   3      30.362  18.667  21.3480  0.00  0.00     0.000 OA
ATOM     52   O  SUS B   3      28.785  20.130  20.2050  0.00  0.00     0.000 OA
ENDBRANCH 42 49
BRANCH 43 53
ATOM     53   O  SUS B   3      28.723  17.847  17.2480  0.00  0.00     0.000 O
ATOM     54   S  SUS B   3      28.723  19.148  16.2440  0.00  0.00     0.000 S
ATOM     55   O  SUS B   3      28.427  20.323  17.0530  0.00  0.00     0.000 OA
ATOM     56   O  SUS B   3      30.058  19.152  15.6720  0.00  0.00     0.000 OA
ATOM     57   O  SUS B   3      27.670  18.908  15.2530  0.00  0.00     0.000 OA
ENDBRANCH 43 53
BRANCH 45 58
ATOM     58   C  SUS B   3      25.437  14.138  17.4880  0.00  0.00     0.000 C
ATOM     59   S  SUS B   3      23.487  12.471  17.4680  0.00  0.00     0.000 S
ATOM     60   O  SUS B   3      24.026  13.945  17.6790  0.00  0.00     0.000 O
ATOM     61   O  SUS B   3      23.848  11.758  18.6780  0.00  0.00     0.000 OA
ATOM     62   O  SUS B   3      22.073  12.715  17.3680  0.00  0.00     0.000 OA
ATOM     63   O  SUS B   3      24.109  12.005  16.2790  0.00  0.00     0.000 OA
ENDBRANCH 45 58
BRANCH 41 64
ATOM     64  O4  IDS B   4      25.119  17.758  19.8670  0.00  0.00     0.000 O
BRANCH 64 68
ATOM     65  C1  IDS B   4      22.534  19.925  21.2470  0.00  0.00     0.000 C
ATOM     66  C2  IDS B   4      23.949  19.936  21.8390  0.00  0.00     0.000 C
ATOM     67  C3  IDS B   4      24.535  18.557  22.0920  0.00  0.00     0.000 C
ATOM     68  C4  IDS B   4      24.221  17.571  20.9830  0.00  0.00     0.000 C
ATOM     69  C5  IDS B   4      22.741  17.728  20.6100  0.00  0.00     0.000 C
ATOM     70  O5  IDS B   4      22.515  19.055  20.1290  0.00  0.00     0.000 O
ATOM     71   O  IDS B   4      23.999  18.091  23.3130  0.00  0.00     0.000 O
ATOM     73  HD  IDS B   4      24.202  18.688  22.7190  0.00  0.00     0.000 HD
BRANCH 66 73
ATOM     73   O  IDS B   4      24.858  20.578  20.8800  0.00  0.00     0.000 O
ATOM     74   S  IDS B   4      25.542  21.981  21.3050  0.00  0.00     0.000 S
ATOM     75   O  IDS B   4      24.458  22.885  21.6270  0.00  0.00     0.000 OA
ATOM     76   O  IDS B   4      26.265  22.333  20.1090  0.00  0.00     0.000 OA
ATOM     77   O  IDS B   4      26.383  21.672  22.4380  0.00  0.00     0.000 OA
ENDBRANCH 66 73
BRANCH 69 78
ATOM     78   C  IDS B   4      22.213  16.658  19.6640  0.00  0.00     0.000 C
ATOM     79   O  IDS B   4      21.459  16.995  18.7520  0.00  0.00     0.000 OA
ATOM     80   O  IDS B   4      22.644  15.496  19.7790  0.00  0.00     0.000 OA
ENDBRANCH 69 78
BRANCH 65 81
ATOM     81  O4  SGN B   5      21.631  19.673  22.2350  0.00  0.00     0.000 O
BRANCH 81 85
ATOM     82  C1  SGN B   5      17.624  20.262  23.3440  0.00  0.00     0.000 C
ATOM     83  C2  SGN B   5      17.886  19.766  21.9140  0.00  0.00     0.000 C
ATOM     84  C3  SGN B   5      19.299  19.172  21.8280  0.00  0.00     0.000 C
ATOM     85  C4  SGN B   5      20.307  20.207  22.2960  0.00  0.00     0.000 C
ATOM     86  C5  SGN B   5      19.958  20.602  23.7290  0.00  0.00     0.000 C
ATOM     87  O5  SGN B   5      18.634  21.169  23.7420  0.00  0.00     0.000 O
ATOM     88   O  SGN B   5      19.569  18.767  20.5040  0.00  0.00     0.000 O
ATOM     90  HD  SGN B   5      19.350  18.240  21.1550  0.00  0.00     0.000 HD
BRANCH 83 92
ATOM     90   N  SGN B   5      16.447  20.080  21.8200  0.00  0.00     0.000 N
ATOM     92  HD  SGN B   5      16.307  20.928  21.9240  0.00  0.00     0.000 HD
ATOM     92   S  SGN B   5      15.604  19.393  20.6490  0.00  0.00     0.000 S
ATOM     93   O  SGN B   5      14.275  19.897  20.8260  0.00  0.00     0.000 OA
ATOM     94   O  SGN B   5      16.316  19.667  19.4480  0.00  0.00     0.000 OA
ATOM     95   O  SGN B   5      15.718  17.907  20.9130  0.00  0.00     0.000 OA
ENDBRANCH 83 92
BRANCH 86 96
ATOM     96   C  SGN B   5      20.894  21.628  24.3350  0.00  0.00     0.000 C
ATOM     97   O  SGN B   5      21.238  21.264  25.6740  0.00  0.00     0.000 O
ATOM     98   S  SGN B   5      22.803  21.254  26.0230  0.00  0.00     0.000 S
ATOM     99   O  SGN B   5      22.809  21.058  27.4530  0.00  0.00     0.000 OA
ATOM    100   O  SGN B   5      23.399  20.203  25.2790  0.00  0.00     0.000 OA
ATOM    101   O  SGN B   5      23.263  22.546  25.6270  0.00  0.00     0.000 OA
ENDBRANCH 86 96
BRANCH 82 102
ATOM    102  O4  IDS B   6      17.521  19.241  24.2420  0.00  0.00     0.000 O
BRANCH 102 106
ATOM    103  C1  IDS B   6      15.667  17.902  27.0750  0.00  0.00     0.000 C
ATOM    104  C2  IDS B   6      15.017  18.915  26.1190  0.00  0.00     0.000 C
ATOM    105  C3  IDS B   6      15.867  20.128  25.7940  0.00  0.00     0.000 C
ATOM    106  C4  IDS B   6      17.328  19.779  25.5750  0.00  0.00     0.000 C
ATOM    107  C5  IDS B   6      17.786  18.776  26.6380  0.00  0.00     0.000 C
ATOM    108  O5  IDS B   6      16.978  17.597  26.6400  0.00  0.00     0.000 O
ATOM    109   O  IDS B   6      15.725  21.062  26.8520  0.00  0.00     0.000 O
ATOM    111  HD  IDS B   6      15.478  20.578  27.5260  0.00  0.00     0.000 HD
BRANCH 104 111
ATOM    111   O  IDS B   6      14.765  18.260  24.8260  0.00  0.00     0.000 O
ATOM    112   S  IDS B   6      13.304  18.396  24.1850  0.00  0.00     0.000 S
ATOM    113   O  IDS B   6      12.412  17.834  25.1870  0.00  0.00     0.000 OA
ATOM    114   O  IDS B   6      13.063  19.809  23.8740  0.00  0.00     0.000 OA
ATOM    115   O  IDS B   6      13.481  17.557  23.0200  0.00  0.00     0.000 OA
ENDBRANCH 104 111
BRANCH 107 116
ATOM    116   C  IDS B   6      19.242  18.405  26.3880  0.00  0.00     0.000 C
ATOM    117   O  IDS B   6      19.455  17.607  25.5100  0.00  0.00     0.000 OA
ATOM    118   O  IDS B   6      20.144  18.888  27.0530  0.00  0.00     0.000 OA
ENDBRANCH 107 116
BRANCH 103 119
ATOM    119  O4  SGN B   7      15.434  18.427  28.3050  0.00  0.00     0.000 O
BRANCH 119 123
ATOM    120  C1  SGN B   7      14.630  16.909  32.1180  0.00  0.00     0.000 C
ATOM    121  C2  SGN B   7      16.107  17.086  31.7180  0.00  0.00     0.000 C
ATOM    122  C3  SGN B   7      16.226  18.004  30.4950  0.00  0.00     0.000 C
ATOM    123  C4  SGN B   7      15.342  17.483  29.3730  0.00  0.00     0.000 C
ATOM    124  C5  SGN B   7      13.896  17.336  29.8740  0.00  0.00     0.000 C
ATOM    125  O5  SGN B   7      13.831  16.463  31.0240  0.00  0.00     0.000 O
ATOM    126   O  SGN B   7      17.599  18.066  30.0910  0.00  0.00     0.000 O
ATOM    128  HD  SGN B   7      17.017  17.820  30.6830  0.00  0.00     0.000 HD
BRANCH 121 130
ATOM    128   N  SGN B   7      16.832  16.159  32.5900  0.00  0.00     0.000 N
ATOM    130  HD  SGN B   7      17.580  16.373  32.2080  0.00  0.00     0.000 HD
ATOM    130   S  SGN B   7      17.772  16.669  33.7940  0.00  0.00     0.000 S
ATOM    131   O  SGN B   7      16.970  17.588  34.5280  0.00  0.00     0.000 OA
ATOM    132   O  SGN B   7      18.331  15.534  34.4360  0.00  0.00     0.000 OA
ATOM    133   O  SGN B   7      18.959  17.289  32.9810  0.00  0.00     0.000 OA
ENDBRANCH 121 130
BRANCH 124 134
ATOM    134   C  SGN B   7      12.967  16.718  28.8710  0.00  0.00     0.000 C
ATOM    135   O  SGN B   7      13.151  15.292  28.8940  0.00  0.00     0.000 O
ATOM    136   S  SGN B   7      12.158  14.444  28.0210  0.00  0.00     0.000 S
ATOM    137   O  SGN B   7      12.599  13.073  28.1200  0.00  0.00     0.000 OA
ATOM    138   O  SGN B   7      12.277  14.980  26.6840  0.00  0.00     0.000 OA
ATOM    139   O  SGN B   7      10.878  14.702  28.6620  0.00  0.00     0.000 OA
ENDBRANCH 124 134
BRANCH 120 140
ATOM    140  O4  IDS B   8      13.799  17.827  32.6240  0.00  0.00     0.000 O
BRANCH 140 144
ATOM    141  C1  IDS B   8      12.299  21.076  33.0160  0.00  0.00     0.000 C
ATOM    142  C2  IDS B   8      13.819  20.928  32.7210  0.00  0.00     0.000 C
ATOM    143  C3  IDS B   8      14.514  19.903  33.6370  0.00  0.00     0.000 C
ATOM    144  C4  IDS B   8      13.686  18.630  33.8050  0.00  0.00     0.000 C
ATOM    145  C5  IDS B   8      12.214  18.986  34.0630  0.00  0.00     0.000 C
ATOM    146  O5  IDS B   8      11.677  19.797  33.0210  0.00  0.00     0.000 O
BRANCH 142 147
ATOM    147   O  IDS B   8      14.009  20.465  31.3210  0.00  0.00     0.000 O
ATOM    148   S  IDS B   8      14.357  21.515  30.1340  0.00  0.00     0.000 S
ATOM    149   O  IDS B   8      14.046  22.841  30.6170  0.00  0.00     0.000 OA
ATOM    150   O  IDS B   8      15.770  21.334  29.8590  0.00  0.00     0.000 OA
ATOM    151   O  IDS B   8      13.507  21.130  29.0230  0.00  0.00     0.000 OA
ENDBRANCH 142 147
BRANCH 145 152
ATOM    152   C  IDS B   8      11.323  17.763  34.1400  0.00  0.00     0.000 C
ATOM    153   O  IDS B   8      10.354  17.673  33.3950  0.00  0.00     0.000 OA
ATOM    154   O  IDS B   8      11.591  16.872  34.9260  0.00  0.00     0.000 OA
ENDBRANCH 145 152
ENDBRANCH 140 144
ENDBRANCH 120 140
ENDBRANCH 119 123
ENDBRANCH 103 119
ENDBRANCH 102 106
ENDBRANCH 82 102
ENDBRANCH 81 85
ENDBRANCH 65 81
ENDBRANCH 64 68
ENDBRANCH 41 64
ENDBRANCH 40 44
ENDBRANCH 24 40
ENDBRANCH 23 27
ENDBRANCH 1 23
TORSDOF 31
ENDMDL
MODEL 2
REMARK VINA RESULT:      -8.9      1.745      3.498
ROOT
ATOM      1  C1  SGN B   1      28.701  11.198  13.9900  0.00  0.00     0.000 C
ATOM      2  C2  SGN B   1      29.184   9.738  14.0140  0.00  0.00     0.000 C
ATOM      3  C3  SGN B   1      28.154   8.815  13.3550  0.00  0.00     0.000 C
ATOM      4  C4  SGN B   1      26.795   8.977  14.0270  0.00  0.00     0.000 C
ATOM      5  C5  SGN B   1      26.446  10.462  14.0940  0.00  0.00     0.000 C
ATOM      6  O5  SGN B   1      27.506  11.177  14.7580  0.00  0.00     0.000 O
ATOM      7   O  SGN B   1      28.584   7.460  13.4190  0.00  0.00     0.000 O
ATOM      9  HD  SGN B   1      28.525   7.666  14.2580  0.00  0.00     0.000 HD
ATOM      9   O  SGN B   1      25.815   8.278  13.2820  0.00  0.00     0.000 O
ATOM     11  HD  SGN B   1      25.756   8.484  14.1210  0.00  0.00     0.000 HD
ENDROOT
BRANCH 2 13
ATOM     11   N  SGN B   1      30.533   9.647  14.6040  0.00  0.00     0.000 N
ATOM     13  HD  SGN B   1      30.318  10.317  14.1000  0.00  0.00     0.000 HD
ATOM     13   S  SGN B   1      31.825  10.300  13.9020  0.00  0.00     0.000 S
ATOM     14   O  SGN B   1      31.446  10.978  12.7240  0.00  0.00     0.000 OA
ATOM     15   O  SGN B   1      32.577  10.990  14.8950  0.00  0.00     0.000 OA
ATOM     16   O  SGN B   1      32.592   8.982  13.5760  0.00  0.00     0.000 OA
ENDBRANCH 2 13
BRANCH 5 17
ATOM     17   C  SGN B   1      25.168  10.759  14.8390  0.00  0.00     0.000 C
ATOM     18   O  SGN B   1      25.135  10.065  16.1010  0.00  0.00     0.000 O
ATOM     19   S  SGN B   1      23.761   9.330  16.4620  0.00  0.00     0.000 S
ATOM     20   O  SGN B   1      23.904   8.925  17.8440  0.00  0.00     0.000 OA
ATOM     21   O  SGN B   1      22.754  10.345  16.2570  0.00  0.00     0.000 OA
ATOM     22   O  SGN B   1      23.674   8.220  15.5380  0.00  0.00     0.000 OA
ENDBRANCH 5 17
BRANCH 1 23
ATOM     23  O4  IDS B   2      28.754  12.312  13.2050  0.00  0.00     0.000 O
BRANCH 23 27
ATOM     24  C1  IDS B   2      27.257  15.545  15.3340  0.00  0.00     0.000 C
ATOM     25  C2  IDS B   2      26.476  15.169  14.0560  0.00  0.00     0.000 C
ATOM     26  C3  IDS B   2      26.922  13.810  13.5240  0.00  0.00     0.000 C
ATOM     27  C4  IDS B   2      28.423  13.714  13.2860  0.00  0.00     0.000 C
ATOM     28  C5  IDS B   2      29.181  14.486  14.3840  0.00  0.00     0.000 C
ATOM     29  O5  IDS B   2      28.368  14.662  15.5340  0.00  0.00     0.000 O
ATOM     30   O  IDS B   2      26.273  13.557  12.2830  0.00  0.00     0.000 O
ATOM     32  HD  IDS B   2      26.638  13.971  11.6160  0.00  0.00     0.000 HD
BRANCH 25 32
ATOM     32   O  IDS B   2      25.013  15.099  14.2920  0.00  0.00     0.000 O
ATOM     33   S  IDS B   2      23.964  16.157  13.5820  0.00  0.00     0.000 S
ATOM     34   O  IDS B   2      22.673  15.932  14.2120  0.00  0.00     0.000 OA
ATOM     35   O  IDS B   2      24.430  17.520  13.7980  0.00  0.00     0.000 OA
ATOM     36   O  IDS B   2      23.936  15.800  12.1830  0.00  0.00     0.000 OA
ENDBRANCH 25 32
BRANCH 28 37
ATOM     37   C  IDS B   2      30.550  13.938  14.8360  0.00  0.00     0.000 C
ATOM     38   O  IDS B   2      30.492  13.344  15.8870  0.00  0.00     0.000 OA
ATOM     39   O  IDS B   2      31.634  14.000  14.2060  0.00  0.00     0.000 OA
ENDBRANCH 28 37
BRANCH 24 40
ATOM     40  O4  SUS B   3      27.053  16.744  15.9190  0.00  0.00     0.000 O
BRANCH 40 44
ATOM     41  C1  SUS B   3      26.623  17.481  20.0200  0.00  0.00     0.000 C
ATOM     42  C2  SUS B   3      27.902  18.008  19.3390  0.00  0.00     0.000 C
ATOM     43  C3  SUS B   3      27.674  18.085  17.8310  0.00  0.00     0.000 C
ATOM     44  C4  SUS B   3      27.225  16.720  17.3320  0.00  0.00     0.000 C
ATOM     45  C5  SUS B   3      25.917  16.358  18.0040  0.00  0.00     0.000 C
ATOM     46  O5  SUS B   3      26.151  16.268  19.4240  0.00  0.00     0.000 O
BRANCH 42 49
ATOM     47   N  SUS B   3      29.324  18.355  19.5040  0.00  0.00     0.000 N
ATOM     49  HD  SUS B   3      29.891  17.705  19.4370  0.00  0.00     0.000 HD
ATOM     49   S  SUS B   3      29.616  19.130  20.8760  0.00  0.00     0.000 S
ATOM     50   O  SUS B   3      29.189  18.349  21.9680  0.00  0.00     0.000 OA
ATOM     51   O  SUS B   3      31.162  19.116  20.7640  0.00  0.00     0.000 OA
ATOM     52   O  SUS B   3      29.122  20.447  20.7820  0.00  0.00     0.000 OA
ENDBRANCH 42 49
BRANCH 43 53
ATOM     53   O  SUS B   3      28.954  18.455  17.1970  0.00  0.00     0.000 O
ATOM     54   S  SUS B   3      29.028  19.923  16.4600  0.00  0.00     0.000 S
ATOM     55   O  SUS B   3      29.020  20.937  17.5050  0.00  0.00     0.000 OA
ATOM     56   O  SUS B   3      30.264  19.873  15.7000  0.00  0.00     0.000 OA
ATOM     57   O  SUS B   3      27.834  20.023  15.6140  0.00  0.00     0.000 OA
ENDBRANCH 43 53
BRANCH 45 58
ATOM     58   C  SUS B   3      25.353  15.055  17.4830  0.00  0.00     0.000 C
ATOM     59   S  SUS B   3      24.591  12.723  18.2370  0.00  0.00     0.000 S
ATOM     60   O  SUS B   3      24.996  14.212  18.5910  0.00  0.00     0.000 O
ATOM     61   O  SUS B   3      25.845  12.037  17.9920  0.00  0.00     0.000 OA
ATOM     62   O  SUS B   3      23.965  12.316  19.4660  0.00  0.00     0.000 OA
ATOM     63   O  SUS B   3      23.723  12.822  17.1170  0.00  0.00     0.000 OA
ENDBRANCH 45 58
BRANCH 41 64
ATOM     64  O4  IDS B   4      25.652  18.438  20.1900  0.00  0.00     0.000 O
BRANCH 64 68
ATOM     65  C1  IDS B   4      22.899  20.311  21.6690  0.00  0.00     0.000 C
ATOM     66  C2  IDS B   4      24.242  20.203  22.4030  0.00  0.00     0.000 C
ATOM     67  C3  IDS B   4      24.820  18.798  22.4500  0.00  0.00     0.000 C
ATOM     68  C4  IDS B   4      24.643  18.044  21.1460  0.00  0.00     0.000 C
ATOM     69  C5  IDS B   4      23.209  18.276  20.6510  0.00  0.00     0.000 C
ATOM     70  O5  IDS B   4      23.014  19.672  20.4110  0.00  0.00     0.000 O
ATOM     71   O  IDS B   4      24.163  18.109  23.4930  0.00  0.00     0.000 O
ATOM     73  HD  IDS B   4      24.419  18.807  23.0500  0.00  0.00     0.000 HD
BRANCH 66 73
ATOM     73   O  IDS B   4      25.238  21.012  21.6890  0.00  0.00     0.000 O
ATOM     74   S  IDS B   4      25.923  22.245  22.4820  0.00  0.00     0.000 S
ATOM     75   O  IDS B   4      24.842  23.093  22.9350  0.00  0.00     0.000 OA
ATOM     76   O  IDS B   4      26.744  22.837  21.4560  0.00  0.00     0.000 OA
ATOM     77   O  IDS B   4      26.667  21.641  23.5630  0.00  0.00     0.000 OA
ENDBRANCH 66 73
BRANCH 69 78
ATOM     78   C  IDS B   4      22.804  17.410  19.4660  0.00  0.00     0.000 C
ATOM     79   O  IDS B   4      22.590  17.952  18.3830  0.00  0.00     0.000 OA
ATOM     80   O  IDS B   4      22.805  16.173  19.6050  0.00  0.00     0.000 OA
ENDBRANCH 69 78
BRANCH 65 81
ATOM     81  O4  SGN B   5      21.899  19.879  22.4870  0.00  0.00     0.000 O
BRANCH 81 85
ATOM     82  C1  SGN B   5      17.827  20.364  23.3910  0.00  0.00     0.000 C
ATOM     83  C2  SGN B   5      18.181  20.001  21.9410  0.00  0.00     0.000 C
ATOM     84  C3  SGN B   5      19.600  19.417  21.8900  0.00  0.00     0.000 C
ATOM     85  C4  SGN B   5      20.571  20.405  22.5130  0.00  0.00     0.000 C
ATOM     86  C5  SGN B   5      20.131  20.668  23.9510  0.00  0.00     0.000 C
ATOM     87  O5  SGN B   5      18.805  21.231  23.9330  0.00  0.00     0.000 O
ATOM     88   O  SGN B   5      19.954  19.135  20.5540  0.00  0.00     0.000 O
ATOM     90  HD  SGN B   5      19.698  18.551  21.1400  0.00  0.00     0.000 HD
BRANCH 83 92
ATOM     90   N  SGN B   5      16.746  20.310  21.7930  0.00  0.00     0.000 N
ATOM     92  HD  SGN B   5      16.586  21.141  21.9790  0.00  0.00     0.000 HD
ATOM     92   S  SGN B   5      15.984  19.746  20.5070  0.00  0.00     0.000 S
ATOM     93   O  SGN B   5      14.640  20.216  20.6550  0.00  0.00     0.000 OA
ATOM     94   O  SGN B   5      16.763  20.153  19.3880  0.00  0.00     0.000 OA
ATOM     95   O  SGN B   5      16.106  18.242  20.6170  0.00  0.00     0.000 OA
ENDBRANCH 83 92
BRANCH 86 96
ATOM     96   C  SGN B   5      21.021  21.633  24.7060  0.00  0.00     0.000 C
ATOM     97   O  SGN B   5      20.285  22.797  25.0930  0.00  0.00     0.000 O
ATOM     98   S  SGN B   5      20.390  23.218  26.6370  0.00  0.00     0.000 S
ATOM     99   O  SGN B   5      19.731  24.502  26.6610  0.00  0.00     0.000 OA
ATOM    100   O  SGN B   5      19.749  22.208  27.3990  0.00  0.00     0.000 OA
ATOM    101   O  SGN B   5      21.793  23.298  26.8880  0.00  0.00     0.000 OA
ENDBRANCH 86 96
BRANCH 82 102
ATOM    102  O4  IDS B   6      17.673  19.266  24.1840  0.00  0.00     0.000 O
BRANCH 102 106
ATOM    103  C1  IDS B   6      15.864  17.572  26.8510  0.00  0.00     0.000 C
ATOM    104  C2  IDS B   6      15.161  18.608  25.9600  0.00  0.00     0.000 C
ATOM    105  C3  IDS B   6      15.925  19.902  25.7550  0.00  0.00     0.000 C
ATOM    106  C4  IDS B   6      17.413  19.679  25.5490  0.00  0.00     0.000 C
ATOM    107  C5  IDS B   6      17.920  18.630  26.5430  0.00  0.00     0.000 C
ATOM    108  O5  IDS B   6      17.204  17.399  26.4300  0.00  0.00     0.000 O
ATOM    109   O  IDS B   6      15.691  20.735  26.8780  0.00  0.00     0.000 O
ATOM    111  HD  IDS B   6      15.465  20.182  27.5050  0.00  0.00     0.000 HD
BRANCH 104 111
ATOM    111   O  IDS B   6      14.987  18.043  24.6130  0.00  0.00     0.000 O
ATOM    112   S  IDS B   6      13.566  18.223  23.8990  0.00  0.00     0.000 S
ATOM    113   O  IDS B   6      12.618  17.596  24.8060  0.00  0.00     0.000 OA
ATOM    114   O  IDS B   6      13.340  19.655  23.6700  0.00  0.00     0.000 OA
ATOM    115   O  IDS B   6      13.813  17.465  22.6910  0.00  0.00     0.000 OA
ENDBRANCH 104 111
BRANCH 107 116
ATOM    116   C  IDS B   6      19.405  18.387  26.3040  0.00  0.00     0.000 C
ATOM    117   O  IDS B   6      20.174  19.020  26.9830  0.00  0.00     0.000 OA
ATOM    118   O  IDS B   6      19.792  17.596  25.4590  0.00  0.00     0.000 OA
ENDBRANCH 107 116
BRANCH 103 119
ATOM    119  O4  SGN B   7      15.566  17.978  28.1120  0.00  0.00     0.000 O
BRANCH 119 123
ATOM    120  C1  SGN B   7      15.664  16.231  31.9100  0.00  0.00     0.000 C
ATOM    121  C2  SGN B   7      16.906  17.019  31.4550  0.00  0.00     0.000 C
ATOM    122  C3  SGN B   7      16.567  17.911  30.2550  0.00  0.00     0.000 C
ATOM    123  C4  SGN B   7      15.933  17.075  29.1560  0.00  0.00     0.000 C
ATOM    124  C5  SGN B   7      14.710  16.326  29.7100  0.00  0.00     0.000 C
ATOM    125  O5  SGN B   7      15.075  15.498  30.8370  0.00  0.00     0.000 O
ATOM    126   O  SGN B   7      17.764  18.552  29.7980  0.00  0.00     0.000 O
ATOM    128  HD  SGN B   7      17.370  18.078  30.4060  0.00  0.00     0.000 HD
BRANCH 121 130
ATOM    128   N  SGN B   7      17.973  16.467  32.2940  0.00  0.00     0.000 N
ATOM    130  HD  SGN B   7      18.560  16.948  31.8760  0.00  0.00     0.000 HD
ATOM    130   S  SGN B   7      18.690  17.328  33.4500  0.00  0.00     0.000 S
ATOM    131   O  SGN B   7      17.626  17.877  34.2190  0.00  0.00     0.000 OA
ATOM    132   O  SGN B   7      19.675  16.515  34.0670  0.00  0.00     0.000 OA
ATOM    133   O  SGN B   7      19.504  18.344  32.5800  0.00  0.00     0.000 OA
ENDBRANCH 121 130
BRANCH 124 134
ATOM    134   C  SGN B   7      14.081  15.381  28.7290  0.00  0.00     0.000 C
ATOM    135   O  SGN B   7      12.702  15.195  29.0910  0.00  0.00     0.000 O
ATOM    136   S  SGN B   7      11.823  14.357  28.0950  0.00  0.00     0.000 S
ATOM    137   O  SGN B   7      10.527  14.220  28.7140  0.00  0.00     0.000 OA
ATOM    138   O  SGN B   7      12.515  13.096  27.9490  0.00  0.00     0.000 OA
ATOM    139   O  SGN B   7      11.825  15.187  26.9010  0.00  0.00     0.000 OA
ENDBRANCH 124 134
BRANCH 120 140
ATOM    140  O4  IDS B   8      14.548  16.707  32.4740  0.00  0.00     0.000 O
BRANCH 140 144
ATOM    141  C1  IDS B   8      13.258  16.389  35.8200  0.00  0.00     0.000 C
ATOM    142  C2  IDS B   8      13.988  15.203  35.1290  0.00  0.00     0.000 C
ATOM    143  C3  IDS B   8      13.472  14.924  33.7050  0.00  0.00     0.000 C
ATOM    144  C4  IDS B   8      13.274  16.211  32.9050  0.00  0.00     0.000 C
ATOM    145  C5  IDS B   8      12.561  17.265  33.7650  0.00  0.00     0.000 C
ATOM    146  O5  IDS B   8      13.273  17.530  34.9720  0.00  0.00     0.000 O
BRANCH 142 147
ATOM    147   O  IDS B   8      15.438  15.509  35.0190  0.00  0.00     0.000 O
ATOM    148   S  IDS B   8      16.555  14.354  35.2410  0.00  0.00     0.000 S
ATOM    149   O  IDS B   8      15.911  13.242  35.9020  0.00  0.00     0.000 OA
ATOM    150   O  IDS B   8      17.034  14.018  33.9140  0.00  0.00     0.000 OA
ATOM    151   O  IDS B   8      17.573  14.964  36.0760  0.00  0.00     0.000 OA
ENDBRANCH 142 147
BRANCH 145 152
ATOM    152   C  IDS B   8      12.425  18.599  33.0600  0.00  0.00     0.000 C
ATOM    153   O  IDS B   8      13.048  19.569  33.4760  0.00  0.00     0.000 OA
ATOM    154   O  IDS B   8      11.714  18.689  32.0750  0.00  0.00     0.000 OA
ENDBRANCH 145 152
ENDBRANCH 140 144
ENDBRANCH 120 140
ENDBRANCH 119 123
ENDBRANCH 103 119
ENDBRANCH 102 106
ENDBRANCH 82 102
ENDBRANCH 81 85
ENDBRANCH 65 81
ENDBRANCH 64 68
ENDBRANCH 41 64
ENDBRANCH 40 44
ENDBRANCH 24 40
ENDBRANCH 23 27
ENDBRANCH 1 23
TORSDOF 31
ENDMDL
MODEL 3
REMARK VINA RESULT:      -8.9      0.923      1.923
ROOT
ATOM      1  C1  SGN B   1      28.473   9.941  13.2840  0.00  0.00     0.000 C
ATOM      2  C2  SGN B   1      27.948   8.500  13.3850  0.00  0.00     0.000 C
ATOM      3  C3  SGN B   1      29.087   7.528  13.7120  0.00  0.00     0.000 C
ATOM      4  C4  SGN B   1      30.202   7.658  12.6790  0.00  0.00     0.000 C
ATOM      5  C5  SGN B   1      30.575   9.131  12.5300  0.00  0.00     0.000 C
ATOM      6  O5  SGN B   1      29.397   9.895  12.2050  0.00  0.00     0.000 O
ATOM      7   O  SGN B   1      28.605   6.191  13.7610  0.00  0.00     0.000 O
ATOM      9  HD  SGN B   1      28.429   6.411  12.9420  0.00  0.00     0.000 HD
ATOM      9   O  SGN B   1      31.327   6.910  13.1050  0.00  0.00     0.000 O
ATOM     11  HD  SGN B   1      31.151   7.131  12.2860  0.00  0.00     0.000 HD
ENDROOT
BRANCH 2 13
ATOM     11   N  SGN B   1      26.518   8.731  13.1050  0.00  0.00     0.000 N
ATOM     13  HD  SGN B   1      26.910   9.141  13.7590  0.00  0.00     0.000 HD
ATOM     13   S  SGN B   1      25.474   9.149  14.2560  0.00  0.00     0.000 S
ATOM     14   O  SGN B   1      26.144   9.298  15.4880  0.00  0.00     0.000 OA
ATOM     15   O  SGN B   1      24.666  10.215  13.7650  0.00  0.00     0.000 OA
ATOM     16   O  SGN B   1      24.595   7.860  14.2390  0.00  0.00     0.000 OA
ENDBRANCH 2 13
BRANCH 5 17
ATOM     17   C  SGN B   1      31.596   9.400  11.4520  0.00  0.00     0.000 C
ATOM     18   O  SGN B   1      31.050   9.127  10.1460  0.00  0.00     0.000 O
ATOM     19   S  SGN B   1      31.989   8.296   9.1530  0.00  0.00     0.000 S
ATOM     20   O  SGN B   1      31.327   8.363   7.8670  0.00  0.00     0.000 OA
ATOM     21   O  SGN B   1      33.251   8.998   9.1910  0.00  0.00     0.000 OA
ATOM     22   O  SGN B   1      32.040   6.962   9.7100  0.00  0.00     0.000 OA
ENDBRANCH 5 17
BRANCH 1 23
ATOM     23  O4  IDS B   2      28.691  11.040  14.0610  0.00  0.00     0.000 O
BRANCH 23 27
ATOM     24  C1  IDS B   2      27.302  14.638  15.5960  0.00  0.00     0.000 C
ATOM     25  C2  IDS B   2      26.747  14.246  14.2080  0.00  0.00     0.000 C
ATOM     26  C3  IDS B   2      27.081  12.794  13.8770  0.00  0.00     0.000 C
ATOM     27  C4  IDS B   2      28.567  12.475  13.9730  0.00  0.00     0.000 C
ATOM     28  C5  IDS B   2      29.195  13.243  15.1530  0.00  0.00     0.000 C
ATOM     29  O5  IDS B   2      28.202  13.637  16.0880  0.00  0.00     0.000 O
ATOM     30   O  IDS B   2      26.665  12.510  12.5470  0.00  0.00     0.000 O
ATOM     32  HD  IDS B   2      27.216  12.804  11.9460  0.00  0.00     0.000 HD
BRANCH 25 32
ATOM     32   O  IDS B   2      25.273  14.397  14.1300  0.00  0.00     0.000 O
ATOM     33   S  IDS B   2      24.564  15.564  13.2040  0.00  0.00     0.000 S
ATOM     34   O  IDS B   2      23.152  15.552  13.5480  0.00  0.00     0.000 OA
ATOM     35   O  IDS B   2      25.173  16.853  13.5010  0.00  0.00     0.000 OA
ATOM     36   O  IDS B   2      24.776  15.158  11.8340  0.00  0.00     0.000 OA
ENDBRANCH 25 32
BRANCH 28 37
ATOM     37   C  IDS B   2      30.345  12.563  15.9250  0.00  0.00     0.000 C
ATOM     38   O  IDS B   2      29.958  11.929  16.8780  0.00  0.00     0.000 OA
ATOM     39   O  IDS B   2      31.563  12.564  15.6200  0.00  0.00     0.000 OA
ENDBRANCH 28 37
BRANCH 24 40
ATOM     40  O4  SUS B   3      27.168  15.905  16.0400  0.00  0.00     0.000 O
BRANCH 40 44
ATOM     41  C1  SUS B   3      26.120  16.900  19.9720  0.00  0.00     0.000 C
ATOM     42  C2  SUS B   3      27.423  17.507  19.4150  0.00  0.00     0.000 C
ATOM     43  C3  SUS B   3      27.394  17.445  17.8890  0.00  0.00     0.000 C
ATOM     44  C4  SUS B   3      27.149  16.007  17.4600  0.00  0.00     0.000 C
ATOM     45  C5  SUS B   3      25.803  15.559  17.9910  0.00  0.00     0.000 C
ATOM     46  O5  SUS B   3      25.851  15.601  19.4320  0.00  0.00     0.000 O
BRANCH 42 49
ATOM     47   N  SUS B   3      27.684  18.873  19.8990  0.00  0.00     0.000 N
ATOM     49  HD  SUS B   3      27.892  19.463  19.3000  0.00  0.00     0.000 HD
ATOM     49   S  SUS B   3      28.799  18.918  21.0490  0.00  0.00     0.000 S
ATOM     50   O  SUS B   3      29.997  18.344  20.5790  0.00  0.00     0.000 OA
ATOM     51   O  SUS B   3      28.922  20.461  21.1200  0.00  0.00     0.000 OA
ATOM     52   O  SUS B   3      28.256  18.407  22.2450  0.00  0.00     0.000 OA
ENDBRANCH 42 49
BRANCH 43 53
ATOM     53   O  SUS B   3      28.707  17.900  17.3910  0.00  0.00     0.000 O
ATOM     54   S  SUS B   3      28.734  19.289  16.5120  0.00  0.00     0.000 S
ATOM     55   O  SUS B   3      28.472  20.390  17.4270  0.00  0.00     0.000 OA
ATOM     56   O  SUS B   3      30.065  19.312  15.9320  0.00  0.00     0.000 OA
ATOM     57   O  SUS B   3      27.670  19.167  15.5100  0.00  0.00     0.000 OA
ENDBRANCH 43 53
BRANCH 45 58
ATOM     58   C  SUS B   3      25.442  14.167  17.5200  0.00  0.00     0.000 C
ATOM     59   S  SUS B   3      23.512  12.477  17.4640  0.00  0.00     0.000 S
ATOM     60   O  SUS B   3      24.032  13.954  17.7010  0.00  0.00     0.000 O
ATOM     61   O  SUS B   3      23.877  11.749  18.6650  0.00  0.00     0.000 OA
ATOM     62   O  SUS B   3      22.096  12.705  17.3610  0.00  0.00     0.000 OA
ATOM     63   O  SUS B   3      24.145  12.038  16.2720  0.00  0.00     0.000 OA
ENDBRANCH 45 58
BRANCH 41 64
ATOM     64  O4  IDS B   4      25.048  17.758  19.9320  0.00  0.00     0.000 O
BRANCH 64 68
ATOM     65  C1  IDS B   4      22.445  19.899  21.3160  0.00  0.00     0.000 C
ATOM     66  C2  IDS B   4      23.844  19.879  21.9450  0.00  0.00     0.000 C
ATOM     67  C3  IDS B   4      24.413  18.488  22.1670  0.00  0.00     0.000 C
ATOM     68  C4  IDS B   4      24.120  17.541  21.0180  0.00  0.00     0.000 C
ATOM     69  C5  IDS B   4      22.651  17.723  20.6120  0.00  0.00     0.000 C
ATOM     70  O5  IDS B   4      22.449  19.068  20.1700  0.00  0.00     0.000 O
ATOM     71   O  IDS B   4      23.842  17.986  23.3570  0.00  0.00     0.000 O
ATOM     73  HD  IDS B   4      24.065  18.600  22.7890  0.00  0.00     0.000 HD
BRANCH 66 73
ATOM     73   O  IDS B   4      24.783  20.545  21.0310  0.00  0.00     0.000 O
ATOM     74   S  IDS B   4      25.471  21.924  21.5240  0.00  0.00     0.000 S
ATOM     75   O  IDS B   4      24.389  22.827  21.8520  0.00  0.00     0.000 OA
ATOM     76   O  IDS B   4      26.226  22.311  20.3580  0.00  0.00     0.000 OA
ATOM     77   O  IDS B   4      26.281  21.565  22.6630  0.00  0.00     0.000 OA
ENDBRANCH 66 73
BRANCH 69 78
ATOM     78   C  IDS B   4      22.140  16.689  19.6180  0.00  0.00     0.000 C
ATOM     79   O  IDS B   4      21.417  17.064  18.6960  0.00  0.00     0.000 OA
ATOM     80   O  IDS B   4      22.556  15.520  19.7090  0.00  0.00     0.000 OA
ENDBRANCH 69 78
BRANCH 65 81
ATOM     81  O4  SGN B   5      21.515  19.623  22.2720  0.00  0.00     0.000 O
BRANCH 81 85
ATOM     82  C1  SGN B   5      17.516  20.291  23.3660  0.00  0.00     0.000 C
ATOM     83  C2  SGN B   5      17.775  19.802  21.9330  0.00  0.00     0.000 C
ATOM     84  C3  SGN B   5      19.175  19.178  21.8490  0.00  0.00     0.000 C
ATOM     85  C4  SGN B   5      20.203  20.186  22.3310  0.00  0.00     0.000 C
ATOM     86  C5  SGN B   5      19.855  20.576  23.7660  0.00  0.00     0.000 C
ATOM     87  O5  SGN B   5      18.544  21.171  23.7780  0.00  0.00     0.000 O
ATOM     88   O  SGN B   5      19.442  18.778  20.5230  0.00  0.00     0.000 O
ATOM     90  HD  SGN B   5      19.208  18.251  21.1680  0.00  0.00     0.000 HD
BRANCH 83 92
ATOM     90   N  SGN B   5      16.595  18.954  21.6770  0.00  0.00     0.000 N
ATOM     92  HD  SGN B   5      16.282  18.626  22.4150  0.00  0.00     0.000 HD
ATOM     92   S  SGN B   5      15.491  19.491  20.6530  0.00  0.00     0.000 S
ATOM     93   O  SGN B   5      14.496  18.462  20.6320  0.00  0.00     0.000 OA
ATOM     94   O  SGN B   5      15.154  20.799  21.1010  0.00  0.00     0.000 OA
ATOM     95   O  SGN B   5      16.226  19.640  19.3390  0.00  0.00     0.000 OA
ENDBRANCH 83 92
BRANCH 86 96
ATOM     96   C  SGN B   5      20.810  21.575  24.3860  0.00  0.00     0.000 C
ATOM     97   O  SGN B   5      21.117  21.207  25.7330  0.00  0.00     0.000 O
ATOM     98   S  SGN B   5      22.674  21.150  26.1130  0.00  0.00     0.000 S
ATOM     99   O  SGN B   5      22.645  20.961  27.5430  0.00  0.00     0.000 OA
ATOM    100   O  SGN B   5      23.251  20.078  25.3850  0.00  0.00     0.000 OA
ATOM    101   O  SGN B   5      23.181  22.425  25.7210  0.00  0.00     0.000 OA
ENDBRANCH 86 96
BRANCH 82 102
ATOM    102  O4  IDS B   6      17.385  19.265  24.2540  0.00  0.00     0.000 O
BRANCH 102 106
ATOM    103  C1  IDS B   6      15.548  17.909  27.0900  0.00  0.00     0.000 C
ATOM    104  C2  IDS B   6      14.893  18.928  26.1440  0.00  0.00     0.000 C
ATOM    105  C3  IDS B   6      15.741  20.143  25.8220  0.00  0.00     0.000 C
ATOM    106  C4  IDS B   6      17.201  19.795  25.5920  0.00  0.00     0.000 C
ATOM    107  C5  IDS B   6      17.664  18.785  26.6460  0.00  0.00     0.000 C
ATOM    108  O5  IDS B   6      16.857  17.607  26.6470  0.00  0.00     0.000 O
ATOM    109   O  IDS B   6      15.606  21.071  26.8860  0.00  0.00     0.000 O
ATOM    111  HD  IDS B   6      15.362  20.582  27.5580  0.00  0.00     0.000 HD
BRANCH 104 111
ATOM    111   O  IDS B   6      14.633  18.281  24.8490  0.00  0.00     0.000 O
ATOM    112   S  IDS B   6      13.164  18.408  24.2250  0.00  0.00     0.000 S
ATOM    113   O  IDS B   6      12.288  17.831  25.2320  0.00  0.00     0.000 OA
ATOM    114   O  IDS B   6      12.907  19.822  23.9280  0.00  0.00     0.000 OA
ATOM    115   O  IDS B   6      13.337  17.581  23.0510  0.00  0.00     0.000 OA
ENDBRANCH 104 111
BRANCH 107 116
ATOM    116   C  IDS B   6      19.119  18.415  26.3850  0.00  0.00     0.000 C
ATOM    117   O  IDS B   6      19.942  18.898  27.1210  0.00  0.00     0.000 OA
ATOM    118   O  IDS B   6      19.431  17.672  25.4680  0.00  0.00     0.000 OA
ENDBRANCH 107 116
BRANCH 103 119
ATOM    119  O4  SGN B   7      15.322  18.427  28.3250  0.00  0.00     0.000 O
BRANCH 119 123
ATOM    120  C1  SGN B   7      14.763  16.904  32.1800  0.00  0.00     0.000 C
ATOM    121  C2  SGN B   7      16.211  17.109  31.6970  0.00  0.00     0.000 C
ATOM    122  C3  SGN B   7      16.244  18.026  30.4680  0.00  0.00     0.000 C
ATOM    123  C4  SGN B   7      15.309  17.485  29.3990  0.00  0.00     0.000 C
ATOM    124  C5  SGN B   7      13.896  17.310  29.9790  0.00  0.00     0.000 C
ATOM    125  O5  SGN B   7      13.913  16.439  31.1320  0.00  0.00     0.000 O
ATOM    126   O  SGN B   7      17.590  18.114  29.9880  0.00  0.00     0.000 O
ATOM    128  HD  SGN B   7      17.047  17.858  30.6120  0.00  0.00     0.000 HD
BRANCH 121 130
ATOM    128   N  SGN B   7      16.523  17.072  33.1280  0.00  0.00     0.000 N
ATOM    130  HD  SGN B   7      16.571  16.208  33.1030  0.00  0.00     0.000 HD
ATOM    130   S  SGN B   7      17.997  16.731  33.6780  0.00  0.00     0.000 S
ATOM    131   O  SGN B   7      18.872  17.589  32.9550  0.00  0.00     0.000 OA
ATOM    132   O  SGN B   7      17.965  16.769  35.0960  0.00  0.00     0.000 OA
ATOM    133   O  SGN B   7      18.083  15.207  33.3260  0.00  0.00     0.000 OA
ENDBRANCH 121 130
BRANCH 124 134
ATOM    134   C  SGN B   7      12.925  16.671  29.0310  0.00  0.00     0.000 C
ATOM    135   O  SGN B   7      13.198  15.260  28.9780  0.00  0.00     0.000 O
ATOM    136   S  SGN B   7      12.188  14.383  28.1540  0.00  0.00     0.000 S
ATOM    137   O  SGN B   7      12.720  13.041  28.1580  0.00  0.00     0.000 OA
ATOM    138   O  SGN B   7      12.161  14.975  26.8360  0.00  0.00     0.000 OA
ATOM    139   O  SGN B   7      10.954  14.534  28.9090  0.00  0.00     0.000 OA
ENDBRANCH 124 134
BRANCH 120 140
ATOM    140  O4  IDS B   8      13.943  17.807  32.7290  0.00  0.00     0.000 O
BRANCH 140 144
ATOM    141  C1  IDS B   8      12.270  19.227  35.5830  0.00  0.00     0.000 C
ATOM    142  C2  IDS B   8      12.528  17.696  35.4880  0.00  0.00     0.000 C
ATOM    143  C3  IDS B   8      12.107  17.096  34.1340  0.00  0.00     0.000 C
ATOM    144  C4  IDS B   8      12.538  17.973  32.9590  0.00  0.00     0.000 C
ATOM    145  C5  IDS B   8      12.222  19.447  33.2540  0.00  0.00     0.000 C
ATOM    146  O5  IDS B   8      12.841  19.887  34.4600  0.00  0.00     0.000 O
BRANCH 142 147
ATOM    147   O  IDS B   8      13.981  17.427  35.6540  0.00  0.00     0.000 O
ATOM    148   S  IDS B   8      14.504  16.040  36.3110  0.00  0.00     0.000 S
ATOM    149   O  IDS B   8      13.385  15.426  36.9890  0.00  0.00     0.000 OA
ATOM    150   O  IDS B   8      14.993  15.245  35.2000  0.00  0.00     0.000 OA
ATOM    151   O  IDS B   8      15.551  16.427  37.2380  0.00  0.00     0.000 OA
ENDBRANCH 142 147
BRANCH 145 152
ATOM    152   C  IDS B   8      12.718  20.379  32.1670  0.00  0.00     0.000 C
ATOM    153   O  IDS B   8      13.581  21.208  32.4290  0.00  0.00     0.000 OA
ATOM    154   O  IDS B   8      12.269  20.280  31.0390  0.00  0.00     0.000 OA
ENDBRANCH 145 152
ENDBRANCH 140 144
ENDBRANCH 120 140
ENDBRANCH 119 123
ENDBRANCH 103 119
ENDBRANCH 102 106
ENDBRANCH 82 102
ENDBRANCH 81 85
ENDBRANCH 65 81
ENDBRANCH 64 68
ENDBRANCH 41 64
ENDBRANCH 40 44
ENDBRANCH 24 40
ENDBRANCH 23 27
ENDBRANCH 1 23
TORSDOF 31
ENDMDL
MODEL 4
REMARK VINA RESULT:      -8.8      1.328      2.802
ROOT
ATOM      1  C1  SGN B   1      28.700  11.220  14.0360  0.00  0.00     0.000 C
ATOM      2  C2  SGN B   1      29.170   9.756  14.0650  0.00  0.00     0.000 C
ATOM      3  C3  SGN B   1      28.125   8.838  13.4230  0.00  0.00     0.000 C
ATOM      4  C4  SGN B   1      26.774   9.017  14.1090  0.00  0.00     0.000 C
ATOM      5  C5  SGN B   1      26.439  10.506  14.1690  0.00  0.00     0.000 C
ATOM      6  O5  SGN B   1      27.513  11.215  14.8170  0.00  0.00     0.000 O
ATOM      7   O  SGN B   1      28.542   7.479  13.4920  0.00  0.00     0.000 O
ATOM      9  HD  SGN B   1      28.495   7.692  14.3300  0.00  0.00     0.000 HD
ATOM      9   O  SGN B   1      25.780   8.322  13.3790  0.00  0.00     0.000 O
ATOM     11  HD  SGN B   1      25.732   8.534  14.2170  0.00  0.00     0.000 HD
ENDROOT
BRANCH 2 13
ATOM     11   N  SGN B   1      30.526   9.647  14.6360  0.00  0.00     0.000 N
ATOM     13  HD  SGN B   1      30.311  10.323  14.1390  0.00  0.00     0.000 HD
ATOM     13   S  SGN B   1      31.814  10.293  13.9200  0.00  0.00     0.000 S
ATOM     14   O  SGN B   1      31.426  10.983  12.7530  0.00  0.00     0.000 OA
ATOM     15   O  SGN B   1      32.587  10.968  14.9080  0.00  0.00     0.000 OA
ATOM     16   O  SGN B   1      32.564   8.970  13.5740  0.00  0.00     0.000 OA
ENDBRANCH 2 13
BRANCH 5 17
ATOM     17   C  SGN B   1      25.172  10.820  14.9260  0.00  0.00     0.000 C
ATOM     18   O  SGN B   1      25.130  10.106  16.1770  0.00  0.00     0.000 O
ATOM     19   S  SGN B   1      23.741   9.396  16.5330  0.00  0.00     0.000 S
ATOM     20   O  SGN B   1      23.882   8.966  17.9080  0.00  0.00     0.000 OA
ATOM     21   O  SGN B   1      22.756  10.437  16.3510  0.00  0.00     0.000 OA
ATOM     22   O  SGN B   1      23.624   8.304  15.5930  0.00  0.00     0.000 OA
ENDBRANCH 5 17
BRANCH 1 23
ATOM     23  O4  IDS B   2      28.754  12.328  13.2430  0.00  0.00     0.000 O
BRANCH 23 27
ATOM     24  C1  IDS B   2      27.267  15.594  15.3290  0.00  0.00     0.000 C
ATOM     25  C2  IDS B   2      26.594  15.309  13.9690  0.00  0.00     0.000 C
ATOM     26  C3  IDS B   2      27.001  13.938  13.4350  0.00  0.00     0.000 C
ATOM     27  C4  IDS B   2      28.509  13.747  13.3400  0.00  0.00     0.000 C
ATOM     28  C5  IDS B   2      29.203  14.434  14.5330  0.00  0.00     0.000 C
ATOM     29  O5  IDS B   2      28.293  14.631  15.6050  0.00  0.00     0.000 O
ATOM     30   O  IDS B   2      26.463  13.766  12.1290  0.00  0.00     0.000 O
ATOM     32  HD  IDS B   2      26.919  14.173  11.5150  0.00  0.00     0.000 HD
BRANCH 25 32
ATOM     32   O  IDS B   2      25.113  15.333  14.0590  0.00  0.00     0.000 O
ATOM     33   S  IDS B   2      24.206  16.427  13.2210  0.00  0.00     0.000 S
ATOM     34   O  IDS B   2      22.848  16.298  13.7240  0.00  0.00     0.000 OA
ATOM     35   O  IDS B   2      24.732  17.766  13.4460  0.00  0.00     0.000 OA
ATOM     36   O  IDS B   2      24.295  16.027  11.8350  0.00  0.00     0.000 OA
ENDBRANCH 25 32
BRANCH 28 37
ATOM     37   C  IDS B   2      30.482  13.780  15.0970  0.00  0.00     0.000 C
ATOM     38   O  IDS B   2      30.282  13.167  16.1190  0.00  0.00     0.000 OA
ATOM     39   O  IDS B   2      31.623  13.780  14.5750  0.00  0.00     0.000 OA
ENDBRANCH 28 37
BRANCH 24 40
ATOM     40  O4  SUS B   3      27.085  16.787  15.9330  0.00  0.00     0.000 O
BRANCH 40 44
ATOM     41  C1  SUS B   3      26.296  17.399  20.0010  0.00  0.00     0.000 C
ATOM     42  C2  SUS B   3      27.642  17.918  19.4580  0.00  0.00     0.000 C
ATOM     43  C3  SUS B   3      27.556  18.049  17.9400  0.00  0.00     0.000 C
ATOM     44  C4  SUS B   3      27.127  16.713  17.3540  0.00  0.00     0.000 C
ATOM     45  C5  SUS B   3      25.755  16.359  17.8920  0.00  0.00     0.000 C
ATOM     46  O5  SUS B   3      25.856  16.217  19.3230  0.00  0.00     0.000 O
BRANCH 42 49
ATOM     47   N  SUS B   3      27.959  19.135  20.2250  0.00  0.00     0.000 N
ATOM     49  HD  SUS B   3      28.071  19.862  19.7680  0.00  0.00     0.000 HD
ATOM     49   S  SUS B   3      29.231  18.949  21.1820  0.00  0.00     0.000 S
ATOM     50   O  SUS B   3      30.352  18.564  20.4200  0.00  0.00     0.000 OA
ATOM     51   O  SUS B   3      29.348  20.433  21.6150  0.00  0.00     0.000 OA
ATOM     52   O  SUS B   3      28.876  18.137  22.2770  0.00  0.00     0.000 OA
ENDBRANCH 42 49
BRANCH 43 53
ATOM     53   O  SUS B   3      28.895  18.410  17.4370  0.00  0.00     0.000 O
ATOM     54   S  SUS B   3      29.087  19.930  16.8400  0.00  0.00     0.000 S
ATOM     55   O  SUS B   3      29.040  20.851  17.9670  0.00  0.00     0.000 OA
ATOM     56   O  SUS B   3      30.376  19.886  16.1740  0.00  0.00     0.000 OA
ATOM     57   O  SUS B   3      27.969  20.159  15.9200  0.00  0.00     0.000 OA
ENDBRANCH 43 53
BRANCH 45 58
ATOM     58   C  SUS B   3      25.216  15.087  17.2760  0.00  0.00     0.000 C
ATOM     59   S  SUS B   3      23.189  13.514  17.3090  0.00  0.00     0.000 S
ATOM     60   O  SUS B   3      23.849  14.904  17.6820  0.00  0.00     0.000 O
ATOM     61   O  SUS B   3      23.708  12.573  18.2840  0.00  0.00     0.000 OA
ATOM     62   O  SUS B   3      21.797  13.815  17.5130  0.00  0.00     0.000 OA
ATOM     63   O  SUS B   3      23.565  13.263  15.9630  0.00  0.00     0.000 OA
ENDBRANCH 45 58
BRANCH 41 64
ATOM     64  O4  IDS B   4      25.333  18.372  20.1160  0.00  0.00     0.000 O
BRANCH 64 68
ATOM     65  C1  IDS B   4      22.559  20.352  21.4030  0.00  0.00     0.000 C
ATOM     66  C2  IDS B   4      23.951  20.471  22.0350  0.00  0.00     0.000 C
ATOM     67  C3  IDS B   4      24.629  19.140  22.3160  0.00  0.00     0.000 C
ATOM     68  C4  IDS B   4      24.420  18.126  21.2070  0.00  0.00     0.000 C
ATOM     69  C5  IDS B   4      22.944  18.172  20.7910  0.00  0.00     0.000 C
ATOM     70  O5  IDS B   4      22.636  19.476  20.2920  0.00  0.00     0.000 O
ATOM     71   O  IDS B   4      24.093  18.644  23.5250  0.00  0.00     0.000 O
ATOM     73  HD  IDS B   4      24.269  19.250  22.9320  0.00  0.00     0.000 HD
BRANCH 66 73
ATOM     73   O  IDS B   4      24.839  21.172  21.0970  0.00  0.00     0.000 O
ATOM     74   S  IDS B   4      25.623  22.482  21.6300  0.00  0.00     0.000 S
ATOM     75   O  IDS B   4      24.612  23.396  22.1160  0.00  0.00     0.000 OA
ATOM     76   O  IDS B   4      26.295  22.931  20.4360  0.00  0.00     0.000 OA
ATOM     77   O  IDS B   4      26.509  22.006  22.6660  0.00  0.00     0.000 OA
ENDBRANCH 66 73
BRANCH 69 78
ATOM     78   C  IDS B   4      22.523  17.060  19.8400  0.00  0.00     0.000 C
ATOM     79   O  IDS B   4      22.667  15.892  20.1970  0.00  0.00     0.000 OA
ATOM     80   O  IDS B   4      21.951  17.369  18.7780  0.00  0.00     0.000 OA
ENDBRANCH 69 78
BRANCH 65 81
ATOM     81  O4  SGN B   5      21.649  20.041  22.3670  0.00  0.00     0.000 O
BRANCH 81 85
ATOM     82  C1  SGN B   5      17.573  20.318  23.3430  0.00  0.00     0.000 C
ATOM     83  C2  SGN B   5      17.920  19.837  21.9260  0.00  0.00     0.000 C
ATOM     84  C3  SGN B   5      19.378  19.355  21.8900  0.00  0.00     0.000 C
ATOM     85  C4  SGN B   5      20.285  20.470  22.3820  0.00  0.00     0.000 C
ATOM     86  C5  SGN B   5      19.860  20.844  23.7990  0.00  0.00     0.000 C
ATOM     87  O5  SGN B   5      18.495  21.305  23.7660  0.00  0.00     0.000 O
ATOM     88   O  SGN B   5      19.721  18.965  20.5790  0.00  0.00     0.000 O
ATOM     90  HD  SGN B   5      19.523  18.426  21.2280  0.00  0.00     0.000 HD
BRANCH 83 92
ATOM     90   N  SGN B   5      16.468  20.050  21.7720  0.00  0.00     0.000 N
ATOM     92  HD  SGN B   5      16.268  20.889  21.8460  0.00  0.00     0.000 HD
ATOM     92   S  SGN B   5      15.716  19.277  20.5920  0.00  0.00     0.000 S
ATOM     93   O  SGN B   5      14.352  19.696  20.7070  0.00  0.00     0.000 OA
ATOM     94   O  SGN B   5      16.453  19.567  19.4100  0.00  0.00     0.000 OA
ATOM     95   O  SGN B   5      15.919  17.811  20.9030  0.00  0.00     0.000 OA
ENDBRANCH 83 92
BRANCH 86 96
ATOM     96   C  SGN B   5      20.692  21.944  24.4260  0.00  0.00     0.000 C
ATOM     97   O  SGN B   5      20.999  21.628  25.7860  0.00  0.00     0.000 O
ATOM     98   S  SGN B   5      22.543  21.736  26.2050  0.00  0.00     0.000 S
ATOM     99   O  SGN B   5      22.497  21.564  27.6370  0.00  0.00     0.000 OA
ATOM    100   O  SGN B   5      23.245  20.718  25.5090  0.00  0.00     0.000 OA
ATOM    101   O  SGN B   5      22.928  23.050  25.8050  0.00  0.00     0.000 OA
ENDBRANCH 86 96
BRANCH 82 102
ATOM    102  O4  IDS B   6      17.521  19.299  24.2450  0.00  0.00     0.000 O
BRANCH 102 106
ATOM    103  C1  IDS B   6      15.668  17.914  27.0570  0.00  0.00     0.000 C
ATOM    104  C2  IDS B   6      15.005  18.910  26.0930  0.00  0.00     0.000 C
ATOM    105  C3  IDS B   6      15.828  20.144  25.7770  0.00  0.00     0.000 C
ATOM    106  C4  IDS B   6      17.300  19.832  25.5760  0.00  0.00     0.000 C
ATOM    107  C5  IDS B   6      17.769  18.841  26.6450  0.00  0.00     0.000 C
ATOM    108  O5  IDS B   6      16.992  17.642  26.6390  0.00  0.00     0.000 O
ATOM    109   O  IDS B   6      15.650  21.075  26.8320  0.00  0.00     0.000 O
ATOM    111  HD  IDS B   6      15.406  20.585  27.5040  0.00  0.00     0.000 HD
BRANCH 104 111
ATOM    111   O  IDS B   6      14.785  18.248  24.7980  0.00  0.00     0.000 O
ATOM    112   S  IDS B   6      13.329  18.347  24.1400  0.00  0.00     0.000 S
ATOM    113   O  IDS B   6      12.439  17.763  25.1310  0.00  0.00     0.000 OA
ATOM    114   O  IDS B   6      13.056  19.754  23.8240  0.00  0.00     0.000 OA
ATOM    115   O  IDS B   6      13.541  17.513  22.9770  0.00  0.00     0.000 OA
ENDBRANCH 104 111
BRANCH 107 116
ATOM    116   C  IDS B   6      19.237  18.506  26.4130  0.00  0.00     0.000 C
ATOM    117   O  IDS B   6      20.035  19.025  27.1510  0.00  0.00     0.000 OA
ATOM    118   O  IDS B   6      19.583  17.756  25.5140  0.00  0.00     0.000 OA
ENDBRANCH 107 116
BRANCH 103 119
ATOM    119  O4  SGN B   7      15.407  18.434  28.2840  0.00  0.00     0.000 O
BRANCH 119 123
ATOM    120  C1  SGN B   7      14.857  16.934  32.1490  0.00  0.00     0.000 C
ATOM    121  C2  SGN B   7      16.305  17.137  31.6620  0.00  0.00     0.000 C
ATOM    122  C3  SGN B   7      16.334  18.047  30.4270  0.00  0.00     0.000 C
ATOM    123  C4  SGN B   7      15.397  17.498  29.3630  0.00  0.00     0.000 C
ATOM    124  C5  SGN B   7      13.986  17.326  29.9480  0.00  0.00     0.000 C
ATOM    125  O5  SGN B   7      14.006  16.462  31.1070  0.00  0.00     0.000 O
ATOM    126   O  SGN B   7      17.679  18.133  29.9440  0.00  0.00     0.000 O
ATOM    128  HD  SGN B   7      17.137  17.880  30.5710  0.00  0.00     0.000 HD
BRANCH 121 130
ATOM    128   N  SGN B   7      16.592  16.908  33.0800  0.00  0.00     0.000 N
ATOM    130  HD  SGN B   7      16.816  16.089  32.9100  0.00  0.00     0.000 HD
ATOM    130   S  SGN B   7      18.095  16.772  33.6420  0.00  0.00     0.000 S
ATOM    131   O  SGN B   7      18.789  17.901  33.1240  0.00  0.00     0.000 OA
ATOM    132   O  SGN B   7      18.031  16.550  35.0410  0.00  0.00     0.000 OA
ATOM    133   O  SGN B   7      18.496  15.383  33.0380  0.00  0.00     0.000 OA
ENDBRANCH 121 130
BRANCH 124 134
ATOM    134   C  SGN B   7      13.013  16.681  29.0060  0.00  0.00     0.000 C
ATOM    135   O  SGN B   7      13.272  15.267  28.9780  0.00  0.00     0.000 O
ATOM    136   S  SGN B   7      12.258  14.385  28.1640  0.00  0.00     0.000 S
ATOM    137   O  SGN B   7      12.776  13.038  28.1940  0.00  0.00     0.000 OA
ATOM    138   O  SGN B   7      12.242  14.955  26.8360  0.00  0.00     0.000 OA
ATOM    139   O  SGN B   7      11.021  14.561  28.9100  0.00  0.00     0.000 OA
ENDBRANCH 124 134
BRANCH 120 140
ATOM    140  O4  IDS B   8      14.038  17.840  32.6950  0.00  0.00     0.000 O
BRANCH 140 144
ATOM    141  C1  IDS B   8      12.497  21.059  33.1640  0.00  0.00     0.000 C
ATOM    142  C2  IDS B   8      14.002  20.940  32.7890  0.00  0.00     0.000 C
ATOM    143  C3  IDS B   8      14.764  19.931  33.6680  0.00  0.00     0.000 C
ATOM    144  C4  IDS B   8      13.972  18.642  33.8800  0.00  0.00     0.000 C
ATOM    145  C5  IDS B   8      12.509  18.969  34.2150  0.00  0.00     0.000 C
ATOM    146  O5  IDS B   8      11.902  19.768  33.2020  0.00  0.00     0.000 O
BRANCH 142 147
ATOM    147   O  IDS B   8      14.128  20.479  31.3820  0.00  0.00     0.000 O
ATOM    148   S  IDS B   8      14.406  21.532  30.1790  0.00  0.00     0.000 S
ATOM    149   O  IDS B   8      14.105  22.856  30.6780  0.00  0.00     0.000 OA
ATOM    150   O  IDS B   8      15.805  21.366  29.8350  0.00  0.00     0.000 OA
ATOM    151   O  IDS B   8      13.506  21.139  29.1120  0.00  0.00     0.000 OA
ENDBRANCH 142 147
BRANCH 145 152
ATOM    152   C  IDS B   8      11.647  17.729  34.3390  0.00  0.00     0.000 C
ATOM    153   O  IDS B   8      11.660  17.086  35.3830  0.00  0.00     0.000 OA
ATOM    154   O  IDS B   8      10.936  17.395  33.4090  0.00  0.00     0.000 OA
ENDBRANCH 145 152
ENDBRANCH 140 144
ENDBRANCH 120 140
ENDBRANCH 119 123
ENDBRANCH 103 119
ENDBRANCH 102 106
ENDBRANCH 82 102
ENDBRANCH 81 85
ENDBRANCH 65 81
ENDBRANCH 64 68
ENDBRANCH 41 64
ENDBRANCH 40 44
ENDBRANCH 24 40
ENDBRANCH 23 27
ENDBRANCH 1 23
TORSDOF 31
ENDMDL
MODEL 5
REMARK VINA RESULT:      -8.8      3.225      4.940
ROOT
ATOM      1  C1  SGN B   1      28.606  11.319  14.0730  0.00  0.00     0.000 C
ATOM      2  C2  SGN B   1      29.052   9.851  14.1770  0.00  0.00     0.000 C
ATOM      3  C3  SGN B   1      27.981   8.918  13.6020  0.00  0.00     0.000 C
ATOM      4  C4  SGN B   1      26.644   9.159  14.2970  0.00  0.00     0.000 C
ATOM      5  C5  SGN B   1      26.336  10.654  14.2800  0.00  0.00     0.000 C
ATOM      6  O5  SGN B   1      27.431  11.379  14.8710  0.00  0.00     0.000 O
ATOM      7   O  SGN B   1      28.376   7.558  13.7400  0.00  0.00     0.000 O
ATOM      9  HD  SGN B   1      28.346   7.817  14.5660  0.00  0.00     0.000 HD
ATOM      9   O  SGN B   1      25.627   8.442  13.6220  0.00  0.00     0.000 O
ATOM     11  HD  SGN B   1      25.596   8.701  14.4480  0.00  0.00     0.000 HD
ENDROOT
BRANCH 2 13
ATOM     11   N  SGN B   1      30.410   9.783  14.7490  0.00  0.00     0.000 N
ATOM     13  HD  SGN B   1      30.200  10.407  14.1850  0.00  0.00     0.000 HD
ATOM     13   S  SGN B   1      31.702  10.332  13.9630  0.00  0.00     0.000 S
ATOM     14   O  SGN B   1      31.315  10.902  12.7310  0.00  0.00     0.000 OA
ATOM     15   O  SGN B   1      32.490  11.096  14.8700  0.00  0.00     0.000 OA
ATOM     16   O  SGN B   1      32.431   8.969  13.7530  0.00  0.00     0.000 OA
ENDBRANCH 2 13
BRANCH 5 17
ATOM     17   C  SGN B   1      25.086  11.032  15.0370  0.00  0.00     0.000 C
ATOM     18   O  SGN B   1      25.014  10.330  16.2940  0.00  0.00     0.000 O
ATOM     19   S  SGN B   1      23.595   9.688  16.6580  0.00  0.00     0.000 S
ATOM     20   O  SGN B   1      23.719   9.261  18.0350  0.00  0.00     0.000 OA
ATOM     21   O  SGN B   1      22.659  10.772  16.4700  0.00  0.00     0.000 OA
ATOM     22   O  SGN B   1      23.425   8.595  15.7250  0.00  0.00     0.000 OA
ENDBRANCH 5 17
BRANCH 1 23
ATOM     23  O4  IDS B   2      28.666  12.381  13.2190  0.00  0.00     0.000 O
BRANCH 23 27
ATOM     24  C1  IDS B   2      27.450  15.807  15.2230  0.00  0.00     0.000 C
ATOM     25  C2  IDS B   2      26.582  15.398  14.0120  0.00  0.00     0.000 C
ATOM     26  C3  IDS B   2      26.931  13.989  13.5410  0.00  0.00     0.000 C
ATOM     27  C4  IDS B   2      28.410  13.801  13.2310  0.00  0.00     0.000 C
ATOM     28  C5  IDS B   2      29.265  14.595  14.2400  0.00  0.00     0.000 C
ATOM     29  O5  IDS B   2      28.526  14.879  15.4180  0.00  0.00     0.000 O
ATOM     30   O  IDS B   2      26.203  13.699  12.3540  0.00  0.00     0.000 O
ATOM     32  HD  IDS B   2      26.550  14.054  11.6440  0.00  0.00     0.000 HD
BRANCH 25 32
ATOM     32   O  IDS B   2      25.133  15.420  14.3280  0.00  0.00     0.000 O
ATOM     33   S  IDS B   2      24.098  16.481  13.6020  0.00  0.00     0.000 S
ATOM     34   O  IDS B   2      22.834  16.364  14.3120  0.00  0.00     0.000 OA
ATOM     35   O  IDS B   2      24.640  17.829  13.6990  0.00  0.00     0.000 OA
ATOM     36   O  IDS B   2      23.977  16.033  12.2340  0.00  0.00     0.000 OA
ENDBRANCH 25 32
BRANCH 28 37
ATOM     37   C  IDS B   2      30.628  14.002  14.6530  0.00  0.00     0.000 C
ATOM     38   O  IDS B   2      30.594  13.460  15.7330  0.00  0.00     0.000 OA
ATOM     39   O  IDS B   2      31.681  13.984  13.9700  0.00  0.00     0.000 OA
ENDBRANCH 28 37
BRANCH 24 40
ATOM     40  O4  SUS B   3      27.338  17.047  15.7430  0.00  0.00     0.000 O
BRANCH 40 44
ATOM     41  C1  SUS B   3      27.007  18.053  19.7960  0.00  0.00     0.000 C
ATOM     42  C2  SUS B   3      28.329  18.408  19.0870  0.00  0.00     0.000 C
ATOM     43  C3  SUS B   3      28.102  18.423  17.5770  0.00  0.00     0.000 C
ATOM     44  C4  SUS B   3      27.515  17.085  17.1550  0.00  0.00     0.000 C
ATOM     45  C5  SUS B   3      26.180  16.896  17.8470  0.00  0.00     0.000 C
ATOM     46  O5  SUS B   3      26.411  16.862  19.2700  0.00  0.00     0.000 O
BRANCH 42 49
ATOM     47   N  SUS B   3      29.747  18.806  19.1430  0.00  0.00     0.000 N
ATOM     49  HD  SUS B   3      30.328  18.197  18.9410  0.00  0.00     0.000 HD
ATOM     49   S  SUS B   3      30.156  19.435  20.5580  0.00  0.00     0.000 S
ATOM     50   O  SUS B   3      29.882  18.515  21.5900  0.00  0.00     0.000 OA
ATOM     51   O  SUS B   3      31.680  19.512  20.2860  0.00  0.00     0.000 OA
ATOM     52   O  SUS B   3      29.605  20.727  20.6720  0.00  0.00     0.000 OA
ENDBRANCH 42 49
BRANCH 43 53
ATOM     53   O  SUS B   3      29.410  18.625  16.9230  0.00  0.00     0.000 O
ATOM     54   S  SUS B   3      29.611  20.012  16.0630  0.00  0.00     0.000 S
ATOM     55   O  SUS B   3      29.690  21.109  17.0180  0.00  0.00     0.000 OA
ATOM     56   O  SUS B   3      30.839  19.791  15.3210  0.00  0.00     0.000 OA
ATOM     57   O  SUS B   3      28.431  20.142  15.2030  0.00  0.00     0.000 OA
ENDBRANCH 43 53
BRANCH 45 58
ATOM     58   C  SUS B   3      25.485  15.629  17.3990  0.00  0.00     0.000 C
ATOM     59   S  SUS B   3      24.599  13.382  18.2650  0.00  0.00     0.000 S
ATOM     60   O  SUS B   3      25.140  14.842  18.5520  0.00  0.00     0.000 O
ATOM     61   O  SUS B   3      25.777  12.594  17.9580  0.00  0.00     0.000 OA
ATOM     62   O  SUS B   3      24.028  13.052  19.5440  0.00  0.00     0.000 OA
ATOM     63   O  SUS B   3      23.668  13.523  17.2030  0.00  0.00     0.000 OA
ENDBRANCH 45 58
BRANCH 41 64
ATOM     64  O4  IDS B   4      26.139  19.111  19.9120  0.00  0.00     0.000 O
BRANCH 64 68
ATOM     65  C1  IDS B   4      23.717  20.949  21.9190  0.00  0.00     0.000 C
ATOM     66  C2  IDS B   4      24.744  20.032  22.5960  0.00  0.00     0.000 C
ATOM     67  C3  IDS B   4      24.886  18.664  21.9500  0.00  0.00     0.000 C
ATOM     68  C4  IDS B   4      24.851  18.720  20.4350  0.00  0.00     0.000 C
ATOM     69  C5  IDS B   4      23.712  19.661  20.0180  0.00  0.00     0.000 C
ATOM     70  O5  IDS B   4      23.973  20.971  20.5270  0.00  0.00     0.000 O
ATOM     71   O  IDS B   4      23.821  17.865  22.4230  0.00  0.00     0.000 O
ATOM     73  HD  IDS B   4      24.362  18.540  22.4320  0.00  0.00     0.000 HD
BRANCH 66 73
ATOM     73   O  IDS B   4      26.072  20.652  22.4930  0.00  0.00     0.000 O
ATOM     74   S  IDS B   4      26.861  20.986  23.8650  0.00  0.00     0.000 S
ATOM     75   O  IDS B   4      25.987  21.836  24.6450  0.00  0.00     0.000 OA
ATOM     76   O  IDS B   4      28.041  21.651  23.3740  0.00  0.00     0.000 OA
ATOM     77   O  IDS B   4      27.115  19.707  24.4850  0.00  0.00     0.000 OA
ENDBRANCH 66 73
BRANCH 69 78
ATOM     78   C  IDS B   4      23.404  19.654  18.5270  0.00  0.00     0.000 C
ATOM     79   O  IDS B   4      22.275  19.333  18.1580  0.00  0.00     0.000 OA
ATOM     80   O  IDS B   4      24.269  20.076  17.7380  0.00  0.00     0.000 OA
ENDBRANCH 69 78
BRANCH 65 81
ATOM     81  O4  SGN B   5      22.462  20.587  22.3070  0.00  0.00     0.000 O
BRANCH 81 85
ATOM     82  C1  SGN B   5      18.577  22.062  22.9130  0.00  0.00     0.000 C
ATOM     83  C2  SGN B   5      19.256  22.412  21.5800  0.00  0.00     0.000 C
ATOM     84  C3  SGN B   5      20.422  21.445  21.3290  0.00  0.00     0.000 C
ATOM     85  C4  SGN B   5      21.372  21.488  22.5130  0.00  0.00     0.000 C
ATOM     86  C5  SGN B   5      20.592  21.101  23.7670  0.00  0.00     0.000 C
ATOM     87  O5  SGN B   5      19.528  22.052  23.9610  0.00  0.00     0.000 O
ATOM     88   O  SGN B   5      21.087  21.796  20.1350  0.00  0.00     0.000 O
ATOM     90  HD  SGN B   5      20.521  21.146  20.2220  0.00  0.00     0.000 HD
BRANCH 83 92
ATOM     90   N  SGN B   5      17.999  22.460  20.8080  0.00  0.00     0.000 N
ATOM     92  HD  SGN B   5      17.352  22.088  21.2460  0.00  0.00     0.000 HD
ATOM     92   S  SGN B   5      17.621  23.827  20.0730  0.00  0.00     0.000 S
ATOM     93   O  SGN B   5      16.370  23.552  19.4330  0.00  0.00     0.000 OA
ATOM     94   O  SGN B   5      17.704  24.838  21.0700  0.00  0.00     0.000 OA
ATOM     95   O  SGN B   5      18.752  24.064  19.0950  0.00  0.00     0.000 OA
ENDBRANCH 83 92
BRANCH 86 96
ATOM     96   C  SGN B   5      21.422  21.089  25.0340  0.00  0.00     0.000 C
ATOM     97   O  SGN B   5      21.154  19.910  25.7980  0.00  0.00     0.000 O
ATOM     98   S  SGN B   5      22.434  19.066  26.2660  0.00  0.00     0.000 S
ATOM     99   O  SGN B   5      21.861  18.089  27.1620  0.00  0.00     0.000 OA
ATOM    100   O  SGN B   5      23.034  18.521  25.1020  0.00  0.00     0.000 OA
ATOM    101   O  SGN B   5      23.266  20.019  26.9270  0.00  0.00     0.000 OA
ENDBRANCH 86 96
BRANCH 82 102
ATOM    102  O4  IDS B   6      17.911  20.874  22.8650  0.00  0.00     0.000 O
BRANCH 102 106
ATOM    103  C1  IDS B   6      14.910  18.818  23.0440  0.00  0.00     0.000 C
ATOM    104  C2  IDS B   6      14.879  20.198  22.3680  0.00  0.00     0.000 C
ATOM    105  C3  IDS B   6      15.534  21.315  23.1570  0.00  0.00     0.000 C
ATOM    106  C4  IDS B   6      16.825  20.881  23.8270  0.00  0.00     0.000 C
ATOM    107  C5  IDS B   6      16.643  19.496  24.4530  0.00  0.00     0.000 C
ATOM    108  O5  IDS B   6      16.221  18.527  23.4910  0.00  0.00     0.000 O
ATOM    109   O  IDS B   6      14.601  21.784  24.1170  0.00  0.00     0.000 O
ATOM    111  HD  IDS B   6      14.058  21.117  24.2230  0.00  0.00     0.000 HD
BRANCH 104 111
ATOM    111   O  IDS B   6      15.623  20.129  21.1020  0.00  0.00     0.000 O
ATOM    112   S  IDS B   6      14.787  20.121  19.7370  0.00  0.00     0.000 S
ATOM    113   O  IDS B   6      13.920  18.958  19.8450  0.00  0.00     0.000 OA
ATOM    114   O  IDS B   6      14.082  21.402  19.6170  0.00  0.00     0.000 OA
ATOM    115   O  IDS B   6      15.876  19.957  18.7970  0.00  0.00     0.000 OA
ENDBRANCH 104 111
BRANCH 107 116
ATOM    116   C  IDS B   6      17.954  19.054  25.0910  0.00  0.00     0.000 C
ATOM    117   O  IDS B   6      18.173  19.449  26.2080  0.00  0.00     0.000 OA
ATOM    118   O  IDS B   6      18.744  18.342  24.4910  0.00  0.00     0.000 OA
ENDBRANCH 107 116
BRANCH 103 119
ATOM    119  O4  SGN B   7      13.863  18.859  23.9070  0.00  0.00     0.000 O
BRANCH 119 123
ATOM    120  C1  SGN B   7      11.250  16.096  25.6480  0.00  0.00     0.000 C
ATOM    121  C2  SGN B   7      12.714  16.094  26.1280  0.00  0.00     0.000 C
ATOM    122  C3  SGN B   7      13.419  17.391  25.7090  0.00  0.00     0.000 C
ATOM    123  C4  SGN B   7      13.262  17.600  24.2120  0.00  0.00     0.000 C
ATOM    124  C5  SGN B   7      11.772  17.579  23.8350  0.00  0.00     0.000 C
ATOM    125  O5  SGN B   7      11.150  16.341  24.2460  0.00  0.00     0.000 O
ATOM    126   O  SGN B   7      14.799  17.313  26.0840  0.00  0.00     0.000 O
ATOM    128  HD  SGN B   7      14.003  16.975  26.1340  0.00  0.00     0.000 HD
BRANCH 121 130
ATOM    128   N  SGN B   7      12.694  14.753  26.7170  0.00  0.00     0.000 N
ATOM    130  HD  SGN B   7      13.560  14.738  26.7290  0.00  0.00     0.000 HD
ATOM    130   S  SGN B   7      13.075  14.486  28.2590  0.00  0.00     0.000 S
ATOM    131   O  SGN B   7      12.294  15.416  29.0020  0.00  0.00     0.000 OA
ATOM    132   O  SGN B   7      12.965  13.095  28.5110  0.00  0.00     0.000 OA
ATOM    133   O  SGN B   7      14.616  14.761  28.2200  0.00  0.00     0.000 OA
ENDBRANCH 121 130
BRANCH 124 134
ATOM    134   C  SGN B   7      11.519  17.662  22.3580  0.00  0.00     0.000 C
ATOM    135   O  SGN B   7      10.797  16.487  21.9500  0.00  0.00     0.000 O
ATOM    136   S  SGN B   7      10.299  16.453  20.4610  0.00  0.00     0.000 S
ATOM    137   O  SGN B   7       9.705  15.153  20.2610  0.00  0.00     0.000 OA
ATOM    138   O  SGN B   7      11.484  16.662  19.6610  0.00  0.00     0.000 OA
ATOM    139   O  SGN B   7       9.346  17.552  20.4250  0.00  0.00     0.000 OA
ENDBRANCH 124 134
BRANCH 120 140
ATOM    140  O4  IDS B   8      10.247  16.875  26.0690  0.00  0.00     0.000 O
BRANCH 140 144
ATOM    141  C1  IDS B   8       7.782  19.418  26.7140  0.00  0.00     0.000 C
ATOM    142  C2  IDS B   8       9.298  19.706  26.9080  0.00  0.00     0.000 C
ATOM    143  C3  IDS B   8      10.019  18.620  27.7270  0.00  0.00     0.000 C
ATOM    144  C4  IDS B   8       9.603  17.212  27.3040  0.00  0.00     0.000 C
ATOM    145  C5  IDS B   8       8.078  17.137  27.1410  0.00  0.00     0.000 C
ATOM    146  O5  IDS B   8       7.599  18.101  26.2080  0.00  0.00     0.000 O
BRANCH 142 147
ATOM    147   O  IDS B   8       9.964  19.770  25.5800  0.00  0.00     0.000 O
ATOM    148   S  IDS B   8      10.562  21.167  25.0120  0.00  0.00     0.000 S
ATOM    149   O  IDS B   8       9.985  22.240  25.7900  0.00  0.00     0.000 OA
ATOM    150   O  IDS B   8      12.001  21.066  25.1730  0.00  0.00     0.000 OA
ATOM    151   O  IDS B   8      10.148  21.222  23.6220  0.00  0.00     0.000 OA
ENDBRANCH 142 147
BRANCH 145 152
ATOM    152   C  IDS B   8       7.612  15.790  26.6250  0.00  0.00     0.000 C
ATOM    153   O  IDS B   8       7.110  15.711  25.5100  0.00  0.00     0.000 OA
ATOM    154   O  IDS B   8       7.760  14.797  27.3150  0.00  0.00     0.000 OA
ENDBRANCH 145 152
ENDBRANCH 140 144
ENDBRANCH 120 140
ENDBRANCH 119 123
ENDBRANCH 103 119
ENDBRANCH 102 106
ENDBRANCH 82 102
ENDBRANCH 81 85
ENDBRANCH 65 81
ENDBRANCH 64 68
ENDBRANCH 41 64
ENDBRANCH 40 44
ENDBRANCH 24 40
ENDBRANCH 23 27
ENDBRANCH 1 23
TORSDOF 31
ENDMDL
MODEL 6
REMARK VINA RESULT:      -8.8      2.491      4.073
ROOT
ATOM      1  C1  SGN B   1      28.508  11.322  14.0830  0.00  0.00     0.000 C
ATOM      2  C2  SGN B   1      28.963   9.854  14.1080  0.00  0.00     0.000 C
ATOM      3  C3  SGN B   1      27.903   8.946  13.4760  0.00  0.00     0.000 C
ATOM      4  C4  SGN B   1      26.561   9.139  14.1730  0.00  0.00     0.000 C
ATOM      5  C5  SGN B   1      26.241  10.631  14.2370  0.00  0.00     0.000 C
ATOM      6  O5  SGN B   1      27.328  11.330  14.8750  0.00  0.00     0.000 O
ATOM      7   O  SGN B   1      28.308   7.583  13.5410  0.00  0.00     0.000 O
ATOM      9  HD  SGN B   1      28.269   7.796  14.3800  0.00  0.00     0.000 HD
ATOM      9   O  SGN B   1      25.553   8.454  13.4530  0.00  0.00     0.000 O
ATOM     11  HD  SGN B   1      25.514   8.667  14.2910  0.00  0.00     0.000 HD
ENDROOT
BRANCH 2 13
ATOM     11   N  SGN B   1      30.315   9.780  14.6940  0.00  0.00     0.000 N
ATOM     13  HD  SGN B   1      30.107  10.418  14.1470  0.00  0.00     0.000 HD
ATOM     13   S  SGN B   1      31.611  10.363  13.9400  0.00  0.00     0.000 S
ATOM     14   O  SGN B   1      31.234  10.966  12.7220  0.00  0.00     0.000 OA
ATOM     15   O  SGN B   1      32.383  11.106  14.8800  0.00  0.00     0.000 OA
ATOM     16   O  SGN B   1      32.355   9.014  13.7000  0.00  0.00     0.000 OA
ENDBRANCH 2 13
BRANCH 5 17
ATOM     17   C  SGN B   1      24.984  10.958  15.0040  0.00  0.00     0.000 C
ATOM     18   O  SGN B   1      24.960  10.268  16.2700  0.00  0.00     0.000 O
ATOM     19   S  SGN B   1      23.578   9.564  16.6580  0.00  0.00     0.000 S
ATOM     20   O  SGN B   1      23.738   9.160  18.0390  0.00  0.00     0.000 OA
ATOM     21   O  SGN B   1      22.589  10.600  16.4690  0.00  0.00     0.000 OA
ATOM     22   O  SGN B   1      23.449   8.453  15.7400  0.00  0.00     0.000 OA
ENDBRANCH 5 17
BRANCH 1 23
ATOM     23  O4  IDS B   2      28.567  12.430  13.2900  0.00  0.00     0.000 O
BRANCH 23 27
ATOM     24  C1  IDS B   2      27.218  15.742  15.3970  0.00  0.00     0.000 C
ATOM     25  C2  IDS B   2      26.556  15.512  14.0200  0.00  0.00     0.000 C
ATOM     26  C3  IDS B   2      26.900  14.129  13.4730  0.00  0.00     0.000 C
ATOM     27  C4  IDS B   2      28.396  13.858  13.4040  0.00  0.00     0.000 C
ATOM     28  C5  IDS B   2      29.104  14.490  14.6200  0.00  0.00     0.000 C
ATOM     29  O5  IDS B   2      28.185  14.721  15.6770  0.00  0.00     0.000 O
ATOM     30   O  IDS B   2      26.379  14.004  12.1560  0.00  0.00     0.000 O
ATOM     32  HD  IDS B   2      26.867  14.395  11.5570  0.00  0.00     0.000 HD
BRANCH 25 32
ATOM     32   O  IDS B   2      25.078  15.615  14.0840  0.00  0.00     0.000 O
ATOM     33   S  IDS B   2      24.244  16.742  13.2140  0.00  0.00     0.000 S
ATOM     34   O  IDS B   2      22.872  16.692  13.6950  0.00  0.00     0.000 OA
ATOM     35   O  IDS B   2      24.835  18.055  13.4310  0.00  0.00     0.000 OA
ATOM     36   O  IDS B   2      24.335  16.318  11.8360  0.00  0.00     0.000 OA
ENDBRANCH 25 32
BRANCH 28 37
ATOM     37   C  IDS B   2      30.334  13.760  15.1970  0.00  0.00     0.000 C
ATOM     38   O  IDS B   2      31.332  13.933  14.5380  0.00  0.00     0.000 OA
ATOM     39   O  IDS B   2      30.389  13.099  16.2630  0.00  0.00     0.000 OA
ENDBRANCH 28 37
BRANCH 24 40
ATOM     40  O4  SUS B   3      27.088  16.934  16.0160  0.00  0.00     0.000 O
BRANCH 40 44
ATOM     41  C1  SUS B   3      26.401  17.526  20.1050  0.00  0.00     0.000 C
ATOM     42  C2  SUS B   3      27.748  18.017  19.5380  0.00  0.00     0.000 C
ATOM     43  C3  SUS B   3      27.632  18.165  18.0230  0.00  0.00     0.000 C
ATOM     44  C4  SUS B   3      27.158  16.845  17.4340  0.00  0.00     0.000 C
ATOM     45  C5  SUS B   3      25.790  16.520  17.9980  0.00  0.00     0.000 C
ATOM     46  O5  SUS B   3      25.918  16.361  19.4260  0.00  0.00     0.000 O
BRANCH 42 49
ATOM     47   N  SUS B   3      28.191  19.249  20.2140  0.00  0.00     0.000 N
ATOM     49  HD  SUS B   3      28.409  19.913  19.7030  0.00  0.00     0.000 HD
ATOM     49   S  SUS B   3      29.397  18.992  21.2370  0.00  0.00     0.000 S
ATOM     50   O  SUS B   3      30.485  18.405  20.5590  0.00  0.00     0.000 OA
ATOM     51   O  SUS B   3      29.687  20.483  21.5490  0.00  0.00     0.000 OA
ATOM     52   O  SUS B   3      28.906  18.331  22.3800  0.00  0.00     0.000 OA
ENDBRANCH 42 49
BRANCH 43 53
ATOM     53   O  SUS B   3      28.969  18.499  17.4950  0.00  0.00     0.000 O
ATOM     54   S  SUS B   3      29.162  19.988  16.8280  0.00  0.00     0.000 S
ATOM     55   O  SUS B   3      29.124  20.960  17.9120  0.00  0.00     0.000 OA
ATOM     56   O  SUS B   3      30.446  19.910  16.1550  0.00  0.00     0.000 OA
ATOM     57   O  SUS B   3      28.038  20.178  15.9060  0.00  0.00     0.000 OA
ENDBRANCH 43 53
BRANCH 45 58
ATOM     58   C  SUS B   3      25.207  15.267  17.3830  0.00  0.00     0.000 C
ATOM     59   S  SUS B   3      23.119  13.775  17.4030  0.00  0.00     0.000 S
ATOM     60   O  SUS B   3      23.830  15.140  17.7770  0.00  0.00     0.000 O
ATOM     61   O  SUS B   3      23.592  12.819  18.3860  0.00  0.00     0.000 OA
ATOM     62   O  SUS B   3      21.739  14.131  17.5930  0.00  0.00     0.000 OA
ATOM     63   O  SUS B   3      23.498  13.504  16.0610  0.00  0.00     0.000 OA
ENDBRANCH 45 58
BRANCH 41 64
ATOM     64  O4  IDS B   4      25.465  18.521  20.2490  0.00  0.00     0.000 O
BRANCH 64 68
ATOM     65  C1  IDS B   4      23.009  20.257  22.3040  0.00  0.00     0.000 C
ATOM     66  C2  IDS B   4      24.146  19.467  22.9630  0.00  0.00     0.000 C
ATOM     67  C3  IDS B   4      24.369  18.082  22.3780  0.00  0.00     0.000 C
ATOM     68  C4  IDS B   4      24.245  18.053  20.8670  0.00  0.00     0.000 C
ATOM     69  C5  IDS B   4      23.009  18.872  20.4730  0.00  0.00     0.000 C
ATOM     70  O5  IDS B   4      23.184  20.225  20.9000  0.00  0.00     0.000 O
ATOM     71   O  IDS B   4      23.404  17.224  22.9520  0.00  0.00     0.000 O
ATOM     73  HD  IDS B   4      23.885  17.942  22.8960  0.00  0.00     0.000 HD
BRANCH 66 73
ATOM     73   O  IDS B   4      25.408  20.188  22.7510  0.00  0.00     0.000 O
ATOM     74   S  IDS B   4      26.238  20.665  24.0560  0.00  0.00     0.000 S
ATOM     75   O  IDS B   4      25.336  21.483  24.8380  0.00  0.00     0.000 OA
ATOM     76   O  IDS B   4      27.328  21.397  23.4620  0.00  0.00     0.000 OA
ATOM     77   O  IDS B   4      26.634  19.450  24.7260  0.00  0.00     0.000 OA
ENDBRANCH 66 73
BRANCH 69 78
ATOM     78   C  IDS B   4      22.620  18.760  19.0050  0.00  0.00     0.000 C
ATOM     79   O  IDS B   4      23.472  18.994  18.1490  0.00  0.00     0.000 OA
ATOM     80   O  IDS B   4      21.487  18.333  18.7190  0.00  0.00     0.000 OA
ENDBRANCH 69 78
BRANCH 65 81
ATOM     81  O4  SGN B   5      21.813  19.815  22.7830  0.00  0.00     0.000 O
BRANCH 81 85
ATOM     82  C1  SGN B   5      17.906  21.004  23.7610  0.00  0.00     0.000 C
ATOM     83  C2  SGN B   5      18.325  21.129  22.2880  0.00  0.00     0.000 C
ATOM     84  C3  SGN B   5      19.555  20.248  22.0290  0.00  0.00     0.000 C
ATOM     85  C4  SGN B   5      20.659  20.630  22.9990  0.00  0.00     0.000 C
ATOM     86  C5  SGN B   5      20.134  20.444  24.4200  0.00  0.00     0.000 C
ATOM     87  O5  SGN B   5      18.997  21.307  24.6090  0.00  0.00     0.000 O
ATOM     88   O  SGN B   5      19.981  20.400  20.6920  0.00  0.00     0.000 O
ATOM     90  HD  SGN B   5      19.524  19.732  21.0000  0.00  0.00     0.000 HD
BRANCH 83 92
ATOM     90   N  SGN B   5      16.921  20.963  21.8660  0.00  0.00     0.000 N
ATOM     92  HD  SGN B   5      16.414  20.771  22.5410  0.00  0.00     0.000 HD
ATOM     92   S  SGN B   5      16.312  22.031  20.8440  0.00  0.00     0.000 S
ATOM     93   O  SGN B   5      14.961  21.600  20.6450  0.00  0.00     0.000 OA
ATOM     94   O  SGN B   5      16.577  23.306  21.4160  0.00  0.00     0.000 OA
ATOM     95   O  SGN B   5      17.168  21.906  19.6020  0.00  0.00     0.000 OA
ENDBRANCH 83 92
BRANCH 86 96
ATOM     96   C  SGN B   5      21.140  20.779  25.5020  0.00  0.00     0.000 C
ATOM     97   O  SGN B   5      21.151  19.764  26.5090  0.00  0.00     0.000 O
ATOM     98   S  SGN B   5      22.589  19.169  26.8960  0.00  0.00     0.000 S
ATOM     99   O  SGN B   5      22.294  18.347  28.0450  0.00  0.00     0.000 OA
ATOM    100   O  SGN B   5      23.073  18.458  25.7680  0.00  0.00     0.000 OA
ATOM    101   O  SGN B   5      23.375  20.318  27.2090  0.00  0.00     0.000 OA
ENDBRANCH 86 96
BRANCH 82 102
ATOM    102  O4  IDS B   6      17.399  19.775  24.0600  0.00  0.00     0.000 O
BRANCH 102 106
ATOM    103  C1  IDS B   6      14.679  17.601  25.1260  0.00  0.00     0.000 C
ATOM    104  C2  IDS B   6      14.400  18.849  24.2730  0.00  0.00     0.000 C
ATOM    105  C3  IDS B   6      15.087  20.116  24.7430  0.00  0.00     0.000 C
ATOM    106  C4  IDS B   6      16.513  19.874  25.2040  0.00  0.00     0.000 C
ATOM    107  C5  IDS B   6      16.574  18.600  26.0520  0.00  0.00     0.000 C
ATOM    108  O5  IDS B   6      16.070  17.465  25.3450  0.00  0.00     0.000 O
ATOM    109   O  IDS B   6      14.309  20.678  25.7880  0.00  0.00     0.000 O
ATOM    111  HD  IDS B   6      13.857  20.006  26.0950  0.00  0.00     0.000 HD
BRANCH 104 111
ATOM    111   O  IDS B   6      14.902  18.619  22.9090  0.00  0.00     0.000 O
ATOM    112   S  IDS B   6      13.854  18.161  21.7890  0.00  0.00     0.000 S
ATOM    113   O  IDS B   6      13.285  16.925  22.3030  0.00  0.00     0.000 OA
ATOM    114   O  IDS B   6      12.885  19.245  21.5890  0.00  0.00     0.000 OA
ATOM    115   O  IDS B   6      14.765  17.972  20.6800  0.00  0.00     0.000 OA
ENDBRANCH 104 111
BRANCH 107 116
ATOM    116   C  IDS B   6      18.014  18.347  26.4780  0.00  0.00     0.000 C
ATOM    117   O  IDS B   6      18.399  18.929  27.4600  0.00  0.00     0.000 OA
ATOM    118   O  IDS B   6      18.741  17.597  25.8460  0.00  0.00     0.000 OA
ENDBRANCH 107 116
BRANCH 103 119
ATOM    119  O4  SGN B   7      13.809  17.719  26.1610  0.00  0.00     0.000 O
BRANCH 119 123
ATOM    120  C1  SGN B   7      11.564  15.122  28.5500  0.00  0.00     0.000 C
ATOM    121  C2  SGN B   7      13.069  15.250  28.8540  0.00  0.00     0.000 C
ATOM    122  C3  SGN B   7      13.649  16.503  28.1850  0.00  0.00     0.000 C
ATOM    123  C4  SGN B   7      13.319  16.492  26.7010  0.00  0.00     0.000 C
ATOM    124  C5  SGN B   7      11.800  16.355  26.5050  0.00  0.00     0.000 C
ATOM    125  O5  SGN B   7      11.299  15.163  27.1490  0.00  0.00     0.000 O
ATOM    126   O  SGN B   7      15.063  16.536  28.4050  0.00  0.00     0.000 O
ATOM    128  HD  SGN B   7      14.298  16.176  28.5920  0.00  0.00     0.000 HD
BRANCH 121 130
ATOM    128   N  SGN B   7      12.710  14.772  30.1910  0.00  0.00     0.000 N
ATOM    130  HD  SGN B   7      12.686  13.956  29.9010  0.00  0.00     0.000 HD
ATOM    130   S  SGN B   7      13.751  13.975  31.1270  0.00  0.00     0.000 S
ATOM    131   O  SGN B   7      14.929  14.773  31.1360  0.00  0.00     0.000 OA
ATOM    132   O  SGN B   7      13.097  13.648  32.3430  0.00  0.00     0.000 OA
ATOM    133   O  SGN B   7      13.845  12.618  30.3520  0.00  0.00     0.000 OA
ENDBRANCH 121 130
BRANCH 124 134
ATOM    134   C  SGN B   7      11.384  16.218  25.0700  0.00  0.00     0.000 C
ATOM    135   O  SGN B   7       9.962  16.414  24.9850  0.00  0.00     0.000 O
ATOM    136   S  SGN B   7       9.347  16.463  23.5400  0.00  0.00     0.000 S
ATOM    137   O  SGN B   7       7.917  16.560  23.7100  0.00  0.00     0.000 OA
ATOM    138   O  SGN B   7       9.758  15.228  22.9120  0.00  0.00     0.000 OA
ATOM    139   O  SGN B   7       9.960  17.657  22.9790  0.00  0.00     0.000 OA
ENDBRANCH 124 134
BRANCH 120 140
ATOM    140  O4  IDS B   8      10.570  15.910  28.9740  0.00  0.00     0.000 O
BRANCH 140 144
ATOM    141  C1  IDS B   8       7.790  18.164  29.3690  0.00  0.00     0.000 C
ATOM    142  C2  IDS B   8       9.095  18.351  30.1950  0.00  0.00     0.000 C
ATOM    143  C3  IDS B   8       9.578  17.050  30.8630  0.00  0.00     0.000 C
ATOM    144  C4  IDS B   8       9.492  15.854  29.9170  0.00  0.00     0.000 C
ATOM    145  C5  IDS B   8       8.144  15.859  29.1780  0.00  0.00     0.000 C
ATOM    146  O5  IDS B   8       7.939  17.076  28.4650  0.00  0.00     0.000 O
BRANCH 142 147
ATOM    147   O  IDS B   8      10.186  18.817  29.2990  0.00  0.00     0.000 O
ATOM    148   S  IDS B   8      11.272  19.910  29.8030  0.00  0.00     0.000 S
ATOM    149   O  IDS B   8      10.739  20.544  30.9880  0.00  0.00     0.000 OA
ATOM    150   O  IDS B   8      12.485  19.159  30.0660  0.00  0.00     0.000 OA
ATOM    151   O  IDS B   8      11.410  20.847  28.7040  0.00  0.00     0.000 OA
ENDBRANCH 142 147
BRANCH 145 152
ATOM    152   C  IDS B   8       8.038  14.750  28.1510  0.00  0.00     0.000 C
ATOM    153   O  IDS B   8       7.791  15.030  26.9830  0.00  0.00     0.000 OA
ATOM    154   O  IDS B   8       8.220  13.595  28.4910  0.00  0.00     0.000 OA
ENDBRANCH 145 152
ENDBRANCH 140 144
ENDBRANCH 120 140
ENDBRANCH 119 123
ENDBRANCH 103 119
ENDBRANCH 102 106
ENDBRANCH 82 102
ENDBRANCH 81 85
ENDBRANCH 65 81
ENDBRANCH 64 68
ENDBRANCH 41 64
ENDBRANCH 40 44
ENDBRANCH 24 40
ENDBRANCH 23 27
ENDBRANCH 1 23
TORSDOF 31
ENDMDL
MODEL 7
REMARK VINA RESULT:      -8.5      2.544      4.435
ROOT
ATOM      1  C1  SGN B   1      28.608  11.391  14.1150  0.00  0.00     0.000 C
ATOM      2  C2  SGN B   1      29.091   9.931  14.1290  0.00  0.00     0.000 C
ATOM      3  C3  SGN B   1      28.053   9.010  13.4770  0.00  0.00     0.000 C
ATOM      4  C4  SGN B   1      26.702   9.170  14.1650  0.00  0.00     0.000 C
ATOM      5  C5  SGN B   1      26.353  10.655  14.2410  0.00  0.00     0.000 C
ATOM      6  O5  SGN B   1      27.421  11.367  14.8960  0.00  0.00     0.000 O
ATOM      7   O  SGN B   1      28.483   7.655  13.5310  0.00  0.00     0.000 O
ATOM      9  HD  SGN B   1      28.434   7.858  14.3720  0.00  0.00     0.000 HD
ATOM      9   O  SGN B   1      25.713   8.474  13.4280  0.00  0.00     0.000 O
ATOM     11  HD  SGN B   1      25.664   8.677  14.2680  0.00  0.00     0.000 HD
ENDROOT
BRANCH 2 13
ATOM     11   N  SGN B   1      30.444   9.847  14.7090  0.00  0.00     0.000 N
ATOM     13  HD  SGN B   1      30.225  10.511  14.1980  0.00  0.00     0.000 HD
ATOM     13   S  SGN B   1      31.730  10.493  13.9890  0.00  0.00     0.000 S
ATOM     14   O  SGN B   1      31.342  11.156  12.8060  0.00  0.00     0.000 OA
ATOM     15   O  SGN B   1      32.490  11.194  14.9680  0.00  0.00     0.000 OA
ATOM     16   O  SGN B   1      32.496   9.171  13.6730  0.00  0.00     0.000 OA
ENDBRANCH 2 13
BRANCH 5 17
ATOM     17   C  SGN B   1      25.084  10.950  15.0010  0.00  0.00     0.000 C
ATOM     18   O  SGN B   1      25.051  10.227  16.2480  0.00  0.00     0.000 O
ATOM     19   S  SGN B   1      23.671   9.499  16.6010  0.00  0.00     0.000 S
ATOM     20   O  SGN B   1      23.818   9.061  17.9720  0.00  0.00     0.000 OA
ATOM     21   O  SGN B   1      22.675  10.530  16.4270  0.00  0.00     0.000 OA
ATOM     22   O  SGN B   1      23.565   8.412  15.6530  0.00  0.00     0.000 OA
ENDBRANCH 5 17
BRANCH 1 23
ATOM     23  O4  IDS B   2      28.652  12.508  13.3340  0.00  0.00     0.000 O
BRANCH 23 27
ATOM     24  C1  IDS B   2      27.290  15.756  15.5310  0.00  0.00     0.000 C
ATOM     25  C2  IDS B   2      26.464  15.408  14.2730  0.00  0.00     0.000 C
ATOM     26  C3  IDS B   2      26.864  14.043  13.7170  0.00  0.00     0.000 C
ATOM     27  C4  IDS B   2      28.355  13.916  13.4350  0.00  0.00     0.000 C
ATOM     28  C5  IDS B   2      29.162  14.662  14.5170  0.00  0.00     0.000 C
ATOM     29  O5  IDS B   2      28.386  14.846  15.6920  0.00  0.00     0.000 O
ATOM     30   O  IDS B   2      26.174  13.815  12.4940  0.00  0.00     0.000 O
ATOM     32  HD  IDS B   2      26.529  14.227  11.8200  0.00  0.00     0.000 HD
BRANCH 25 32
ATOM     32   O  IDS B   2      25.007  15.368  14.5510  0.00  0.00     0.000 O
ATOM     33   S  IDS B   2      23.955  16.420  13.8360  0.00  0.00     0.000 S
ATOM     34   O  IDS B   2      22.678  16.234  14.5080  0.00  0.00     0.000 OA
ATOM     35   O  IDS B   2      24.447  17.781  13.9950  0.00  0.00     0.000 OA
ATOM     36   O  IDS B   2      23.883  16.018  12.4500  0.00  0.00     0.000 OA
ENDBRANCH 25 32
BRANCH 28 37
ATOM     37   C  IDS B   2      30.531  14.080  14.9250  0.00  0.00     0.000 C
ATOM     38   O  IDS B   2      30.481  13.446  15.9530  0.00  0.00     0.000 OA
ATOM     39   O  IDS B   2      31.605  14.154  14.2800  0.00  0.00     0.000 OA
ENDBRANCH 28 37
BRANCH 24 40
ATOM     40  O4  SUS B   3      27.130  16.954  16.1300  0.00  0.00     0.000 O
BRANCH 40 44
ATOM     41  C1  SUS B   3      26.677  17.664  20.2340  0.00  0.00     0.000 C
ATOM     42  C2  SUS B   3      27.996  18.121  19.5810  0.00  0.00     0.000 C
ATOM     43  C3  SUS B   3      27.799  18.231  18.0700  0.00  0.00     0.000 C
ATOM     44  C4  SUS B   3      27.277  16.902  17.5450  0.00  0.00     0.000 C
ATOM     45  C5  SUS B   3      25.938  16.611  18.1920  0.00  0.00     0.000 C
ATOM     46  O5  SUS B   3      26.143  16.489  19.6140  0.00  0.00     0.000 O
BRANCH 42 49
ATOM     47   N  SUS B   3      28.734  17.921  20.8400  0.00  0.00     0.000 N
ATOM     49  HD  SUS B   3      28.258  17.776  21.5480  0.00  0.00     0.000 HD
ATOM     49   S  SUS B   3      29.748  19.119  21.1590  0.00  0.00     0.000 S
ATOM     50   O  SUS B   3      29.047  20.341  21.2100  0.00  0.00     0.000 OA
ATOM     51   O  SUS B   3      30.136  18.651  22.5850  0.00  0.00     0.000 OA
ATOM     52   O  SUS B   3      30.855  19.038  20.2900  0.00  0.00     0.000 OA
ENDBRANCH 42 49
BRANCH 43 53
ATOM     53   O  SUS B   3      29.109  18.532  17.4610  0.00  0.00     0.000 O
ATOM     54   S  SUS B   3      29.307  20.029  16.8120  0.00  0.00     0.000 S
ATOM     55   O  SUS B   3      29.376  20.977  17.9160  0.00  0.00     0.000 OA
ATOM     56   O  SUS B   3      30.541  19.923  16.0540  0.00  0.00     0.000 OA
ATOM     57   O  SUS B   3      28.132  20.277  15.9720  0.00  0.00     0.000 OA
ENDBRANCH 43 53
BRANCH 45 58
ATOM     58   C  SUS B   3      25.306  15.350  17.6440  0.00  0.00     0.000 C
ATOM     59   S  SUS B   3      24.559  12.991  18.3210  0.00  0.00     0.000 S
ATOM     60   O  SUS B   3      25.023  14.449  18.7270  0.00  0.00     0.000 O
ATOM     61   O  SUS B   3      25.774  12.300  17.9340  0.00  0.00     0.000 OA
ATOM     62   O  SUS B   3      24.027  12.521  19.5720  0.00  0.00     0.000 OA
ATOM     63   O  SUS B   3      23.605  13.171  17.2850  0.00  0.00     0.000 OA
ENDBRANCH 45 58
BRANCH 41 64
ATOM     64  O4  IDS B   4      25.763  18.675  20.4010  0.00  0.00     0.000 O
BRANCH 64 68
ATOM     65  C1  IDS B   4      23.243  20.231  22.5230  0.00  0.00     0.000 C
ATOM     66  C2  IDS B   4      24.286  19.285  23.1310  0.00  0.00     0.000 C
ATOM     67  C3  IDS B   4      24.486  17.992  22.3590  0.00  0.00     0.000 C
ATOM     68  C4  IDS B   4      24.478  18.195  20.8550  0.00  0.00     0.000 C
ATOM     69  C5  IDS B   4      23.316  19.135  20.5070  0.00  0.00     0.000 C
ATOM     70  O5  IDS B   4      23.524  20.397  21.1450  0.00  0.00     0.000 O
ATOM     71   O  IDS B   4      23.439  17.118  22.7280  0.00  0.00     0.000 O
ATOM     73  HD  IDS B   4      23.958  17.806  22.8140  0.00  0.00     0.000 HD
BRANCH 66 73
ATOM     73   O  IDS B   4      25.595  19.954  23.1180  0.00  0.00     0.000 O
ATOM     74   S  IDS B   4      26.601  19.676  24.3540  0.00  0.00     0.000 S
ATOM     75   O  IDS B   4      25.881  20.037  25.5570  0.00  0.00     0.000 OA
ATOM     76   O  IDS B   4      27.702  20.552  24.0430  0.00  0.00     0.000 OA
ATOM     77   O  IDS B   4      26.921  18.270  24.2810  0.00  0.00     0.000 OA
ENDBRANCH 66 73
BRANCH 69 78
ATOM     78   C  IDS B   4      23.037  19.265  19.0160  0.00  0.00     0.000 C
ATOM     79   O  IDS B   4      23.529  20.211  18.4020  0.00  0.00     0.000 OA
ATOM     80   O  IDS B   4      22.409  18.354  18.4460  0.00  0.00     0.000 OA
ENDBRANCH 69 78
BRANCH 65 81
ATOM     81  O4  SGN B   5      21.994  19.795  22.8460  0.00  0.00     0.000 O
BRANCH 81 85
ATOM     82  C1  SGN B   5      18.146  21.073  23.9410  0.00  0.00     0.000 C
ATOM     83  C2  SGN B   5      18.525  21.193  22.4570  0.00  0.00     0.000 C
ATOM     84  C3  SGN B   5      19.725  20.283  22.1590  0.00  0.00     0.000 C
ATOM     85  C4  SGN B   5      20.866  20.636  23.0980  0.00  0.00     0.000 C
ATOM     86  C5  SGN B   5      20.379  20.457  24.5330  0.00  0.00     0.000 C
ATOM     87  O5  SGN B   5      19.268  21.347  24.7580  0.00  0.00     0.000 O
ATOM     88   O  SGN B   5      20.115  20.431  20.8110  0.00  0.00     0.000 O
ATOM     90  HD  SGN B   5      19.652  19.773  21.1310  0.00  0.00     0.000 HD
BRANCH 83 92
ATOM     90   N  SGN B   5      17.118  21.036  22.0390  0.00  0.00     0.000 N
ATOM     92  HD  SGN B   5      16.619  20.807  22.7090  0.00  0.00     0.000 HD
ATOM     92   S  SGN B   5      16.492  22.147  21.0760  0.00  0.00     0.000 S
ATOM     93   O  SGN B   5      15.143  21.716  20.8670  0.00  0.00     0.000 OA
ATOM     94   O  SGN B   5      16.753  23.395  21.7060  0.00  0.00     0.000 OA
ATOM     95   O  SGN B   5      17.338  22.089  19.8220  0.00  0.00     0.000 OA
ENDBRANCH 83 92
BRANCH 86 96
ATOM     96   C  SGN B   5      21.423  20.765  25.5860  0.00  0.00     0.000 C
ATOM     97   O  SGN B   5      21.004  20.282  26.8650  0.00  0.00     0.000 O
ATOM     98   S  SGN B   5      22.064  19.378  27.6600  0.00  0.00     0.000 S
ATOM     99   O  SGN B   5      21.445  19.228  28.9550  0.00  0.00     0.000 OA
ATOM    100   O  SGN B   5      22.220  18.168  26.9350  0.00  0.00     0.000 OA
ATOM    101   O  SGN B   5      23.252  20.166  27.6890  0.00  0.00     0.000 OA
ENDBRANCH 86 96
BRANCH 82 102
ATOM    102  O4  IDS B   6      17.619  19.854  24.2510  0.00  0.00     0.000 O
BRANCH 102 106
ATOM    103  C1  IDS B   6      14.841  17.717  25.2370  0.00  0.00     0.000 C
ATOM    104  C2  IDS B   6      14.612  18.934  24.3270  0.00  0.00     0.000 C
ATOM    105  C3  IDS B   6      15.273  20.218  24.7910  0.00  0.00     0.000 C
ATOM    106  C4  IDS B   6      16.671  19.993  25.3400  0.00  0.00     0.000 C
ATOM    107  C5  IDS B   6      16.682  18.749  26.2330  0.00  0.00     0.000 C
ATOM    108  O5  IDS B   6      16.217  17.590  25.5390  0.00  0.00     0.000 O
ATOM    109   O  IDS B   6      14.438  20.815  25.7700  0.00  0.00     0.000 O
ATOM    111  HD  IDS B   6      13.968  20.154  26.0750  0.00  0.00     0.000 HD
BRANCH 104 111
ATOM    111   O  IDS B   6      15.189  18.658  23.0020  0.00  0.00     0.000 O
ATOM    112   S  IDS B   6      14.216  18.108  21.8570  0.00  0.00     0.000 S
ATOM    113   O  IDS B   6      13.665  16.877  22.4040  0.00  0.00     0.000 OA
ATOM    114   O  IDS B   6      13.221  19.143  21.5560  0.00  0.00     0.000 OA
ATOM    115   O  IDS B   6      15.187  17.900  20.8050  0.00  0.00     0.000 OA
ENDBRANCH 104 111
BRANCH 107 116
ATOM    116   C  IDS B   6      18.095  18.511  26.7480  0.00  0.00     0.000 C
ATOM    117   O  IDS B   6      18.826  17.858  26.0460  0.00  0.00     0.000 OA
ATOM    118   O  IDS B   6      18.462  18.954  27.8250  0.00  0.00     0.000 OA
ENDBRANCH 107 116
BRANCH 103 119
ATOM    119  O4  SGN B   7      13.914  17.871  26.2170  0.00  0.00     0.000 O
BRANCH 119 123
ATOM    120  C1  SGN B   7      11.512  15.358  28.5430  0.00  0.00     0.000 C
ATOM    121  C2  SGN B   7      13.000  15.476  28.9240  0.00  0.00     0.000 C
ATOM    122  C3  SGN B   7      13.631  16.705  28.2570  0.00  0.00     0.000 C
ATOM    123  C4  SGN B   7      13.380  16.662  26.7590  0.00  0.00     0.000 C
ATOM    124  C5  SGN B   7      11.872  16.538  26.4850  0.00  0.00     0.000 C
ATOM    125  O5  SGN B   7      11.322  15.368  27.1290  0.00  0.00     0.000 O
ATOM    126   O  SGN B   7      15.032  16.727  28.5510  0.00  0.00     0.000 O
ATOM    128  HD  SGN B   7      14.253  16.381  28.7060  0.00  0.00     0.000 HD
BRANCH 121 130
ATOM    128   N  SGN B   7      13.248  14.243  29.6760  0.00  0.00     0.000 N
ATOM    130  HD  SGN B   7      14.088  14.443  29.7410  0.00  0.00     0.000 HD
ATOM    130   S  SGN B   7      13.543  14.248  31.2590  0.00  0.00     0.000 S
ATOM    131   O  SGN B   7      12.502  15.031  31.8300  0.00  0.00     0.000 OA
ATOM    132   O  SGN B   7      13.746  12.908  31.6790  0.00  0.00     0.000 OA
ATOM    133   O  SGN B   7      14.973  14.888  31.2760  0.00  0.00     0.000 OA
ENDBRANCH 121 130
BRANCH 124 134
ATOM    134   C  SGN B   7      11.531  16.372  25.0330  0.00  0.00     0.000 C
ATOM    135   O  SGN B   7      10.137  16.678  24.8530  0.00  0.00     0.000 O
ATOM    136   S  SGN B   7       9.614  16.711  23.3720  0.00  0.00     0.000 S
ATOM    137   O  SGN B   7       8.190  16.931  23.4490  0.00  0.00     0.000 OA
ATOM    138   O  SGN B   7       9.958  15.421  22.8200  0.00  0.00     0.000 OA
ATOM    139   O  SGN B   7      10.355  17.827  22.8040  0.00  0.00     0.000 OA
ENDBRANCH 124 134
BRANCH 120 140
ATOM    140  O4  IDS B   8      10.507  16.167  28.8950  0.00  0.00     0.000 O
BRANCH 140 144
ATOM    141  C1  IDS B   8       7.487  17.689  30.1310  0.00  0.00     0.000 C
ATOM    142  C2  IDS B   8       7.431  16.473  29.1620  0.00  0.00     0.000 C
ATOM    143  C3  IDS B   8       8.340  16.641  27.9300  0.00  0.00     0.000 C
ATOM    144  C4  IDS B   8       9.712  17.202  28.3020  0.00  0.00     0.000 C
ATOM    145  C5  IDS B   8       9.556  18.375  29.2820  0.00  0.00     0.000 C
ATOM    146  O5  IDS B   8       8.838  17.992  30.4530  0.00  0.00     0.000 O
BRANCH 142 147
ATOM    147   O  IDS B   8       7.880  15.249  29.8760  0.00  0.00     0.000 O
ATOM    148   S  IDS B   8       7.389  13.778  29.4030  0.00  0.00     0.000 S
ATOM    149   O  IDS B   8       6.244  13.955  28.5380  0.00  0.00     0.000 OA
ATOM    150   O  IDS B   8       8.525  13.192  28.7160  0.00  0.00     0.000 OA
ATOM    151   O  IDS B   8       7.041  13.080  30.6260  0.00  0.00     0.000 OA
ENDBRANCH 142 147
BRANCH 145 152
ATOM    152   C  IDS B   8      10.888  18.911  29.7670  0.00  0.00     0.000 C
ATOM    153   O  IDS B   8      11.615  19.517  28.9880  0.00  0.00     0.000 OA
ATOM    154   O  IDS B   8      11.215  18.751  30.9290  0.00  0.00     0.000 OA
ENDBRANCH 145 152
ENDBRANCH 140 144
ENDBRANCH 120 140
ENDBRANCH 119 123
ENDBRANCH 103 119
ENDBRANCH 102 106
ENDBRANCH 82 102
ENDBRANCH 81 85
ENDBRANCH 65 81
ENDBRANCH 64 68
ENDBRANCH 41 64
ENDBRANCH 40 44
ENDBRANCH 24 40
ENDBRANCH 23 27
ENDBRANCH 1 23
TORSDOF 31
ENDMDL
MODEL 8
REMARK VINA RESULT:      -8.2      2.084      2.872
ROOT
ATOM      1  C1  SGN B   1      28.326  10.174  13.3300  0.00  0.00     0.000 C
ATOM      2  C2  SGN B   1      27.794   8.739  13.4870  0.00  0.00     0.000 C
ATOM      3  C3  SGN B   1      28.937   7.768  13.8030  0.00  0.00     0.000 C
ATOM      4  C4  SGN B   1      30.018   7.862  12.7320  0.00  0.00     0.000 C
ATOM      5  C5  SGN B   1      30.396   9.328  12.5300  0.00  0.00     0.000 C
ATOM      6  O5  SGN B   1      29.214  10.092  12.2230  0.00  0.00     0.000 O
ATOM      7   O  SGN B   1      28.448   6.436  13.9030  0.00  0.00     0.000 O
ATOM      9  HD  SGN B   1      28.246   6.636  13.0850  0.00  0.00     0.000 HD
ATOM      9   O  SGN B   1      31.151   7.118  13.1410  0.00  0.00     0.000 O
ATOM     11  HD  SGN B   1      30.950   7.318  12.3220  0.00  0.00     0.000 HD
ENDROOT
BRANCH 2 13
ATOM     11   N  SGN B   1      26.425   9.229  13.2360  0.00  0.00     0.000 N
ATOM     13  HD  SGN B   1      26.813   9.376  13.9960  0.00  0.00     0.000 HD
ATOM     13   S  SGN B   1      25.354   9.431  14.4200  0.00  0.00     0.000 S
ATOM     14   O  SGN B   1      25.944   9.126  15.6650  0.00  0.00     0.000 OA
ATOM     15   O  SGN B   1      24.714  10.690  14.2380  0.00  0.00     0.000 OA
ATOM     16   O  SGN B   1      24.336   8.330  13.9890  0.00  0.00     0.000 OA
ENDBRANCH 2 13
BRANCH 5 17
ATOM     17   C  SGN B   1      31.383   9.560  11.4130  0.00  0.00     0.000 C
ATOM     18   O  SGN B   1      30.830   9.157  10.1450  0.00  0.00     0.000 O
ATOM     19   S  SGN B   1      31.792   8.297   9.2010  0.00  0.00     0.000 S
ATOM     20   O  SGN B   1      31.105   8.228   7.9280  0.00  0.00     0.000 OA
ATOM     21   O  SGN B   1      33.017   9.061   9.1560  0.00  0.00     0.000 OA
ATOM     22   O  SGN B   1      31.921   7.016   9.8600  0.00  0.00     0.000 OA
ENDBRANCH 5 17
BRANCH 1 23
ATOM     23  O4  IDS B   2      28.576  11.291  14.0700  0.00  0.00     0.000 O
BRANCH 23 27
ATOM     24  C1  IDS B   2      26.910  14.775  15.5930  0.00  0.00     0.000 C
ATOM     25  C2  IDS B   2      26.427  14.365  14.1850  0.00  0.00     0.000 C
ATOM     26  C3  IDS B   2      26.863  12.941  13.8510  0.00  0.00     0.000 C
ATOM     27  C4  IDS B   2      28.363  12.716  13.9920  0.00  0.00     0.000 C
ATOM     28  C5  IDS B   2      28.903  13.509  15.2000  0.00  0.00     0.000 C
ATOM     29  O5  IDS B   2      27.857  13.828  16.1060  0.00  0.00     0.000 O
ATOM     30   O  IDS B   2      26.510  12.646  12.5050  0.00  0.00     0.000 O
ATOM     32  HD  IDS B   2      27.059  12.982  11.9260  0.00  0.00     0.000 HD
BRANCH 25 32
ATOM     32   O  IDS B   2      24.950  14.422  14.0600  0.00  0.00     0.000 O
ATOM     33   S  IDS B   2      24.189  15.662  13.2800  0.00  0.00     0.000 S
ATOM     34   O  IDS B   2      22.769  15.500  13.5520  0.00  0.00     0.000 OA
ATOM     35   O  IDS B   2      24.686  16.932  13.7890  0.00  0.00     0.000 OA
ATOM     36   O  IDS B   2      24.480  15.478  11.8770  0.00  0.00     0.000 OA
ENDBRANCH 25 32
BRANCH 28 37
ATOM     37   C  IDS B   2      30.069  12.894  16.0020  0.00  0.00     0.000 C
ATOM     38   O  IDS B   2      30.035  13.186  17.1740  0.00  0.00     0.000 OA
ATOM     39   O  IDS B   2      30.953  12.114  15.5710  0.00  0.00     0.000 OA
ENDBRANCH 28 37
BRANCH 24 40
ATOM     40  O4  SUS B   3      26.681  16.025  16.0460  0.00  0.00     0.000 O
BRANCH 40 44
ATOM     41  C1  SUS B   3      25.693  17.135  19.9620  0.00  0.00     0.000 C
ATOM     42  C2  SUS B   3      27.093  17.530  19.4500  0.00  0.00     0.000 C
ATOM     43  C3  SUS B   3      27.099  17.489  17.9230  0.00  0.00     0.000 C
ATOM     44  C4  SUS B   3      26.638  16.114  17.4660  0.00  0.00     0.000 C
ATOM     45  C5  SUS B   3      25.223  15.884  17.9530  0.00  0.00     0.000 C
ATOM     46  O5  SUS B   3      25.235  15.903  19.3950  0.00  0.00     0.000 O
BRANCH 42 49
ATOM     47   N  SUS B   3      27.355  18.783  20.1770  0.00  0.00     0.000 N
ATOM     49  HD  SUS B   3      27.437  19.499  19.6960  0.00  0.00     0.000 HD
ATOM     49   S  SUS B   3      28.629  18.683  21.1420  0.00  0.00     0.000 S
ATOM     50   O  SUS B   3      29.769  18.321  20.3960  0.00  0.00     0.000 OA
ATOM     51   O  SUS B   3      28.682  20.184  21.5270  0.00  0.00     0.000 OA
ATOM     52   O  SUS B   3      28.305  17.893  22.2630  0.00  0.00     0.000 OA
ENDBRANCH 42 49
BRANCH 43 53
ATOM     53   O  SUS B   3      28.482  17.732  17.4680  0.00  0.00     0.000 O
ATOM     54   S  SUS B   3      28.785  19.167  16.7260  0.00  0.00     0.000 S
ATOM     55   O  SUS B   3      28.722  20.207  17.7440  0.00  0.00     0.000 OA
ATOM     56   O  SUS B   3      30.105  18.992  16.1480  0.00  0.00     0.000 OA
ATOM     57   O  SUS B   3      27.733  19.345  15.7200  0.00  0.00     0.000 OA
ENDBRANCH 43 53
BRANCH 45 58
ATOM     58   C  SUS B   3      24.656  14.573  17.4520  0.00  0.00     0.000 C
ATOM     59   S  SUS B   3      24.267  12.132  18.1390  0.00  0.00     0.000 S
ATOM     60   O  SUS B   3      24.627  13.623  18.5300  0.00  0.00     0.000 O
ATOM     61   O  SUS B   3      25.481  11.587  17.5610  0.00  0.00     0.000 OA
ATOM     62   O  SUS B   3      23.971  11.579  19.4330  0.00  0.00     0.000 OA
ATOM     63   O  SUS B   3      23.162  12.228  17.2520  0.00  0.00     0.000 OA
ENDBRANCH 45 58
BRANCH 41 64
ATOM     64  O4  IDS B   4      24.775  18.155  19.9060  0.00  0.00     0.000 O
BRANCH 64 68
ATOM     65  C1  IDS B   4      22.249  19.661  22.0580  0.00  0.00     0.000 C
ATOM     66  C2  IDS B   4      23.196  18.589  22.6120  0.00  0.00     0.000 C
ATOM     67  C3  IDS B   4      23.353  17.369  21.7200  0.00  0.00     0.000 C
ATOM     68  C4  IDS B   4      23.440  17.722  20.2470  0.00  0.00     0.000 C
ATOM     69  C5  IDS B   4      22.361  18.771  19.9440  0.00  0.00     0.000 C
ATOM     70  O5  IDS B   4      22.615  19.945  20.7190  0.00  0.00     0.000 O
ATOM     71   O  IDS B   4      22.234  16.536  21.9460  0.00  0.00     0.000 O
ATOM     73  HD  IDS B   4      22.791  17.175  22.1280  0.00  0.00     0.000 HD
BRANCH 66 73
ATOM     73   O  IDS B   4      24.543  19.163  22.7300  0.00  0.00     0.000 O
ATOM     74   S  IDS B   4      25.143  19.388  24.2160  0.00  0.00     0.000 S
ATOM     75   O  IDS B   4      24.194  20.226  24.9180  0.00  0.00     0.000 OA
ATOM     76   O  IDS B   4      26.400  20.035  23.9330  0.00  0.00     0.000 OA
ATOM     77   O  IDS B   4      25.270  18.068  24.7850  0.00  0.00     0.000 OA
ENDBRANCH 66 73
BRANCH 69 78
ATOM     78   C  IDS B   4      22.172  19.069  18.4630  0.00  0.00     0.000 C
ATOM     79   O  IDS B   4      22.752  18.362  17.6390  0.00  0.00     0.000 OA
ATOM     80   O  IDS B   4      21.355  19.948  18.1310  0.00  0.00     0.000 OA
ENDBRANCH 69 78
BRANCH 65 81
ATOM     81  O4  SGN B   5      20.959  19.282  22.2740  0.00  0.00     0.000 O
BRANCH 81 85
ATOM     82  C1  SGN B   5      17.199  20.743  23.4400  0.00  0.00     0.000 C
ATOM     83  C2  SGN B   5      17.523  20.771  21.9390  0.00  0.00     0.000 C
ATOM     84  C3  SGN B   5      18.682  19.808  21.6460  0.00  0.00     0.000 C
ATOM     85  C4  SGN B   5      19.869  20.172  22.5210  0.00  0.00     0.000 C
ATOM     86  C5  SGN B   5      19.433  20.086  23.9810  0.00  0.00     0.000 C
ATOM     87  O5  SGN B   5      18.360  21.023  24.1990  0.00  0.00     0.000 O
ATOM     88   O  SGN B   5      19.024  19.871  20.2790  0.00  0.00     0.000 O
ATOM     90  HD  SGN B   5      18.553  19.246  20.6510  0.00  0.00     0.000 HD
BRANCH 83 92
ATOM     90   N  SGN B   5      16.936  21.900  21.1910  0.00  0.00     0.000 N
ATOM     92  HD  SGN B   5      17.516  22.250  20.6510  0.00  0.00     0.000 HD
ATOM     92   S  SGN B   5      15.469  21.718  20.5850  0.00  0.00     0.000 S
ATOM     93   O  SGN B   5      15.200  22.962  19.9280  0.00  0.00     0.000 OA
ATOM     94   O  SGN B   5      15.509  20.509  19.8340  0.00  0.00     0.000 OA
ATOM     95   O  SGN B   5      14.584  21.473  21.7870  0.00  0.00     0.000 OA
ENDBRANCH 83 92
BRANCH 86 96
ATOM     96   C  SGN B   5      20.527  20.414  24.9760  0.00  0.00     0.000 C
ATOM     97   O  SGN B   5      21.260  21.567  24.5540  0.00  0.00     0.000 O
ATOM     98   S  SGN B   5      21.442  22.727  25.6470  0.00  0.00     0.000 S
ATOM     99   O  SGN B   5      22.370  23.626  25.0040  0.00  0.00     0.000 OA
ATOM    100   O  SGN B   5      20.160  23.280  25.8980  0.00  0.00     0.000 OA
ATOM    101   O  SGN B   5      21.993  22.061  26.7820  0.00  0.00     0.000 OA
ENDBRANCH 86 96
BRANCH 82 102
ATOM    102  O4  IDS B   6      16.647  19.561  23.8360  0.00  0.00     0.000 O
BRANCH 102 106
ATOM    103  C1  IDS B   6      13.926  17.518  25.1310  0.00  0.00     0.000 C
ATOM    104  C2  IDS B   6      13.648  18.664  24.1450  0.00  0.00     0.000 C
ATOM    105  C3  IDS B   6      14.334  19.976  24.4740  0.00  0.00     0.000 C
ATOM    106  C4  IDS B   6      15.760  19.786  24.9610  0.00  0.00     0.000 C
ATOM    107  C5  IDS B   6      15.819  18.614  25.9440  0.00  0.00     0.000 C
ATOM    108  O5  IDS B   6      15.317  17.408  25.3660  0.00  0.00     0.000 O
ATOM    109   O  IDS B   6      13.554  20.649  25.4480  0.00  0.00     0.000 O
ATOM    111  HD  IDS B   6      13.102  20.015  25.8280  0.00  0.00     0.000 HD
BRANCH 104 111
ATOM    111   O  IDS B   6      14.152  18.284  22.8160  0.00  0.00     0.000 O
ATOM    112   S  IDS B   6      13.082  17.965  21.6680  0.00  0.00     0.000 S
ATOM    113   O  IDS B   6      12.284  16.874  22.2050  0.00  0.00     0.000 OA
ATOM    114   O  IDS B   6      12.329  19.192  21.3810  0.00  0.00     0.000 OA
ATOM    115   O  IDS B   6      13.986  17.567  20.6110  0.00  0.00     0.000 OA
ENDBRANCH 104 111
BRANCH 107 116
ATOM    116   C  IDS B   6      17.259  18.409  26.3980  0.00  0.00     0.000 C
ATOM    117   O  IDS B   6      17.733  17.316  26.2180  0.00  0.00     0.000 OA
ATOM    118   O  IDS B   6      17.892  19.309  26.9260  0.00  0.00     0.000 OA
ENDBRANCH 107 116
BRANCH 103 119
ATOM    119  O4  SGN B   7      13.054  17.750  26.1460  0.00  0.00     0.000 O
BRANCH 119 123
ATOM    120  C1  SGN B   7      11.027  15.419  28.9650  0.00  0.00     0.000 C
ATOM    121  C2  SGN B   7      12.562  15.305  28.9170  0.00  0.00     0.000 C
ATOM    122  C3  SGN B   7      13.165  16.485  28.1430  0.00  0.00     0.000 C
ATOM    123  C4  SGN B   7      12.512  16.587  26.7740  0.00  0.00     0.000 C
ATOM    124  C5  SGN B   7      10.986  16.689  26.9290  0.00  0.00     0.000 C
ATOM    125  O5  SGN B   7      10.462  15.559  27.6620  0.00  0.00     0.000 O
ATOM    126   O  SGN B   7      14.580  16.296  28.0330  0.00  0.00     0.000 O
ATOM    128  HD  SGN B   7      13.830  16.047  28.3880  0.00  0.00     0.000 HD
BRANCH 121 130
ATOM    128   N  SGN B   7      12.977  14.010  29.4610  0.00  0.00     0.000 N
ATOM    130  HD  SGN B   7      13.808  14.248  29.4150  0.00  0.00     0.000 HD
ATOM    130   S  SGN B   7      13.530  13.845  30.9640  0.00  0.00     0.000 S
ATOM    131   O  SGN B   7      12.568  14.496  31.7870  0.00  0.00     0.000 OA
ATOM    132   O  SGN B   7      13.849  12.480  31.1760  0.00  0.00     0.000 OA
ATOM    133   O  SGN B   7      14.917  14.560  30.8330  0.00  0.00     0.000 OA
ENDBRANCH 121 130
BRANCH 124 134
ATOM    134   C  SGN B   7      10.241  16.679  25.6270  0.00  0.00     0.000 C
ATOM    135   O  SGN B   7       8.832  16.624  25.9050  0.00  0.00     0.000 O
ATOM    136   S  SGN B   7       7.869  16.760  24.6720  0.00  0.00     0.000 S
ATOM    137   O  SGN B   7       6.531  16.573  25.1790  0.00  0.00     0.000 OA
ATOM    138   O  SGN B   7       8.277  15.718  23.7570  0.00  0.00     0.000 OA
ATOM    139   O  SGN B   7       8.143  18.111  24.2080  0.00  0.00     0.000 OA
ENDBRANCH 124 134
BRANCH 120 140
ATOM    140  O4  IDS B   8      10.288  16.327  29.6120  0.00  0.00     0.000 O
BRANCH 140 144
ATOM    141  C1  IDS B   8       8.860  19.375  30.8890  0.00  0.00     0.000 C
ATOM    142  C2  IDS B   8      10.401  19.174  30.8380  0.00  0.00     0.000 C
ATOM    143  C3  IDS B   8      10.853  17.824  31.4250  0.00  0.00     0.000 C
ATOM    144  C4  IDS B   8       9.963  16.672  30.9640  0.00  0.00     0.000 C
ATOM    145  C5  IDS B   8       8.483  17.073  31.0650  0.00  0.00     0.000 C
ATOM    146  O5  IDS B   8       8.204  18.252  30.3140  0.00  0.00     0.000 O
BRANCH 142 147
ATOM    147   O  IDS B   8      10.861  19.215  29.4250  0.00  0.00     0.000 O
ATOM    148   S  IDS B   8      11.869  20.376  28.9070  0.00  0.00     0.000 S
ATOM    149   O  IDS B   8      11.856  21.438  29.8870  0.00  0.00     0.000 OA
ATOM    150   O  IDS B   8      13.166  19.737  28.7880  0.00  0.00     0.000 OA
ATOM    151   O  IDS B   8      11.329  20.809  27.6320  0.00  0.00     0.000 OA
ENDBRANCH 142 147
BRANCH 145 152
ATOM    152   C  IDS B   8       7.552  16.006  30.5270  0.00  0.00     0.000 C
ATOM    153   O  IDS B   8       6.614  16.329  29.8070  0.00  0.00     0.000 OA
ATOM    154   O  IDS B   8       7.756  14.836  30.7990  0.00  0.00     0.000 OA
ENDBRANCH 145 152
ENDBRANCH 140 144
ENDBRANCH 120 140
ENDBRANCH 119 123
ENDBRANCH 103 119
ENDBRANCH 102 106
ENDBRANCH 82 102
ENDBRANCH 81 85
ENDBRANCH 65 81
ENDBRANCH 64 68
ENDBRANCH 41 64
ENDBRANCH 40 44
ENDBRANCH 24 40
ENDBRANCH 23 27
ENDBRANCH 1 23
TORSDOF 31
ENDMDL
MODEL 9
REMARK VINA RESULT:      -8.2      2.231      4.277
ROOT
ATOM      1  C1  SGN B   1      29.275  12.718  13.1970  0.00  0.00     0.000 C
ATOM      2  C2  SGN B   1      29.991  11.847  14.2420  0.00  0.00     0.000 C
ATOM      3  C3  SGN B   1      29.729  12.373  15.6580  0.00  0.00     0.000 C
ATOM      4  C4  SGN B   1      30.141  13.838  15.7590  0.00  0.00     0.000 C
ATOM      5  C5  SGN B   1      29.507  14.615  14.6070  0.00  0.00     0.000 C
ATOM      6  O5  SGN B   1      29.868  14.000  13.3550  0.00  0.00     0.000 O
ATOM      7   O  SGN B   1      30.429  11.591  16.6190  0.00  0.00     0.000 O
ATOM      9  HD  SGN B   1      31.079  11.904  16.1400  0.00  0.00     0.000 HD
ATOM      9   O  SGN B   1      29.707  14.364  17.0000  0.00  0.00     0.000 O
ATOM     11  HD  SGN B   1      30.358  14.677  16.5210  0.00  0.00     0.000 HD
ENDROOT
BRANCH 2 13
ATOM     11   N  SGN B   1      30.666  10.776  13.4850  0.00  0.00     0.000 N
ATOM     13  HD  SGN B   1      29.843  10.984  13.3130  0.00  0.00     0.000 HD
ATOM     13   S  SGN B   1      29.862   9.541  12.8400  0.00  0.00     0.000 S
ATOM     14   O  SGN B   1      28.478   9.689  13.0700  0.00  0.00     0.000 OA
ATOM     15   O  SGN B   1      30.333   9.341  11.5110  0.00  0.00     0.000 OA
ATOM     16   O  SGN B   1      30.464   8.400  13.7170  0.00  0.00     0.000 OA
ENDBRANCH 2 13
BRANCH 5 17
ATOM     17   C  SGN B   1      29.929  16.061  14.5360  0.00  0.00     0.000 C
ATOM     18   O  SGN B   1      29.606  16.753  15.7590  0.00  0.00     0.000 O
ATOM     19   S  SGN B   1      28.926  18.191  15.5930  0.00  0.00     0.000 S
ATOM     20   O  SGN B   1      28.923  18.760  16.9240  0.00  0.00     0.000 OA
ATOM     21   O  SGN B   1      29.793  18.886  14.6700  0.00  0.00     0.000 OA
ATOM     22   O  SGN B   1      27.603  17.926  15.0730  0.00  0.00     0.000 OA
ENDBRANCH 5 17
BRANCH 1 23
ATOM     23  O4  IDS B   2      28.083  12.813  12.5420  0.00  0.00     0.000 O
BRANCH 23 27
ATOM     24  C1  IDS B   2      25.200  14.610  14.9270  0.00  0.00     0.000 C
ATOM     25  C2  IDS B   2      25.146  13.067  14.8630  0.00  0.00     0.000 C
ATOM     26  C3  IDS B   2      26.407  12.504  14.2150  0.00  0.00     0.000 C
ATOM     27  C4  IDS B   2      26.699  13.090  12.8400  0.00  0.00     0.000 C
ATOM     28  C5  IDS B   2      26.328  14.586  12.8170  0.00  0.00     0.000 C
ATOM     29  O5  IDS B   2      26.279  15.118  14.1320  0.00  0.00     0.000 O
ATOM     30   O  IDS B   2      26.266  11.096  14.0610  0.00  0.00     0.000 O
ATOM     32  HD  IDS B   2      25.781  10.874  13.3790  0.00  0.00     0.000 HD
BRANCH 25 32
ATOM     32   O  IDS B   2      25.019  12.454  16.2080  0.00  0.00     0.000 O
ATOM     33   S  IDS B   2      23.789  11.420  16.5820  0.00  0.00     0.000 S
ATOM     34   O  IDS B   2      23.862  11.207  18.0190  0.00  0.00     0.000 OA
ATOM     35   O  IDS B   2      22.519  12.018  16.1960  0.00  0.00     0.000 OA
ATOM     36   O  IDS B   2      24.068  10.203  15.8560  0.00  0.00     0.000 OA
ENDBRANCH 25 32
BRANCH 28 37
ATOM     37   C  IDS B   2      27.185  15.527  11.9450  0.00  0.00     0.000 C
ATOM     38   O  IDS B   2      27.336  15.113  10.8190  0.00  0.00     0.000 OA
ATOM     39   O  IDS B   2      27.651  16.646  12.2730  0.00  0.00     0.000 OA
ENDBRANCH 28 37
BRANCH 24 40
ATOM     40  O4  SUS B   3      24.144  15.300  15.4060  0.00  0.00     0.000 O
BRANCH 40 44
ATOM     41  C1  SUS B   3      24.004  18.876  17.5840  0.00  0.00     0.000 C
ATOM     42  C2  SUS B   3      24.375  18.974  16.0900  0.00  0.00     0.000 C
ATOM     43  C3  SUS B   3      23.916  17.706  15.3740  0.00  0.00     0.000 C
ATOM     44  C4  SUS B   3      24.512  16.499  16.0810  0.00  0.00     0.000 C
ATOM     45  C5  SUS B   3      24.001  16.464  17.5060  0.00  0.00     0.000 C
ATOM     46  O5  SUS B   3      24.459  17.655  18.1780  0.00  0.00     0.000 O
BRANCH 42 49
ATOM     47   N  SUS B   3      23.872  20.161  15.3770  0.00  0.00     0.000 N
ATOM     49  HD  SUS B   3      23.521  20.024  14.5980  0.00  0.00     0.000 HD
ATOM     49   S  SUS B   3      24.979  21.309  15.2300  0.00  0.00     0.000 S
ATOM     50   O  SUS B   3      26.112  20.800  14.5630  0.00  0.00     0.000 OA
ATOM     51   O  SUS B   3      24.159  22.230  14.2910  0.00  0.00     0.000 OA
ATOM     52   O  SUS B   3      25.181  21.926  16.4810  0.00  0.00     0.000 OA
ENDBRANCH 42 49
BRANCH 43 53
ATOM     53   O  SUS B   3      24.408  17.767  13.9830  0.00  0.00     0.000 O
ATOM     54   S  SUS B   3      23.291  17.620  12.7860  0.00  0.00     0.000 S
ATOM     55   O  SUS B   3      22.501  18.843  12.7740  0.00  0.00     0.000 OA
ATOM     56   O  SUS B   3      24.085  17.423  11.5870  0.00  0.00     0.000 OA
ATOM     57   O  SUS B   3      22.465  16.458  13.1290  0.00  0.00     0.000 OA
ENDBRANCH 43 53
BRANCH 45 58
ATOM     58   C  SUS B   3      24.471  15.232  18.2470  0.00  0.00     0.000 C
ATOM     59   S  SUS B   3      24.532  14.161  20.5790  0.00  0.00     0.000 S
ATOM     60   O  SUS B   3      23.964  15.262  19.5920  0.00  0.00     0.000 O
ATOM     61   O  SUS B   3      25.848  14.637  20.9600  0.00  0.00     0.000 OA
ATOM     62   O  SUS B   3      23.578  14.246  21.6520  0.00  0.00     0.000 OA
ATOM     63   O  SUS B   3      24.514  12.946  19.8440  0.00  0.00     0.000 OA
ENDBRANCH 45 58
BRANCH 41 64
ATOM     64  O4  IDS B   4      22.689  19.173  17.8470  0.00  0.00     0.000 O
BRANCH 64 68
ATOM     65  C1  IDS B   4      20.361  21.128  19.8560  0.00  0.00     0.000 C
ATOM     66  C2  IDS B   4      21.835  21.540  19.7620  0.00  0.00     0.000 C
ATOM     67  C3  IDS B   4      22.820  20.398  19.9470  0.00  0.00     0.000 C
ATOM     68  C4  IDS B   4      22.378  19.121  19.2570  0.00  0.00     0.000 C
ATOM     69  C5  IDS B   4      20.886  18.914  19.5470  0.00  0.00     0.000 C
ATOM     70  O5  IDS B   4      20.145  20.012  19.0100  0.00  0.00     0.000 O
ATOM     71   O  IDS B   4      22.943  20.172  21.3370  0.00  0.00     0.000 O
ATOM     73  HD  IDS B   4      22.733  20.623  20.6280  0.00  0.00     0.000 HD
BRANCH 66 73
ATOM     73   O  IDS B   4      22.095  22.066  18.4150  0.00  0.00     0.000 O
ATOM     74   S  IDS B   4      22.077  23.671  18.2100  0.00  0.00     0.000 S
ATOM     75   O  IDS B   4      20.783  24.128  18.6690  0.00  0.00     0.000 OA
ATOM     76   O  IDS B   4      22.271  23.790  16.7870  0.00  0.00     0.000 OA
ATOM     77   O  IDS B   4      23.174  24.172  19.0030  0.00  0.00     0.000 OA
ENDBRANCH 66 73
BRANCH 69 78
ATOM     78   C  IDS B   4      20.341  17.561  19.1070  0.00  0.00     0.000 C
ATOM     79   O  IDS B   4      21.133  16.705  18.7130  0.00  0.00     0.000 OA
ATOM     80   O  IDS B   4      19.128  17.329  19.2610  0.00  0.00     0.000 OA
ENDBRANCH 69 78
BRANCH 65 81
ATOM     81  O4  SGN B   5      20.014  20.982  21.1650  0.00  0.00     0.000 O
BRANCH 81 85
ATOM     82  C1  SGN B   5      16.612  20.900  23.6260  0.00  0.00     0.000 C
ATOM     83  C2  SGN B   5      16.423  20.478  22.1610  0.00  0.00     0.000 C
ATOM     84  C3  SGN B   5      17.785  20.120  21.5510  0.00  0.00     0.000 C
ATOM     85  C4  SGN B   5      18.733  21.295  21.7170  0.00  0.00     0.000 C
ATOM     86  C5  SGN B   5      18.857  21.604  23.2070  0.00  0.00     0.000 C
ATOM     87  O5  SGN B   5      17.556  21.950  23.7170  0.00  0.00     0.000 O
ATOM     88   O  SGN B   5      17.628  19.787  20.1890  0.00  0.00     0.000 O
ATOM     90  HD  SGN B   5      17.730  19.220  20.8360  0.00  0.00     0.000 HD
BRANCH 83 92
ATOM     90   N  SGN B   5      15.081  20.241  22.7280  0.00  0.00     0.000 N
ATOM     92  HD  SGN B   5      14.859  20.873  23.2760  0.00  0.00     0.000 HD
ATOM     92   S  SGN B   5      13.921  19.766  21.7370  0.00  0.00     0.000 S
ATOM     93   O  SGN B   5      12.769  19.634  22.5770  0.00  0.00     0.000 OA
ATOM     94   O  SGN B   5      13.919  20.705  20.6670  0.00  0.00     0.000 OA
ATOM     95   O  SGN B   5      14.407  18.447  21.1790  0.00  0.00     0.000 OA
ENDBRANCH 83 92
BRANCH 86 96
ATOM     96   C  SGN B   5      19.788  22.755  23.5270  0.00  0.00     0.000 C
ATOM     97   O  SGN B   5      20.554  22.471  24.7000  0.00  0.00     0.000 O
ATOM     98   S  SGN B   5      22.140  22.671  24.5740  0.00  0.00     0.000 S
ATOM     99   O  SGN B   5      22.589  22.512  25.9360  0.00  0.00     0.000 OA
ATOM    100   O  SGN B   5      22.623  21.687  23.6730  0.00  0.00     0.000 OA
ATOM    101   O  SGN B   5      22.292  24.001  24.0800  0.00  0.00     0.000 OA
ENDBRANCH 86 96
BRANCH 82 102
ATOM    102  O4  IDS B   6      16.979  19.861  24.4280  0.00  0.00     0.000 O
BRANCH 102 106
ATOM    103  C1  IDS B   6      15.909  17.793  27.2270  0.00  0.00     0.000 C
ATOM    104  C2  IDS B   6      14.889  18.612  26.4200  0.00  0.00     0.000 C
ATOM    105  C3  IDS B   6      15.282  20.054  26.1630  0.00  0.00     0.000 C
ATOM    106  C4  IDS B   6      16.752  20.209  25.8170  0.00  0.00     0.000 C
ATOM    107  C5  IDS B   6      17.597  19.330  26.7440  0.00  0.00     0.000 C
ATOM    108  O5  IDS B   6      17.204  17.958  26.6820  0.00  0.00     0.000 O
ATOM    109   O  IDS B   6      14.953  20.813  27.3150  0.00  0.00     0.000 O
ATOM    111  HD  IDS B   6      14.933  20.227  27.9520  0.00  0.00     0.000 HD
BRANCH 104 111
ATOM    111   O  IDS B   6      14.737  18.008  25.0880  0.00  0.00     0.000 O
ATOM    112   S  IDS B   6      13.573  16.928  24.8790  0.00  0.00     0.000 S
ATOM    113   O  IDS B   6      13.867  15.882  25.8460  0.00  0.00     0.000 OA
ATOM    114   O  IDS B   6      12.281  17.595  25.0720  0.00  0.00     0.000 OA
ATOM    115   O  IDS B   6      13.845  16.553  23.5080  0.00  0.00     0.000 OA
ENDBRANCH 104 111
BRANCH 107 116
ATOM    116   C  IDS B   6      19.066  19.464  26.3660  0.00  0.00     0.000 C
ATOM    117   O  IDS B   6      19.625  20.473  26.7130  0.00  0.00     0.000 OA
ATOM    118   O  IDS B   6      19.641  18.593  25.7330  0.00  0.00     0.000 OA
ENDBRANCH 107 116
BRANCH 103 119
ATOM    119  O4  SGN B   7      15.638  18.124  28.5160  0.00  0.00     0.000 O
BRANCH 119 123
ATOM    120  C1  SGN B   7      15.641  16.125  32.1900  0.00  0.00     0.000 C
ATOM    121  C2  SGN B   7      16.950  16.805  31.7460  0.00  0.00     0.000 C
ATOM    122  C3  SGN B   7      16.680  17.808  30.6170  0.00  0.00     0.000 C
ATOM    123  C4  SGN B   7      15.931  17.120  29.4880  0.00  0.00     0.000 C
ATOM    124  C5  SGN B   7      14.648  16.469  30.0320  0.00  0.00     0.000 C
ATOM    125  O5  SGN B   7      14.950  15.533  31.0910  0.00  0.00     0.000 O
ATOM    126   O  SGN B   7      17.927  18.346  30.1640  0.00  0.00     0.000 O
ATOM    128  HD  SGN B   7      17.499  17.877  30.7520  0.00  0.00     0.000 HD
BRANCH 121 130
ATOM    128   N  SGN B   7      17.987  16.094  32.4980  0.00  0.00     0.000 N
ATOM    130  HD  SGN B   7      18.602  16.559  32.1030  0.00  0.00     0.000 HD
ATOM    130   S  SGN B   7      18.807  16.788  33.6980  0.00  0.00     0.000 S
ATOM    131   O  SGN B   7      17.815  17.355  34.5470  0.00  0.00     0.000 OA
ATOM    132   O  SGN B   7      19.734  15.844  34.2100  0.00  0.00     0.000 OA
ATOM    133   O  SGN B   7      19.683  17.804  32.8900  0.00  0.00     0.000 OA
ENDBRANCH 121 130
BRANCH 124 134
ATOM    134   C  SGN B   7      13.896  15.665  29.0130  0.00  0.00     0.000 C
ATOM    135   O  SGN B   7      12.616  15.309  29.5640  0.00  0.00     0.000 O
ATOM    136   S  SGN B   7      11.611  14.592  28.5930  0.00  0.00     0.000 S
ATOM    137   O  SGN B   7      10.457  14.246  29.3870  0.00  0.00     0.000 OA
ATOM    138   O  SGN B   7      12.323  13.436  28.0980  0.00  0.00     0.000 OA
ATOM    139   O  SGN B   7      11.357  15.617  27.5930  0.00  0.00     0.000 OA
ENDBRANCH 124 134
BRANCH 120 140
ATOM    140  O4  IDS B   8      14.598  16.678  32.8190  0.00  0.00     0.000 O
BRANCH 140 144
ATOM    141  C1  IDS B   8      12.170  19.218  33.6010  0.00  0.00     0.000 C
ATOM    142  C2  IDS B   8      13.632  19.597  33.2300  0.00  0.00     0.000 C
ATOM    143  C3  IDS B   8      14.682  18.783  34.0080  0.00  0.00     0.000 C
ATOM    144  C4  IDS B   8      14.319  17.300  34.0790  0.00  0.00     0.000 C
ATOM    145  C5  IDS B   8      12.833  17.134  34.4320  0.00  0.00     0.000 C
ATOM    146  O5  IDS B   8      11.992  17.811  33.5010  0.00  0.00     0.000 O
BRANCH 142 147
ATOM    147   O  IDS B   8      13.859  19.340  31.7840  0.00  0.00     0.000 O
ATOM    148   S  IDS B   8      13.777  20.543  30.6980  0.00  0.00     0.000 S
ATOM    149   O  IDS B   8      13.101  21.655  31.3260  0.00  0.00     0.000 OA
ATOM    150   O  IDS B   8      15.153  20.845  30.3510  0.00  0.00     0.000 OA
ATOM    151   O  IDS B   8      13.016  20.003  29.5880  0.00  0.00     0.000 OA
ENDBRANCH 142 147
BRANCH 145 152
ATOM    152   C  IDS B   8      12.389  15.686  34.4200  0.00  0.00     0.000 C
ATOM    153   O  IDS B   8      12.118  15.146  33.3540  0.00  0.00     0.000 OA
ATOM    154   O  IDS B   8      12.326  15.067  35.4670  0.00  0.00     0.000 OA
ENDBRANCH 145 152
ENDBRANCH 140 144
ENDBRANCH 120 140
ENDBRANCH 119 123
ENDBRANCH 103 119
ENDBRANCH 102 106
ENDBRANCH 82 102
ENDBRANCH 81 85
ENDBRANCH 65 81
ENDBRANCH 64 68
ENDBRANCH 41 64
ENDBRANCH 40 44
ENDBRANCH 24 40
ENDBRANCH 23 27
ENDBRANCH 1 23
TORSDOF 31
ENDMDL
MODEL 10
REMARK VINA RESULT:      -8.0      2.719      4.700
ROOT
ATOM      1  C1  SGN B   1      28.952  14.205  12.6300  0.00  0.00     0.000 C
ATOM      2  C2  SGN B   1      29.649  13.535  13.8250  0.00  0.00     0.000 C
ATOM      3  C3  SGN B   1      29.680  14.477  15.0340  0.00  0.00     0.000 C
ATOM      4  C4  SGN B   1      30.342  15.798  14.6540  0.00  0.00     0.000 C
ATOM      5  C5  SGN B   1      29.694  16.333  13.3800  0.00  0.00     0.000 C
ATOM      6  O5  SGN B   1      29.768  15.333  12.3450  0.00  0.00     0.000 O
ATOM      7   O  SGN B   1      30.364  13.870  16.1230  0.00  0.00     0.000 O
ATOM      9  HD  SGN B   1      30.985  13.899  15.5200  0.00  0.00     0.000 HD
ATOM      9   O  SGN B   1      30.181  16.725  15.7110  0.00  0.00     0.000 O
ATOM     11  HD  SGN B   1      30.801  16.754  15.1080  0.00  0.00     0.000 HD
ENDROOT
BRANCH 2 13
ATOM     11   N  SGN B   1      29.680  12.091  14.1260  0.00  0.00     0.000 N
ATOM     13  HD  SGN B   1      29.599  12.369  13.3090  0.00  0.00     0.000 HD
ATOM     13   S  SGN B   1      28.940  11.004  13.1980  0.00  0.00     0.000 S
ATOM     14   O  SGN B   1      28.342  11.639  12.0890  0.00  0.00     0.000 OA
ATOM     15   O  SGN B   1      29.830   9.913  12.9840  0.00  0.00     0.000 OA
ATOM     16   O  SGN B   1      27.867  10.528  14.2250  0.00  0.00     0.000 OA
ENDBRANCH 2 13
BRANCH 5 17
ATOM     17   C  SGN B   1      30.340  17.586  12.8420  0.00  0.00     0.000 C
ATOM     18   O  SGN B   1      30.403  17.555  11.4020  0.00  0.00     0.000 O
ATOM     19   S  SGN B   1      31.795  17.998  10.7510  0.00  0.00     0.000 S
ATOM     20   O  SGN B   1      31.527  18.107   9.3320  0.00  0.00     0.000 OA
ATOM     21   O  SGN B   1      32.092  19.263  11.3820  0.00  0.00     0.000 OA
ATOM     22   O  SGN B   1      32.722  16.941  11.0860  0.00  0.00     0.000 OA
ENDBRANCH 5 17
BRANCH 1 23
ATOM     23  O4  IDS B   2      27.714  14.352  12.0790  0.00  0.00     0.000 O
BRANCH 23 27
ATOM     24  C1  IDS B   2      24.998  15.771  14.8790  0.00  0.00     0.000 C
ATOM     25  C2  IDS B   2      24.947  14.251  14.6110  0.00  0.00     0.000 C
ATOM     26  C3  IDS B   2      26.162  13.797  13.8070  0.00  0.00     0.000 C
ATOM     27  C4  IDS B   2      26.353  14.566  12.5070  0.00  0.00     0.000 C
ATOM     28  C5  IDS B   2      25.975  16.047  12.7120  0.00  0.00     0.000 C
ATOM     29  O5  IDS B   2      26.016  16.396  14.0870  0.00  0.00     0.000 O
ATOM     30   O  IDS B   2      26.016  12.421  13.4740  0.00  0.00     0.000 O
ATOM     32  HD  IDS B   2      25.485  12.286  12.8040  0.00  0.00     0.000 HD
BRANCH 25 32
ATOM     32   O  IDS B   2      24.918  13.460  15.8660  0.00  0.00     0.000 O
ATOM     33   S  IDS B   2      23.853  12.220  16.0920  0.00  0.00     0.000 S
ATOM     34   O  IDS B   2      23.964  11.840  17.4910  0.00  0.00     0.000 OA
ATOM     35   O  IDS B   2      22.507  12.674  15.7680  0.00  0.00     0.000 OA
ATOM     36   O  IDS B   2      24.300  11.158  15.2210  0.00  0.00     0.000 OA
ENDBRANCH 25 32
BRANCH 28 37
ATOM     37   C  IDS B   2      26.764  17.109  11.9180  0.00  0.00     0.000 C
ATOM     38   O  IDS B   2      27.012  18.094  12.5730  0.00  0.00     0.000 OA
ATOM     39   O  IDS B   2      27.196  17.007  10.7440  0.00  0.00     0.000 OA
ENDBRANCH 28 37
BRANCH 24 40
ATOM     40  O4  SUS B   3      23.976  16.376  15.5190  0.00  0.00     0.000 O
BRANCH 40 44
ATOM     41  C1  SUS B   3      23.948  19.744  18.0100  0.00  0.00     0.000 C
ATOM     42  C2  SUS B   3      24.336  19.962  16.5340  0.00  0.00     0.000 C
ATOM     43  C3  SUS B   3      23.837  18.782  15.7030  0.00  0.00     0.000 C
ATOM     44  C4  SUS B   3      24.381  17.494  16.3010  0.00  0.00     0.000 C
ATOM     45  C5  SUS B   3      23.857  17.351  17.7150  0.00  0.00     0.000 C
ATOM     46  O5  SUS B   3      24.353  18.459  18.4940  0.00  0.00     0.000 O
BRANCH 42 49
ATOM     47   N  SUS B   3      23.849  21.323  16.2520  0.00  0.00     0.000 N
ATOM     49  HD  SUS B   3      23.237  21.397  15.6440  0.00  0.00     0.000 HD
ATOM     49   S  SUS B   3      25.033  22.340  15.8910  0.00  0.00     0.000 S
ATOM     50   O  SUS B   3      25.759  21.858  14.7830  0.00  0.00     0.000 OA
ATOM     51   O  SUS B   3      24.129  23.529  15.4760  0.00  0.00     0.000 OA
ATOM     52   O  SUS B   3      25.756  22.649  17.0600  0.00  0.00     0.000 OA
ENDBRANCH 42 49
BRANCH 43 53
ATOM     53   O  SUS B   3      24.343  18.948  14.3260  0.00  0.00     0.000 O
ATOM     54   S  SUS B   3      23.246  19.338  13.1660  0.00  0.00     0.000 S
ATOM     55   O  SUS B   3      22.835  20.716  13.3990  0.00  0.00     0.000 OA
ATOM     56   O  SUS B   3      23.966  19.143  11.9210  0.00  0.00     0.000 OA
ATOM     57   O  SUS B   3      22.120  18.414  13.3330  0.00  0.00     0.000 OA
ENDBRANCH 43 53
BRANCH 45 58
ATOM     58   C  SUS B   3      24.275  16.040  18.3450  0.00  0.00     0.000 C
ATOM     59   S  SUS B   3      24.340  14.790  20.5850  0.00  0.00     0.000 S
ATOM     60   O  SUS B   3      23.809  15.994  19.7040  0.00  0.00     0.000 O
ATOM     61   O  SUS B   3      25.692  15.160  20.9570  0.00  0.00     0.000 OA
ATOM     62   O  SUS B   3      23.424  14.845  21.6920  0.00  0.00     0.000 OA
ATOM     63   O  SUS B   3      24.229  13.639  19.7610  0.00  0.00     0.000 OA
ENDBRANCH 45 58
BRANCH 41 64
ATOM     64  O4  IDS B   4      22.643  20.065  18.2920  0.00  0.00     0.000 O
BRANCH 64 68
ATOM     65  C1  IDS B   4      20.806  21.898  20.8490  0.00  0.00     0.000 C
ATOM     66  C2  IDS B   4      22.340  21.911  20.8410  0.00  0.00     0.000 C
ATOM     67  C3  IDS B   4      22.978  20.545  20.6550  0.00  0.00     0.000 C
ATOM     68  C4  IDS B   4      22.254  19.690  19.6320  0.00  0.00     0.000 C
ATOM     69  C5  IDS B   4      20.746  19.814  19.8880  0.00  0.00     0.000 C
ATOM     70  O5  IDS B   4      20.350  21.177  19.7190  0.00  0.00     0.000 O
ATOM     71   O  IDS B   4      22.963  19.900  21.9120  0.00  0.00     0.000 O
ATOM     73  HD  IDS B   4      22.917  20.577  21.3740  0.00  0.00     0.000 HD
BRANCH 66 73
ATOM     73   O  IDS B   4      22.800  22.717  19.7020  0.00  0.00     0.000 O
ATOM     74   S  IDS B   4      23.489  24.146  20.0140  0.00  0.00     0.000 S
ATOM     75   O  IDS B   4      22.529  24.904  20.7880  0.00  0.00     0.000 OA
ATOM     76   O  IDS B   4      23.712  24.664  18.6870  0.00  0.00     0.000 OA
ATOM     77   O  IDS B   4      24.698  23.841  20.7420  0.00  0.00     0.000 OA
ENDBRANCH 66 73
BRANCH 69 78
ATOM     78   C  IDS B   4      19.890  18.844  19.0850  0.00  0.00     0.000 C
ATOM     79   O  IDS B   4      18.943  19.289  18.4370  0.00  0.00     0.000 OA
ATOM     80   O  IDS B   4      20.239  17.651  19.0230  0.00  0.00     0.000 OA
ENDBRANCH 69 78
BRANCH 65 81
ATOM     81  O4  SGN B   5      20.362  21.476  22.0660  0.00  0.00     0.000 O
BRANCH 81 85
ATOM     82  C1  SGN B   5      17.031  21.644  24.6170  0.00  0.00     0.000 C
ATOM     83  C2  SGN B   5      16.751  21.524  23.1120  0.00  0.00     0.000 C
ATOM     84  C3  SGN B   5      18.010  21.016  22.3950  0.00  0.00     0.000 C
ATOM     85  C4  SGN B   5      19.175  21.936  22.7150  0.00  0.00     0.000 C
ATOM     86  C5  SGN B   5      19.369  21.954  24.2290  0.00  0.00     0.000 C
ATOM     87  O5  SGN B   5      18.167  22.457  24.8430  0.00  0.00     0.000 O
ATOM     88   O  SGN B   5      17.779  20.958  21.0040  0.00  0.00     0.000 O
ATOM     90  HD  SGN B   5      17.770  20.280  21.5430  0.00  0.00     0.000 HD
BRANCH 83 92
ATOM     90   N  SGN B   5      15.473  20.837  23.3800  0.00  0.00     0.000 N
ATOM     92  HD  SGN B   5      15.390  20.654  24.2230  0.00  0.00     0.000 HD
ATOM     92   S  SGN B   5      14.154  21.402  22.6770  0.00  0.00     0.000 S
ATOM     93   O  SGN B   5      13.109  20.537  23.1380  0.00  0.00     0.000 OA
ATOM     94   O  SGN B   5      14.117  22.790  22.9840  0.00  0.00     0.000 OA
ATOM     95   O  SGN B   5      14.423  21.273  21.1940  0.00  0.00     0.000 OA
ENDBRANCH 83 92
BRANCH 86 96
ATOM     96   C  SGN B   5      20.514  22.828  24.6970  0.00  0.00     0.000 C
ATOM     97   O  SGN B   5      21.305  22.140  25.6700  0.00  0.00     0.000 O
ATOM     98   S  SGN B   5      22.886  22.117  25.4050  0.00  0.00     0.000 S
ATOM     99   O  SGN B   5      23.405  21.550  26.6260  0.00  0.00     0.000 OA
ATOM    100   O  SGN B   5      23.112  21.331  24.2450  0.00  0.00     0.000 OA
ATOM    101   O  SGN B   5      23.236  23.488  25.2240  0.00  0.00     0.000 OA
ENDBRANCH 86 96
BRANCH 82 102
ATOM    102  O4  IDS B   6      17.188  20.431  25.2190  0.00  0.00     0.000 O
BRANCH 102 106
ATOM    103  C1  IDS B   6      15.856  17.918  27.4930  0.00  0.00     0.000 C
ATOM    104  C2  IDS B   6      14.918  18.886  26.7560  0.00  0.00     0.000 C
ATOM    105  C3  IDS B   6      15.336  20.344  26.7990  0.00  0.00     0.000 C
ATOM    106  C4  IDS B   6      16.833  20.530  26.6220  0.00  0.00     0.000 C
ATOM    107  C5  IDS B   6      17.586  19.484  27.4490  0.00  0.00     0.000 C
ATOM    108  O5  IDS B   6      17.197  18.152  27.1060  0.00  0.00     0.000 O
ATOM    109   O  IDS B   6      14.903  20.891  28.0330  0.00  0.00     0.000 O
ATOM    111  HD  IDS B   6      14.823  20.201  28.5500  0.00  0.00     0.000 HD
BRANCH 104 111
ATOM    111   O  IDS B   6      14.889  18.533  25.3280  0.00  0.00     0.000 O
ATOM    112   S  IDS B   6      13.830  17.433  24.8460  0.00  0.00     0.000 S
ATOM    113   O  IDS B   6      14.153  16.248  25.6250  0.00  0.00     0.000 OA
ATOM    114   O  IDS B   6      12.479  17.962  25.0670  0.00  0.00     0.000 OA
ATOM    115   O  IDS B   6      14.207  17.341  23.4520  0.00  0.00     0.000 OA
ENDBRANCH 104 111
BRANCH 107 116
ATOM    116   C  IDS B   6      19.084  19.656  27.2360  0.00  0.00     0.000 C
ATOM    117   O  IDS B   6      19.641  18.805  26.5910  0.00  0.00     0.000 OA
ATOM    118   O  IDS B   6      19.688  20.607  27.7080  0.00  0.00     0.000 OA
ENDBRANCH 107 116
BRANCH 103 119
ATOM    119  O4  SGN B   7      15.467  18.018  28.7900  0.00  0.00     0.000 O
BRANCH 119 123
ATOM    120  C1  SGN B   7      15.656  15.608  32.2020  0.00  0.00     0.000 C
ATOM    121  C2  SGN B   7      16.913  16.417  31.8300  0.00  0.00     0.000 C
ATOM    122  C3  SGN B   7      16.562  17.525  30.8290  0.00  0.00     0.000 C
ATOM    123  C4  SGN B   7      15.839  16.928  29.6340  0.00  0.00     0.000 C
ATOM    124  C5  SGN B   7      14.608  16.137  30.1090  0.00  0.00     0.000 C
ATOM    125  O5  SGN B   7      14.985  15.105  31.0480  0.00  0.00     0.000 O
ATOM    126   O  SGN B   7      17.766  18.192  30.4310  0.00  0.00     0.000 O
ATOM    128  HD  SGN B   7      17.377  17.631  30.9640  0.00  0.00     0.000 HD
BRANCH 121 130
ATOM    128   N  SGN B   7      17.278  16.190  33.2300  0.00  0.00     0.000 N
ATOM    130  HD  SGN B   7      17.631  15.427  33.0220  0.00  0.00     0.000 HD
ATOM    130   S  SGN B   7      18.799  16.290  33.7490  0.00  0.00     0.000 S
ATOM    131   O  SGN B   7      19.277  17.538  33.2600  0.00  0.00     0.000 OA
ATOM    132   O  SGN B   7      18.816  16.011  35.1400  0.00  0.00     0.000 OA
ATOM    133   O  SGN B   7      19.409  15.011  33.0810  0.00  0.00     0.000 OA
ENDBRANCH 121 130
BRANCH 124 134
ATOM    134   C  SGN B   7      13.891  15.411  29.0090  0.00  0.00     0.000 C
ATOM    135   O  SGN B   7      12.529  15.194  29.4160  0.00  0.00     0.000 O
ATOM    136   S  SGN B   7      11.566  14.581  28.3380  0.00  0.00     0.000 S
ATOM    137   O  SGN B   7      10.302  14.361  29.0000  0.00  0.00     0.000 OA
ATOM    138   O  SGN B   7      12.203  13.355  27.9150  0.00  0.00     0.000 OA
ATOM    139   O  SGN B   7      11.529  15.623  27.3230  0.00  0.00     0.000 OA
ENDBRANCH 124 134
BRANCH 120 140
ATOM    140  O4  IDS B   8      14.592  16.016  32.9010  0.00  0.00     0.000 O
BRANCH 140 144
ATOM    141  C1  IDS B   8      13.027  15.391  36.0830  0.00  0.00     0.000 C
ATOM    142  C2  IDS B   8      13.731  14.247  35.3000  0.00  0.00     0.000 C
ATOM    143  C3  IDS B   8      13.311  14.181  33.8200  0.00  0.00     0.000 C
ATOM    144  C4  IDS B   8      13.259  15.566  33.1770  0.00  0.00     0.000 C
ATOM    145  C5  IDS B   8      12.550  16.558  34.1120  0.00  0.00     0.000 C
ATOM    146  O5  IDS B   8      13.182  16.622  35.3880  0.00  0.00     0.000 O
BRANCH 142 147
ATOM    147   O  IDS B   8      15.203  14.457  35.3300  0.00  0.00     0.000 O
ATOM    148   S  IDS B   8      16.227  13.200  35.3160  0.00  0.00     0.000 S
ATOM    149   O  IDS B   8      15.473  12.016  35.6610  0.00  0.00     0.000 OA
ATOM    150   O  IDS B   8      16.763  13.152  33.9690  0.00  0.00     0.000 OA
ATOM    151   O  IDS B   8      17.230  13.513  36.3170  0.00  0.00     0.000 OA
ENDBRANCH 142 147
BRANCH 145 152
ATOM    152   C  IDS B   8      12.555  17.974  33.5720  0.00  0.00     0.000 C
ATOM    153   O  IDS B   8      12.059  18.204  32.4750  0.00  0.00     0.000 OA
ATOM    154   O  IDS B   8      13.033  18.872  34.2420  0.00  0.00     0.000 OA
ENDBRANCH 145 152
ENDBRANCH 140 144
ENDBRANCH 120 140
ENDBRANCH 119 123
ENDBRANCH 103 119
ENDBRANCH 102 106
ENDBRANCH 82 102
ENDBRANCH 81 85
ENDBRANCH 65 81
ENDBRANCH 64 68
ENDBRANCH 41 64
ENDBRANCH 40 44
ENDBRANCH 24 40
ENDBRANCH 23 27
ENDBRANCH 1 23
TORSDOF 31
ENDMDL
MODEL 11
REMARK VINA RESULT:      -7.9      2.408      4.687
ROOT
ATOM      1  C1  SGN B   1      29.160  12.484  13.1940  0.00  0.00     0.000 C
ATOM      2  C2  SGN B   1      29.867  11.618  14.2500  0.00  0.00     0.000 C
ATOM      3  C3  SGN B   1      29.658  12.195  15.6540  0.00  0.00     0.000 C
ATOM      4  C4  SGN B   1      30.126  13.646  15.7010  0.00  0.00     0.000 C
ATOM      5  C5  SGN B   1      29.494  14.412  14.5400  0.00  0.00     0.000 C
ATOM      6  O5  SGN B   1      29.803  13.747  13.3000  0.00  0.00     0.000 O
ATOM      7   O  SGN B   1      30.351  11.416  16.6230  0.00  0.00     0.000 O
ATOM      9  HD  SGN B   1      31.000  11.690  16.1200  0.00  0.00     0.000 HD
ATOM      9   O  SGN B   1      29.741  14.225  16.9350  0.00  0.00     0.000 O
ATOM     11  HD  SGN B   1      30.391  14.499  16.4320  0.00  0.00     0.000 HD
ENDROOT
BRANCH 2 13
ATOM     11   N  SGN B   1      30.487  10.492  13.5260  0.00  0.00     0.000 N
ATOM     13  HD  SGN B   1      29.675  10.735  13.3490  0.00  0.00     0.000 HD
ATOM     13   S  SGN B   1      29.621   9.277  12.9220  0.00  0.00     0.000 S
ATOM     14   O  SGN B   1      28.247   9.501  13.1490  0.00  0.00     0.000 OA
ATOM     15   O  SGN B   1      30.078   9.013  11.5990  0.00  0.00     0.000 OA
ATOM     16   O  SGN B   1      30.169   8.137  13.8350  0.00  0.00     0.000 OA
ENDBRANCH 2 13
BRANCH 5 17
ATOM     17   C  SGN B   1      29.968  15.839  14.4160  0.00  0.00     0.000 C
ATOM     18   O  SGN B   1      29.687  16.581  15.6190  0.00  0.00     0.000 O
ATOM     19   S  SGN B   1      29.058  18.037  15.4150  0.00  0.00     0.000 S
ATOM     20   O  SGN B   1      29.095  18.649  16.7260  0.00  0.00     0.000 OA
ATOM     21   O  SGN B   1      29.936  18.669  14.4570  0.00  0.00     0.000 OA
ATOM     22   O  SGN B   1      27.719  17.804  14.9210  0.00  0.00     0.000 OA
ENDBRANCH 5 17
BRANCH 1 23
ATOM     23  O4  IDS B   2      27.957  12.604  12.5640  0.00  0.00     0.000 O
BRANCH 23 27
ATOM     24  C1  IDS B   2      25.169  14.523  14.9660  0.00  0.00     0.000 C
ATOM     25  C2  IDS B   2      25.086  12.981  14.9500  0.00  0.00     0.000 C
ATOM     26  C3  IDS B   2      26.321  12.375  14.2870  0.00  0.00     0.000 C
ATOM     27  C4  IDS B   2      26.586  12.915  12.8890  0.00  0.00     0.000 C
ATOM     28  C5  IDS B   2      26.241  14.416  12.8290  0.00  0.00     0.000 C
ATOM     29  O5  IDS B   2      26.236  14.988  14.1290  0.00  0.00     0.000 O
ATOM     30   O  IDS B   2      26.151  10.967  14.1800  0.00  0.00     0.000 O
ATOM     32  HD  IDS B   2      25.644  10.734  13.5170  0.00  0.00     0.000 HD
BRANCH 25 32
ATOM     32   O  IDS B   2      24.985  12.410  16.3150  0.00  0.00     0.000 O
ATOM     33   S  IDS B   2      23.756  11.397  16.7470  0.00  0.00     0.000 S
ATOM     34   O  IDS B   2      23.857  11.228  18.1880  0.00  0.00     0.000 OA
ATOM     35   O  IDS B   2      22.482  11.991  16.3690  0.00  0.00     0.000 OA
ATOM     36   O  IDS B   2      24.012  10.156  16.0530  0.00  0.00     0.000 OA
ENDBRANCH 25 32
BRANCH 28 37
ATOM     37   C  IDS B   2      27.092  15.315  11.9070  0.00  0.00     0.000 C
ATOM     38   O  IDS B   2      27.314  14.806  10.8340  0.00  0.00     0.000 OA
ATOM     39   O  IDS B   2      27.488  16.482  12.1460  0.00  0.00     0.000 OA
ENDBRANCH 28 37
BRANCH 24 40
ATOM     40  O4  SUS B   3      24.138  15.247  15.4500  0.00  0.00     0.000 O
BRANCH 40 44
ATOM     41  C1  SUS B   3      24.114  18.906  17.4900  0.00  0.00     0.000 C
ATOM     42  C2  SUS B   3      24.463  18.938  15.9880  0.00  0.00     0.000 C
ATOM     43  C3  SUS B   3      23.964  17.655  15.3280  0.00  0.00     0.000 C
ATOM     44  C4  SUS B   3      24.544  16.462  16.0720  0.00  0.00     0.000 C
ATOM     45  C5  SUS B   3      24.056  16.494  17.5060  0.00  0.00     0.000 C
ATOM     46  O5  SUS B   3      24.552  17.699  18.1230  0.00  0.00     0.000 O
BRANCH 42 49
ATOM     47   N  SUS B   3      25.440  19.663  15.1580  0.00  0.00     0.000 N
ATOM     49  HD  SUS B   3      26.273  19.585  15.3840  0.00  0.00     0.000 HD
ATOM     49   S  SUS B   3      25.104  21.224  15.0280  0.00  0.00     0.000 S
ATOM     50   O  SUS B   3      25.044  21.809  16.3090  0.00  0.00     0.000 OA
ATOM     51   O  SUS B   3      26.412  21.630  14.3030  0.00  0.00     0.000 OA
ATOM     52   O  SUS B   3      23.992  21.393  14.1800  0.00  0.00     0.000 OA
ENDBRANCH 42 49
BRANCH 43 53
ATOM     53   O  SUS B   3      24.433  17.650  13.9290  0.00  0.00     0.000 O
ATOM     54   S  SUS B   3      23.291  17.506  12.7560  0.00  0.00     0.000 S
ATOM     55   O  SUS B   3      22.547  18.758  12.7150  0.00  0.00     0.000 OA
ATOM     56   O  SUS B   3      24.057  17.240  11.5510  0.00  0.00     0.000 OA
ATOM     57   O  SUS B   3      22.429  16.389  13.1510  0.00  0.00     0.000 OA
ENDBRANCH 43 53
BRANCH 45 58
ATOM     58   C  SUS B   3      24.512  15.281  18.2870  0.00  0.00     0.000 C
ATOM     59   S  SUS B   3      24.505  14.258  20.6400  0.00  0.00     0.000 S
ATOM     60   O  SUS B   3      23.961  15.333  19.6130  0.00  0.00     0.000 O
ATOM     61   O  SUS B   3      25.805  14.751  21.0540  0.00  0.00     0.000 OA
ATOM     62   O  SUS B   3      23.517  14.356  21.6800  0.00  0.00     0.000 OA
ATOM     63   O  SUS B   3      24.520  13.028  19.9300  0.00  0.00     0.000 OA
ENDBRANCH 45 58
BRANCH 41 64
ATOM     64  O4  IDS B   4      22.811  19.243  17.7630  0.00  0.00     0.000 O
BRANCH 64 68
ATOM     65  C1  IDS B   4      20.420  21.130  19.7610  0.00  0.00     0.000 C
ATOM     66  C2  IDS B   4      21.878  21.595  19.6600  0.00  0.00     0.000 C
ATOM     67  C3  IDS B   4      22.904  20.490  19.8520  0.00  0.00     0.000 C
ATOM     68  C4  IDS B   4      22.506  19.192  19.1740  0.00  0.00     0.000 C
ATOM     69  C5  IDS B   4      21.023  18.934  19.4700  0.00  0.00     0.000 C
ATOM     70  O5  IDS B   4      20.242  20.000  18.9260  0.00  0.00     0.000 O
ATOM     71   O  IDS B   4      23.039  20.281  21.2420  0.00  0.00     0.000 O
ATOM     73  HD  IDS B   4      22.811  20.718  20.5300  0.00  0.00     0.000 HD
BRANCH 66 73
ATOM     73   O  IDS B   4      22.115  22.117  18.3070  0.00  0.00     0.000 O
ATOM     74   S  IDS B   4      22.165  23.723  18.1120  0.00  0.00     0.000 S
ATOM     75   O  IDS B   4      20.910  24.236  18.6190  0.00  0.00     0.000 OA
ATOM     76   O  IDS B   4      22.314  23.843  16.6840  0.00  0.00     0.000 OA
ATOM     77   O  IDS B   4      23.311  24.167  18.8690  0.00  0.00     0.000 OA
ENDBRANCH 66 73
BRANCH 69 78
ATOM     78   C  IDS B   4      20.526  17.559  19.0440  0.00  0.00     0.000 C
ATOM     79   O  IDS B   4      19.323  17.314  19.1240  0.00  0.00     0.000 OA
ATOM     80   O  IDS B   4      21.336  16.766  18.5300  0.00  0.00     0.000 OA
ENDBRANCH 69 78
BRANCH 65 81
ATOM     81  O4  SGN B   5      20.082  20.983  21.0730  0.00  0.00     0.000 O
BRANCH 81 85
ATOM     82  C1  SGN B   5      16.727  20.866  23.5960  0.00  0.00     0.000 C
ATOM     83  C2  SGN B   5      16.543  20.338  22.1650  0.00  0.00     0.000 C
ATOM     84  C3  SGN B   5      17.915  20.020  21.5550  0.00  0.00     0.000 C
ATOM     85  C4  SGN B   5      18.793  21.257  21.6270  0.00  0.00     0.000 C
ATOM     86  C5  SGN B   5      18.920  21.671  23.0910  0.00  0.00     0.000 C
ATOM     87  O5  SGN B   5      17.608  21.973  23.6010  0.00  0.00     0.000 O
ATOM     88   O  SGN B   5      17.757  19.589  20.2210  0.00  0.00     0.000 O
ATOM     90  HD  SGN B   5      17.903  19.074  20.9020  0.00  0.00     0.000 HD
BRANCH 83 92
ATOM     90   N  SGN B   5      15.198  20.145  22.7440  0.00  0.00     0.000 N
ATOM     92  HD  SGN B   5      14.939  20.853  23.1690  0.00  0.00     0.000 HD
ATOM     92   S  SGN B   5      14.081  19.454  21.8340  0.00  0.00     0.000 S
ATOM     93   O  SGN B   5      12.916  19.421  22.6670  0.00  0.00     0.000 OA
ATOM     94   O  SGN B   5      14.066  20.190  20.6160  0.00  0.00     0.000 OA
ATOM     95   O  SGN B   5      14.633  18.080  21.5250  0.00  0.00     0.000 OA
ENDBRANCH 83 92
BRANCH 86 96
ATOM     96   C  SGN B   5      19.785  22.893  23.3180  0.00  0.00     0.000 C
ATOM     97   O  SGN B   5      20.651  22.695  24.4380  0.00  0.00     0.000 O
ATOM     98   S  SGN B   5      22.205  23.003  24.1920  0.00  0.00     0.000 S
ATOM     99   O  SGN B   5      22.761  22.912  25.5210  0.00  0.00     0.000 OA
ATOM    100   O  SGN B   5      22.693  22.033  23.2790  0.00  0.00     0.000 OA
ATOM    101   O  SGN B   5      22.225  24.327  23.6600  0.00  0.00     0.000 OA
ENDBRANCH 86 96
BRANCH 82 102
ATOM    102  O4  IDS B   6      17.167  19.905  24.4570  0.00  0.00     0.000 O
BRANCH 102 106
ATOM    103  C1  IDS B   6      16.396  18.112  27.5310  0.00  0.00     0.000 C
ATOM    104  C2  IDS B   6      15.293  18.841  26.7490  0.00  0.00     0.000 C
ATOM    105  C3  IDS B   6      15.636  20.254  26.3180  0.00  0.00     0.000 C
ATOM    106  C4  IDS B   6      17.065  20.385  25.8220  0.00  0.00     0.000 C
ATOM    107  C5  IDS B   6      18.007  19.607  26.7450  0.00  0.00     0.000 C
ATOM    108  O5  IDS B   6      17.632  18.233  26.8530  0.00  0.00     0.000 O
ATOM    109   O  IDS B   6      15.403  21.119  27.4180  0.00  0.00     0.000 O
ATOM    111  HD  IDS B   6      15.452  20.598  28.1070  0.00  0.00     0.000 HD
BRANCH 104 111
ATOM    111   O  IDS B   6      15.027  18.109  25.5010  0.00  0.00     0.000 O
ATOM    112   S  IDS B   6      13.713  17.196  25.4290  0.00  0.00     0.000 S
ATOM    113   O  IDS B   6      13.870  16.244  26.5170  0.00  0.00     0.000 OA
ATOM    114   O  IDS B   6      12.537  18.066  25.5400  0.00  0.00     0.000 OA
ATOM    115   O  IDS B   6      13.900  16.622  24.1140  0.00  0.00     0.000 OA
ENDBRANCH 104 111
BRANCH 107 116
ATOM    116   C  IDS B   6      19.432  19.715  26.2180  0.00  0.00     0.000 C
ATOM    117   O  IDS B   6      19.794  18.855  25.4550  0.00  0.00     0.000 OA
ATOM    118   O  IDS B   6      20.170  20.625  26.5630  0.00  0.00     0.000 OA
ENDBRANCH 107 116
BRANCH 103 119
ATOM    119  O4  SGN B   7      16.241  18.565  28.8020  0.00  0.00     0.000 O
BRANCH 119 123
ATOM    120  C1  SGN B   7      16.756  16.980  32.6380  0.00  0.00     0.000 C
ATOM    121  C2  SGN B   7      17.971  17.659  31.9770  0.00  0.00     0.000 C
ATOM    122  C3  SGN B   7      17.526  18.521  30.7890  0.00  0.00     0.000 C
ATOM    123  C4  SGN B   7      16.692  17.685  29.8320  0.00  0.00     0.000 C
ATOM    124  C5  SGN B   7      15.513  17.048  30.5860  0.00  0.00     0.000 C
ATOM    125  O5  SGN B   7      15.978  16.245  31.6940  0.00  0.00     0.000 O
ATOM    126   O  SGN B   7      18.686  19.055  30.1400  0.00  0.00     0.000 O
ATOM    128  HD  SGN B   7      18.350  18.636  30.8200  0.00  0.00     0.000 HD
BRANCH 121 130
ATOM    128   N  SGN B   7      19.027  17.049  32.7900  0.00  0.00     0.000 N
ATOM    130  HD  SGN B   7      19.628  17.332  32.2350  0.00  0.00     0.000 HD
ATOM    130   S  SGN B   7      20.032  17.927  33.6920  0.00  0.00     0.000 S
ATOM    131   O  SGN B   7      19.194  18.790  34.4510  0.00  0.00     0.000 OA
ATOM    132   O  SGN B   7      20.932  17.045  34.3430  0.00  0.00     0.000 OA
ATOM    133   O  SGN B   7      20.889  18.611  32.5730  0.00  0.00     0.000 OA
ENDBRANCH 121 130
BRANCH 124 134
ATOM    134   C  SGN B   7      14.694  16.109  29.7500  0.00  0.00     0.000 C
ATOM    135   O  SGN B   7      14.630  14.838  30.4200  0.00  0.00     0.000 O
ATOM    136   S  SGN B   7      13.687  13.757  29.7790  0.00  0.00     0.000 S
ATOM    137   O  SGN B   7      13.867  12.551  30.5530  0.00  0.00     0.000 OA
ATOM    138   O  SGN B   7      14.139  13.622  28.4130  0.00  0.00     0.000 OA
ATOM    139   O  SGN B   7      12.373  14.362  29.9230  0.00  0.00     0.000 OA
ENDBRANCH 124 134
BRANCH 120 140
ATOM    140  O4  IDS B   8      15.763  17.558  33.3230  0.00  0.00     0.000 O
BRANCH 140 144
ATOM    141  C1  IDS B   8      14.672  17.959  36.7300  0.00  0.00     0.000 C
ATOM    142  C2  IDS B   8      15.360  16.646  36.2600  0.00  0.00     0.000 C
ATOM    143  C3  IDS B   8      14.761  16.084  34.9580  0.00  0.00     0.000 C
ATOM    144  C4  IDS B   8      14.517  17.178  33.9200  0.00  0.00     0.000 C
ATOM    145  C5  IDS B   8      13.856  18.397  34.5820  0.00  0.00     0.000 C
ATOM    146  O5  IDS B   8      14.638  18.899  35.6630  0.00  0.00     0.000 O
BRANCH 142 147
ATOM    147   O  IDS B   8      16.801  16.904  36.0060  0.00  0.00     0.000 O
ATOM    148   S  IDS B   8      17.933  15.825  36.4350  0.00  0.00     0.000 S
ATOM    149   O  IDS B   8      17.328  14.905  37.3710  0.00  0.00     0.000 OA
ATOM    150   O  IDS B   8      18.342  15.181  35.2000  0.00  0.00     0.000 OA
ATOM    151   O  IDS B   8      18.992  16.604  37.0480  0.00  0.00     0.000 OA
ENDBRANCH 142 147
BRANCH 145 152
ATOM    152   C  IDS B   8      13.678  19.557  33.6220  0.00  0.00     0.000 C
ATOM    153   O  IDS B   8      13.918  20.697  34.0020  0.00  0.00     0.000 OA
ATOM    154   O  IDS B   8      13.319  19.342  32.4790  0.00  0.00     0.000 OA
ENDBRANCH 145 152
ENDBRANCH 140 144
ENDBRANCH 120 140
ENDBRANCH 119 123
ENDBRANCH 103 119
ENDBRANCH 102 106
ENDBRANCH 82 102
ENDBRANCH 81 85
ENDBRANCH 65 81
ENDBRANCH 64 68
ENDBRANCH 41 64
ENDBRANCH 40 44
ENDBRANCH 24 40
ENDBRANCH 23 27
ENDBRANCH 1 23
TORSDOF 31
ENDMDL
MODEL 12
REMARK VINA RESULT:      -7.9      2.331      3.846
ROOT
ATOM      1  C1  SGN B   1      28.639  11.841  13.7260  0.00  0.00     0.000 C
ATOM      2  C2  SGN B   1      30.146  11.540  13.6960  0.00  0.00     0.000 C
ATOM      3  C3  SGN B   1      30.452  10.396  12.7230  0.00  0.00     0.000 C
ATOM      4  C4  SGN B   1      29.632   9.163  13.0870  0.00  0.00     0.000 C
ATOM      5  C5  SGN B   1      28.166   9.565  13.2380  0.00  0.00     0.000 C
ATOM      6  O5  SGN B   1      28.057  10.633  14.1990  0.00  0.00     0.000 O
ATOM      7   O  SGN B   1      31.842  10.091  12.7310  0.00  0.00     0.000 O
ATOM      9  HD  SGN B   1      31.622   9.930  13.5530  0.00  0.00     0.000 HD
ATOM      9   O  SGN B   1      29.768   8.189  12.0670  0.00  0.00     0.000 O
ATOM     11  HD  SGN B   1      29.548   8.029  12.8890  0.00  0.00     0.000 HD
ENDROOT
BRANCH 2 13
ATOM     11   N  SGN B   1      30.635  12.540  14.6640  0.00  0.00     0.000 N
ATOM     13  HD  SGN B   1      30.174  12.785  13.9730  0.00  0.00     0.000 HD
ATOM     13   S  SGN B   1      30.959  14.058  14.2420  0.00  0.00     0.000 S
ATOM     14   O  SGN B   1      30.658  14.258  12.8790  0.00  0.00     0.000 OA
ATOM     15   O  SGN B   1      30.394  14.927  15.2190  0.00  0.00     0.000 OA
ATOM     16   O  SGN B   1      32.500  14.033  14.4860  0.00  0.00     0.000 OA
ENDBRANCH 2 13
BRANCH 5 17
ATOM     17   C  SGN B   1      27.268   8.447  13.7050  0.00  0.00     0.000 C
ATOM     18   O  SGN B   1      26.396   8.009  12.6440  0.00  0.00     0.000 O
ATOM     19   S  SGN B   1      24.862   7.793  13.0400  0.00  0.00     0.000 S
ATOM     20   O  SGN B   1      24.266   7.142  11.8930  0.00  0.00     0.000 OA
ATOM     21   O  SGN B   1      24.916   6.956  14.2160  0.00  0.00     0.000 OA
ATOM     22   O  SGN B   1      24.345   9.121  13.2870  0.00  0.00     0.000 OA
ENDBRANCH 5 17
BRANCH 1 23
ATOM     23  O4  IDS B   2      27.706  12.616  13.1020  0.00  0.00     0.000 O
BRANCH 23 27
ATOM     24  C1  IDS B   2      25.023  14.832  15.3640  0.00  0.00     0.000 C
ATOM     25  C2  IDS B   2      24.730  13.318  15.2770  0.00  0.00     0.000 C
ATOM     26  C3  IDS B   2      25.919  12.566  14.6850  0.00  0.00     0.000 C
ATOM     27  C4  IDS B   2      26.369  13.106  13.3350  0.00  0.00     0.000 C
ATOM     28  C5  IDS B   2      26.240  14.642  13.3120  0.00  0.00     0.000 C
ATOM     29  O5  IDS B   2      26.208  15.168  14.6310  0.00  0.00     0.000 O
ATOM     30   O  IDS B   2      25.566  11.199  14.5060  0.00  0.00     0.000 O
ATOM     32  HD  IDS B   2      25.088  11.060  13.7970  0.00  0.00     0.000 HD
BRANCH 25 32
ATOM     32   O  IDS B   2      24.440  12.725  16.6050  0.00  0.00     0.000 O
ATOM     33   S  IDS B   2      23.190  11.673  16.8360  0.00  0.00     0.000 S
ATOM     34   O  IDS B   2      23.078  11.486  18.2740  0.00  0.00     0.000 OA
ATOM     35   O  IDS B   2      21.971  12.239  16.2760  0.00  0.00     0.000 OA
ATOM     36   O  IDS B   2      23.583  10.449  16.1760  0.00  0.00     0.000 OA
ENDBRANCH 25 32
BRANCH 28 37
ATOM     37   C  IDS B   2      27.278  15.441  12.4970  0.00  0.00     0.000 C
ATOM     38   O  IDS B   2      27.971  16.150  13.1890  0.00  0.00     0.000 OA
ATOM     39   O  IDS B   2      27.488  15.366  11.2620  0.00  0.00     0.000 OA
ENDBRANCH 28 37
BRANCH 24 40
ATOM     40  O4  SUS B   3      24.065  15.678  15.7990  0.00  0.00     0.000 O
BRANCH 40 44
ATOM     41  C1  SUS B   3      24.390  19.279  17.9140  0.00  0.00     0.000 C
ATOM     42  C2  SUS B   3      24.736  19.310  16.4110  0.00  0.00     0.000 C
ATOM     43  C3  SUS B   3      24.117  18.093  15.7280  0.00  0.00     0.000 C
ATOM     44  C4  SUS B   3      24.585  16.836  16.4440  0.00  0.00     0.000 C
ATOM     45  C5  SUS B   3      24.107  16.883  17.8800  0.00  0.00     0.000 C
ATOM     46  O5  SUS B   3      24.715  18.023  18.5200  0.00  0.00     0.000 O
BRANCH 42 49
ATOM     47   N  SUS B   3      25.639  19.945  15.4360  0.00  0.00     0.000 N
ATOM     49  HD  SUS B   3      26.470  19.702  15.4620  0.00  0.00     0.000 HD
ATOM     49   S  SUS B   3      25.587  21.545  15.4960  0.00  0.00     0.000 S
ATOM     50   O  SUS B   3      25.907  21.987  16.7960  0.00  0.00     0.000 OA
ATOM     51   O  SUS B   3      26.768  21.800  14.5260  0.00  0.00     0.000 OA
ATOM     52   O  SUS B   3      24.375  21.994  14.9340  0.00  0.00     0.000 OA
ENDBRANCH 42 49
BRANCH 43 53
ATOM     53   O  SUS B   3      24.580  18.074  14.3260  0.00  0.00     0.000 O
ATOM     54   S  SUS B   3      23.427  18.060  13.1560  0.00  0.00     0.000 S
ATOM     55   O  SUS B   3      22.801  19.375  13.1440  0.00  0.00     0.000 OA
ATOM     56   O  SUS B   3      24.161  17.750  11.9420  0.00  0.00     0.000 OA
ATOM     57   O  SUS B   3      22.466  17.019  13.5320  0.00  0.00     0.000 OA
ENDBRANCH 43 53
BRANCH 45 58
ATOM     58   C  SUS B   3      24.448  15.617  18.6330  0.00  0.00     0.000 C
ATOM     59   S  SUS B   3      24.337  14.543  20.9620  0.00  0.00     0.000 S
ATOM     60   O  SUS B   3      23.897  15.687  19.9590  0.00  0.00     0.000 O
ATOM     61   O  SUS B   3      25.673  14.910  21.3920  0.00  0.00     0.000 OA
ATOM     62   O  SUS B   3      23.355  14.705  22.0000  0.00  0.00     0.000 OA
ATOM     63   O  SUS B   3      24.247  13.334  20.2230  0.00  0.00     0.000 OA
ENDBRANCH 45 58
BRANCH 41 64
ATOM     64  O4  IDS B   4      23.125  19.731  18.2000  0.00  0.00     0.000 O
BRANCH 64 68
ATOM     65  C1  IDS B   4      20.995  21.624  20.4700  0.00  0.00     0.000 C
ATOM     66  C2  IDS B   4      22.515  21.827  20.4870  0.00  0.00     0.000 C
ATOM     67  C3  IDS B   4      23.321  20.539  20.4880  0.00  0.00     0.000 C
ATOM     68  C4  IDS B   4      22.741  19.480  19.5700  0.00  0.00     0.000 C
ATOM     69  C5  IDS B   4      21.221  19.445  19.7810  0.00  0.00     0.000 C
ATOM     70  O5  IDS B   4      20.668  20.716  19.4330  0.00  0.00     0.000 O
ATOM     71   O  IDS B   4      23.343  20.059  21.8170  0.00  0.00     0.000 O
ATOM     73  HD  IDS B   4      23.232  20.653  21.1950  0.00  0.00     0.000 HD
BRANCH 66 73
ATOM     73   O  IDS B   4      22.912  22.536  19.2630  0.00  0.00     0.000 O
ATOM     74   S  IDS B   4      23.710  23.934  19.4210  0.00  0.00     0.000 S
ATOM     75   O  IDS B   4      22.875  24.794  20.2310  0.00  0.00     0.000 OA
ATOM     76   O  IDS B   4      23.836  24.360  18.0500  0.00  0.00     0.000 OA
ATOM     77   O  IDS B   4      24.962  23.593  20.0530  0.00  0.00     0.000 OA
ENDBRANCH 66 73
BRANCH 69 78
ATOM     78   C  IDS B   4      20.517  18.284  19.0930  0.00  0.00     0.000 C
ATOM     79   O  IDS B   4      19.354  18.434  18.7220  0.00  0.00     0.000 OA
ATOM     80   O  IDS B   4      21.174  17.259  18.8330  0.00  0.00     0.000 OA
ENDBRANCH 69 78
BRANCH 65 81
ATOM     81  O4  SGN B   5      20.566  21.304  21.7220  0.00  0.00     0.000 O
BRANCH 81 85
ATOM     82  C1  SGN B   5      17.109  21.302  24.1080  0.00  0.00     0.000 C
ATOM     83  C2  SGN B   5      16.920  21.048  22.6050  0.00  0.00     0.000 C
ATOM     84  C3  SGN B   5      18.258  20.625  21.9830  0.00  0.00     0.000 C
ATOM     85  C4  SGN B   5      19.306  21.682  22.2830  0.00  0.00     0.000 C
ATOM     86  C5  SGN B   5      19.421  21.827  23.7980  0.00  0.00     0.000 C
ATOM     87  O5  SGN B   5      18.145  22.243  24.3200  0.00  0.00     0.000 O
ATOM     88   O  SGN B   5      18.105  20.446  20.5920  0.00  0.00     0.000 O
ATOM     90  HD  SGN B   5      18.137  19.810  21.1790  0.00  0.00     0.000 HD
BRANCH 83 92
ATOM     90   N  SGN B   5      15.558  20.816  23.1250  0.00  0.00     0.000 N
ATOM     92  HD  SGN B   5      15.381  21.351  23.7820  0.00  0.00     0.000 HD
ATOM     92   S  SGN B   5      14.374  20.624  22.0700  0.00  0.00     0.000 S
ATOM     93   O  SGN B   5      13.207  20.429  22.8780  0.00  0.00     0.000 OA
ATOM     94   O  SGN B   5      14.454  21.741  21.1920  0.00  0.00     0.000 OA
ATOM     95   O  SGN B   5      14.761  19.396  21.2750  0.00  0.00     0.000 OA
ENDBRANCH 83 92
BRANCH 86 96
ATOM     96   C  SGN B   5      20.447  22.846  24.2490  0.00  0.00     0.000 C
ATOM     97   O  SGN B   5      19.817  24.095  24.5450  0.00  0.00     0.000 O
ATOM     98   S  SGN B   5      20.171  24.744  25.9680  0.00  0.00     0.000 S
ATOM     99   O  SGN B   5      19.565  26.051  25.8820  0.00  0.00     0.000 OA
ATOM    100   O  SGN B   5      19.622  23.901  26.9690  0.00  0.00     0.000 OA
ATOM    101   O  SGN B   5      21.597  24.783  25.9950  0.00  0.00     0.000 OA
ENDBRANCH 86 96
BRANCH 82 102
ATOM    102  O4  IDS B   6      17.358  20.157  24.8050  0.00  0.00     0.000 O
BRANCH 102 106
ATOM    103  C1  IDS B   6      16.038  17.865  27.3070  0.00  0.00     0.000 C
ATOM    104  C2  IDS B   6      15.105  18.817  26.5440  0.00  0.00     0.000 C
ATOM    105  C3  IDS B   6      15.579  20.256  26.4650  0.00  0.00     0.000 C
ATOM    106  C4  IDS B   6      17.072  20.368  26.2110  0.00  0.00     0.000 C
ATOM    107  C5  IDS B   6      17.822  19.352  27.0780  0.00  0.00     0.000 C
ATOM    108  O5  IDS B   6      17.368  18.017  26.8480  0.00  0.00     0.000 O
ATOM    109   O  IDS B   6      15.223  20.904  27.6750  0.00  0.00     0.000 O
ATOM    111  HD  IDS B   6      15.141  20.256  28.2430  0.00  0.00     0.000 HD
BRANCH 104 111
ATOM    111   O  IDS B   6      14.997  18.367  25.1480  0.00  0.00     0.000 O
ATOM    112   S  IDS B   6      13.834  17.331  24.7790  0.00  0.00     0.000 S
ATOM    113   O  IDS B   6      14.083  16.180  25.6340  0.00  0.00     0.000 OA
ATOM    114   O  IDS B   6      12.540  17.988  24.9980  0.00  0.00     0.000 OA
ATOM    115   O  IDS B   6      14.153  17.107  23.3860  0.00  0.00     0.000 OA
ENDBRANCH 104 111
BRANCH 107 116
ATOM    116   C  IDS B   6      19.314  19.448  26.7890  0.00  0.00     0.000 C
ATOM    117   O  IDS B   6      19.837  20.515  26.9880  0.00  0.00     0.000 OA
ATOM    118   O  IDS B   6      19.943  18.489  26.3680  0.00  0.00     0.000 OA
ENDBRANCH 107 116
BRANCH 103 119
ATOM    119  O4  SGN B   7      15.713  18.071  28.6090  0.00  0.00     0.000 O
BRANCH 119 123
ATOM    120  C1  SGN B   7      15.637  15.757  32.0930  0.00  0.00     0.000 C
ATOM    121  C2  SGN B   7      16.956  16.469  31.7380  0.00  0.00     0.000 C
ATOM    122  C3  SGN B   7      16.711  17.568  30.6950  0.00  0.00     0.000 C
ATOM    123  C4  SGN B   7      15.984  16.984  29.4950  0.00  0.00     0.000 C
ATOM    124  C5  SGN B   7      14.690  16.292  29.9530  0.00  0.00     0.000 C
ATOM    125  O5  SGN B   7      14.968  15.266  30.9320  0.00  0.00     0.000 O
ATOM    126   O  SGN B   7      17.968  18.140  30.3170  0.00  0.00     0.000 O
ATOM    128  HD  SGN B   7      17.527  17.622  30.8530  0.00  0.00     0.000 HD
BRANCH 121 130
ATOM    128   N  SGN B   7      17.279  16.146  33.1300  0.00  0.00     0.000 N
ATOM    130  HD  SGN B   7      17.677  15.420  32.8770  0.00  0.00     0.000 HD
ATOM    130   S  SGN B   7      18.772  16.274  33.7180  0.00  0.00     0.000 S
ATOM    131   O  SGN B   7      19.206  17.579  33.3510  0.00  0.00     0.000 OA
ATOM    132   O  SGN B   7      18.750  15.884  35.0820  0.00  0.00     0.000 OA
ATOM    133   O  SGN B   7      19.469  15.084  32.9770  0.00  0.00     0.000 OA
ENDBRANCH 121 130
BRANCH 124 134
ATOM    134   C  SGN B   7      13.958  15.583  28.8520  0.00  0.00     0.000 C
ATOM    135   O  SGN B   7      12.648  15.229  29.3280  0.00  0.00     0.000 O
ATOM    136   S  SGN B   7      11.664  14.610  28.2710  0.00  0.00     0.000 S
ATOM    137   O  SGN B   7      10.469  14.244  28.9940  0.00  0.00     0.000 OA
ATOM    138   O  SGN B   7      12.364  13.471  27.7240  0.00  0.00     0.000 OA
ATOM    139   O  SGN B   7      11.477  15.709  27.3370  0.00  0.00     0.000 OA
ENDBRANCH 124 134
BRANCH 120 140
ATOM    140  O4  IDS B   8      14.583  16.257  32.7460  0.00  0.00     0.000 O
BRANCH 140 144
ATOM    141  C1  IDS B   8      12.150  18.729  33.7110  0.00  0.00     0.000 C
ATOM    142  C2  IDS B   8      13.623  19.130  33.4160  0.00  0.00     0.000 C
ATOM    143  C3  IDS B   8      14.648  18.234  34.1370  0.00  0.00     0.000 C
ATOM    144  C4  IDS B   8      14.275  16.755  34.0540  0.00  0.00     0.000 C
ATOM    145  C5  IDS B   8      12.780  16.568  34.3520  0.00  0.00     0.000 C
ATOM    146  O5  IDS B   8      11.967  17.339  33.4710  0.00  0.00     0.000 O
BRANCH 142 147
ATOM    147   O  IDS B   8      13.886  19.013  31.9570  0.00  0.00     0.000 O
ATOM    148   S  IDS B   8      13.866  20.320  30.9970  0.00  0.00     0.000 S
ATOM    149   O  IDS B   8      13.201  21.382  31.7170  0.00  0.00     0.000 OA
ATOM    150   O  IDS B   8      15.259  20.616  30.7190  0.00  0.00     0.000 OA
ATOM    151   O  IDS B   8      13.124  19.916  29.8180  0.00  0.00     0.000 OA
ENDBRANCH 142 147
BRANCH 145 152
ATOM    152   C  IDS B   8      12.327  15.132  34.1880  0.00  0.00     0.000 C
ATOM    153   O  IDS B   8      12.887  14.245  34.8240  0.00  0.00     0.000 OA
ATOM    154   O  IDS B   8      11.399  14.874  33.4430  0.00  0.00     0.000 OA
ENDBRANCH 145 152
ENDBRANCH 140 144
ENDBRANCH 120 140
ENDBRANCH 119 123
ENDBRANCH 103 119
ENDBRANCH 102 106
ENDBRANCH 82 102
ENDBRANCH 81 85
ENDBRANCH 65 81
ENDBRANCH 64 68
ENDBRANCH 41 64
ENDBRANCH 40 44
ENDBRANCH 24 40
ENDBRANCH 23 27
ENDBRANCH 1 23
TORSDOF 31
ENDMDL
MODEL 13
REMARK VINA RESULT:      -7.8      2.521      4.108
ROOT
ATOM      1  C1  SGN B   1      28.923  11.651  14.5650  0.00  0.00     0.000 C
ATOM      2  C2  SGN B   1      29.939  10.539  14.8730  0.00  0.00     0.000 C
ATOM      3  C3  SGN B   1      30.107   9.609  13.6670  0.00  0.00     0.000 C
ATOM      4  C4  SGN B   1      28.754   9.044  13.2450  0.00  0.00     0.000 C
ATOM      5  C5  SGN B   1      27.759  10.193  13.0950  0.00  0.00     0.000 C
ATOM      6  O5  SGN B   1      27.710  10.951  14.3200  0.00  0.00     0.000 O
ATOM      7   O  SGN B   1      31.014   8.555  13.9700  0.00  0.00     0.000 O
ATOM      9  HD  SGN B   1      30.387   8.421  14.5530  0.00  0.00     0.000 HD
ATOM      9   O  SGN B   1      28.894   8.356  12.0160  0.00  0.00     0.000 O
ATOM     11  HD  SGN B   1      28.267   8.222  12.5980  0.00  0.00     0.000 HD
ENDROOT
BRANCH 2 13
ATOM     11   N  SGN B   1      30.330  10.869  16.2570  0.00  0.00     0.000 N
ATOM     13  HD  SGN B   1      30.388  11.463  15.6290  0.00  0.00     0.000 HD
ATOM     13   S  SGN B   1      31.442  11.982  16.5930  0.00  0.00     0.000 S
ATOM     14   O  SGN B   1      31.903  12.583  15.4030  0.00  0.00     0.000 OA
ATOM     15   O  SGN B   1      30.951  12.804  17.6480  0.00  0.00     0.000 OA
ATOM     16   O  SGN B   1      32.522  11.040  17.2080  0.00  0.00     0.000 OA
ENDBRANCH 2 13
BRANCH 5 17
ATOM     17   C  SGN B   1      26.351   9.749  12.7850  0.00  0.00     0.000 C
ATOM     18   O  SGN B   1      25.585   9.583  13.9960  0.00  0.00     0.000 O
ATOM     19   S  SGN B   1      24.702   8.253  14.0900  0.00  0.00     0.000 S
ATOM     20   O  SGN B   1      23.870   8.438  15.2600  0.00  0.00     0.000 OA
ATOM     21   O  SGN B   1      23.961   8.234  12.8500  0.00  0.00     0.000 OA
ATOM     22   O  SGN B   1      25.656   7.174  14.2210  0.00  0.00     0.000 OA
ENDBRANCH 5 17
BRANCH 1 23
ATOM     23  O4  IDS B   2      28.865  12.913  14.0530  0.00  0.00     0.000 O
BRANCH 23 27
ATOM     24  C1  IDS B   2      26.168  15.308  16.1080  0.00  0.00     0.000 C
ATOM     25  C2  IDS B   2      25.624  14.639  14.8260  0.00  0.00     0.000 C
ATOM     26  C3  IDS B   2      26.583  13.563  14.3230  0.00  0.00     0.000 C
ATOM     27  C4  IDS B   2      28.003  14.069  14.1050  0.00  0.00     0.000 C
ATOM     28  C5  IDS B   2      28.372  15.091  15.2000  0.00  0.00     0.000 C
ATOM     29  O5  IDS B   2      27.535  14.940  16.3370  0.00  0.00     0.000 O
ATOM     30   O  IDS B   2      26.111  13.060  13.0780  0.00  0.00     0.000 O
ATOM     32  HD  IDS B   2      26.293  13.579  12.4090  0.00  0.00     0.000 HD
BRANCH 25 32
ATOM     32   O  IDS B   2      24.305  13.996  15.0450  0.00  0.00     0.000 O
ATOM     33   S  IDS B   2      22.900  14.696  14.5360  0.00  0.00     0.000 S
ATOM     34   O  IDS B   2      21.823  13.908  15.1150  0.00  0.00     0.000 OA
ATOM     35   O  IDS B   2      22.853  16.077  14.9940  0.00  0.00     0.000 OA
ATOM     36   O  IDS B   2      22.912  14.593  13.0950  0.00  0.00     0.000 OA
ENDBRANCH 25 32
BRANCH 28 37
ATOM     37   C  IDS B   2      29.838  15.136  15.6790  0.00  0.00     0.000 C
ATOM     38   O  IDS B   2      29.940  15.050  16.8800  0.00  0.00     0.000 OA
ATOM     39   O  IDS B   2      30.866  15.185  14.9600  0.00  0.00     0.000 OA
ENDBRANCH 28 37
BRANCH 24 40
ATOM     40  O4  SUS B   3      25.494  16.333  16.6700  0.00  0.00     0.000 O
BRANCH 40 44
ATOM     41  C1  SUS B   3      24.450  16.927  20.6820  0.00  0.00     0.000 C
ATOM     42  C2  SUS B   3      25.772  17.555  20.1980  0.00  0.00     0.000 C
ATOM     43  C3  SUS B   3      25.751  17.658  18.6740  0.00  0.00     0.000 C
ATOM     44  C4  SUS B   3      25.470  16.282  18.0920  0.00  0.00     0.000 C
ATOM     45  C5  SUS B   3      24.109  15.816  18.5680  0.00  0.00     0.000 C
ATOM     46  O5  SUS B   3      24.150  15.702  20.0040  0.00  0.00     0.000 O
BRANCH 42 49
ATOM     47   N  SUS B   3      26.005  18.835  20.8890  0.00  0.00     0.000 N
ATOM     49  HD  SUS B   3      26.157  19.524  20.3870  0.00  0.00     0.000 HD
ATOM     49   S  SUS B   3      27.175  18.744  21.9790  0.00  0.00     0.000 S
ATOM     50   O  SUS B   3      28.369  18.313  21.3660  0.00  0.00     0.000 OA
ATOM     51   O  SUS B   3      27.241  20.259  22.2980  0.00  0.00     0.000 OA
ATOM     52   O  SUS B   3      26.718  18.019  23.0970  0.00  0.00     0.000 OA
ENDBRANCH 42 49
BRANCH 43 53
ATOM     53   O  SUS B   3      27.078  18.129  18.2320  0.00  0.00     0.000 O
ATOM     54   S  SUS B   3      27.153  19.619  17.5420  0.00  0.00     0.000 S
ATOM     55   O  SUS B   3      26.932  20.599  18.5960  0.00  0.00     0.000 OA
ATOM     56   O  SUS B   3      28.483  19.672  16.9620  0.00  0.00     0.000 OA
ATOM     57   O  SUS B   3      26.084  19.667  16.5400  0.00  0.00     0.000 OA
ENDBRANCH 43 53
BRANCH 45 58
ATOM     58   C  SUS B   3      23.714  14.494  17.9480  0.00  0.00     0.000 C
ATOM     59   S  SUS B   3      23.944  11.956  18.2550  0.00  0.00     0.000 S
ATOM     60   O  SUS B   3      24.085  13.424  18.8340  0.00  0.00     0.000 O
ATOM     61   O  SUS B   3      25.098  11.776  17.3940  0.00  0.00     0.000 OA
ATOM     62   O  SUS B   3      24.027  11.182  19.4640  0.00  0.00     0.000 OA
ATOM     63   O  SUS B   3      22.686  11.926  17.5990  0.00  0.00     0.000 OA
ENDBRANCH 45 58
BRANCH 41 64
ATOM     64  O4  IDS B   4      23.402  17.813  20.7320  0.00  0.00     0.000 O
BRANCH 64 68
ATOM     65  C1  IDS B   4      20.740  19.730  22.3170  0.00  0.00     0.000 C
ATOM     66  C2  IDS B   4      22.081  19.532  23.0350  0.00  0.00     0.000 C
ATOM     67  C3  IDS B   4      22.600  18.104  23.0130  0.00  0.00     0.000 C
ATOM     68  C4  IDS B   4      22.383  17.419  21.6770  0.00  0.00     0.000 C
ATOM     69  C5  IDS B   4      20.957  17.733  21.2050  0.00  0.00     0.000 C
ATOM     70  O5  IDS B   4      20.820  19.146  21.0300  0.00  0.00     0.000 O
ATOM     71   O  IDS B   4      21.921  17.396  24.0290  0.00  0.00     0.000 O
ATOM     73  HD  IDS B   4      22.204  18.103  23.6160  0.00  0.00     0.000 HD
BRANCH 66 73
ATOM     73   O  IDS B   4      23.107  20.332  22.3500  0.00  0.00     0.000 O
ATOM     74   S  IDS B   4      23.838  21.506  23.1880  0.00  0.00     0.000 S
ATOM     75   O  IDS B   4      22.789  22.376  23.6750  0.00  0.00     0.000 OA
ATOM     76   O  IDS B   4      24.679  22.107  22.1840  0.00  0.00     0.000 OA
ATOM     77   O  IDS B   4      24.559  20.835  24.2430  0.00  0.00     0.000 OA
ENDBRANCH 66 73
BRANCH 69 78
ATOM     78   C  IDS B   4      20.508  16.940  19.9850  0.00  0.00     0.000 C
ATOM     79   O  IDS B   4      19.922  17.530  19.0790  0.00  0.00     0.000 OA
ATOM     80   O  IDS B   4      20.841  15.743  19.8970  0.00  0.00     0.000 OA
ENDBRANCH 69 78
BRANCH 65 81
ATOM     81  O4  SGN B   5      19.728  19.304  23.1230  0.00  0.00     0.000 O
BRANCH 81 85
ATOM     82  C1  SGN B   5      15.682  19.918  24.0670  0.00  0.00     0.000 C
ATOM     83  C2  SGN B   5      16.025  19.674  22.5890  0.00  0.00     0.000 C
ATOM     84  C3  SGN B   5      17.411  19.023  22.4850  0.00  0.00     0.000 C
ATOM     85  C4  SGN B   5      18.429  19.895  23.1980  0.00  0.00     0.000 C
ATOM     86  C5  SGN B   5      17.996  20.045  24.6540  0.00  0.00     0.000 C
ATOM     87  O5  SGN B   5      16.702  20.677  24.6880  0.00  0.00     0.000 O
ATOM     88   O  SGN B   5      17.757  18.847  21.1280  0.00  0.00     0.000 O
ATOM     90  HD  SGN B   5      17.466  18.226  21.6570  0.00  0.00     0.000 HD
BRANCH 83 92
ATOM     90   N  SGN B   5      14.561  19.860  22.5420  0.00  0.00     0.000 N
ATOM     92  HD  SGN B   5      14.323  20.563  22.9890  0.00  0.00     0.000 HD
ATOM     92   S  SGN B   5      13.825  19.671  21.1360  0.00  0.00     0.000 S
ATOM     93   O  SGN B   5      12.444  19.921  21.4230  0.00  0.00     0.000 OA
ATOM     94   O  SGN B   5      14.525  20.502  20.2190  0.00  0.00     0.000 OA
ATOM     95   O  SGN B   5      14.103  18.235  20.7480  0.00  0.00     0.000 OA
ENDBRANCH 83 92
BRANCH 86 96
ATOM     96   C  SGN B   5      18.932  20.888  25.4960  0.00  0.00     0.000 C
ATOM     97   O  SGN B   5      19.162  20.268  26.7630  0.00  0.00     0.000 O
ATOM     98   S  SGN B   5      20.696  20.103  27.2010  0.00  0.00     0.000 S
ATOM     99   O  SGN B   5      20.589  19.652  28.5680  0.00  0.00     0.000 OA
ATOM    100   O  SGN B   5      21.294  19.171  26.3150  0.00  0.00     0.000 OA
ATOM    101   O  SGN B   5      21.242  21.416  27.0800  0.00  0.00     0.000 OA
ENDBRANCH 86 96
BRANCH 82 102
ATOM    102  O4  IDS B   6      15.467  18.761  24.7540  0.00  0.00     0.000 O
BRANCH 102 106
ATOM    103  C1  IDS B   6      13.124  16.801  26.7350  0.00  0.00     0.000 C
ATOM    104  C2  IDS B   6      12.621  17.879  25.7640  0.00  0.00     0.000 C
ATOM    105  C3  IDS B   6      13.341  19.211  25.8530  0.00  0.00     0.000 C
ATOM    106  C4  IDS B   6      14.841  19.056  26.0280  0.00  0.00     0.000 C
ATOM    107  C5  IDS B   6      15.131  17.950  27.0470  0.00  0.00     0.000 C
ATOM    108  O5  IDS B   6      14.535  16.708  26.6690  0.00  0.00     0.000 O
ATOM    109   O  IDS B   6      12.781  19.945  26.9300  0.00  0.00     0.000 O
ATOM    111  HD  IDS B   6      12.431  19.336  27.4370  0.00  0.00     0.000 HD
BRANCH 104 111
ATOM    111   O  IDS B   6      12.830  17.416  24.3830  0.00  0.00     0.000 O
ATOM    112   S  IDS B   6      11.560  16.883  23.5670  0.00  0.00     0.000 S
ATOM    113   O  IDS B   6      11.047  15.782  24.3680  0.00  0.00     0.000 OA
ATOM    114   O  IDS B   6      10.623  17.997  23.3870  0.00  0.00     0.000 OA
ATOM    115   O  IDS B   6      12.223  16.466  22.3500  0.00  0.00     0.000 OA
ENDBRANCH 104 111
BRANCH 107 116
ATOM    116   C  IDS B   6      16.638  17.778  27.1880  0.00  0.00     0.000 C
ATOM    117   O  IDS B   6      17.231  17.374  26.2200  0.00  0.00     0.000 OA
ATOM    118   O  IDS B   6      17.210  18.028  28.2370  0.00  0.00     0.000 OA
ENDBRANCH 107 116
BRANCH 103 119
ATOM    119  O4  SGN B   7      12.490  17.095  27.8990  0.00  0.00     0.000 O
BRANCH 119 123
ATOM    120  C1  SGN B   7      11.129  14.973  31.2360  0.00  0.00     0.000 C
ATOM    121  C2  SGN B   7      12.649  15.018  30.9900  0.00  0.00     0.000 C
ATOM    122  C3  SGN B   7      13.001  16.137  30.0010  0.00  0.00     0.000 C
ATOM    123  C4  SGN B   7      12.177  15.980  28.7340  0.00  0.00     0.000 C
ATOM    124  C5  SGN B   7      10.681  15.939  29.0850  0.00  0.00     0.000 C
ATOM    125  O5  SGN B   7      10.395  14.871  30.0160  0.00  0.00     0.000 O
ATOM    126   O  SGN B   7      14.405  16.086  29.7210  0.00  0.00     0.000 O
ATOM    128  HD  SGN B   7      13.741  15.810  30.2040  0.00  0.00     0.000 HD
BRANCH 121 130
ATOM    128   N  SGN B   7      13.199  13.846  31.6760  0.00  0.00     0.000 N
ATOM    130  HD  SGN B   7      13.998  14.066  31.4260  0.00  0.00     0.000 HD
ATOM    130   S  SGN B   7      14.034  13.965  33.0470  0.00  0.00     0.000 S
ATOM    131   O  SGN B   7      13.229  14.766  33.9050  0.00  0.00     0.000 OA
ATOM    132   O  SGN B   7      14.429  12.662  33.4450  0.00  0.00     0.000 OA
ATOM    133   O  SGN B   7      15.349  14.632  32.5180  0.00  0.00     0.000 OA
ENDBRANCH 121 130
BRANCH 124 134
ATOM    134   C  SGN B   7       9.789  15.670  27.9090  0.00  0.00     0.000 C
ATOM    135   O  SGN B   7       8.601  16.469  28.0440  0.00  0.00     0.000 O
ATOM    136   S  SGN B   7       7.602  16.447  26.8320  0.00  0.00     0.000 S
ATOM    137   O  SGN B   7       6.456  17.226  27.2360  0.00  0.00     0.000 OA
ATOM    138   O  SGN B   7       7.291  15.051  26.6230  0.00  0.00     0.000 OA
ATOM    139   O  SGN B   7       8.386  17.056  25.7690  0.00  0.00     0.000 OA
ENDBRANCH 124 134
BRANCH 120 140
ATOM    140  O4  IDS B   8      10.369  15.878  31.8620  0.00  0.00     0.000 O
BRANCH 140 144
ATOM    141  C1  IDS B   8       8.469  17.340  34.5480  0.00  0.00     0.000 C
ATOM    142  C2  IDS B   8       8.462  15.803  34.3070  0.00  0.00     0.000 C
ATOM    143  C3  IDS B   8       8.203  15.424  32.8370  0.00  0.00     0.000 C
ATOM    144  C4  IDS B   8       9.000  16.300  31.8710  0.00  0.00     0.000 C
ATOM    145  C5  IDS B   8       8.904  17.774  32.2900  0.00  0.00     0.000 C
ATOM    146  O5  IDS B   8       9.352  17.972  33.6290  0.00  0.00     0.000 O
BRANCH 142 147
ATOM    147   O  IDS B   8       9.784  15.236  34.6810  0.00  0.00     0.000 O
ATOM    148   S  IDS B   8       9.922  13.702  35.1880  0.00  0.00     0.000 S
ATOM    149   O  IDS B   8       8.602  13.239  35.5510  0.00  0.00     0.000 OA
ATOM    150   O  IDS B   8      10.485  12.973  34.0660  0.00  0.00     0.000 OA
ATOM    151   O  IDS B   8      10.810  13.757  36.3340  0.00  0.00     0.000 OA
ENDBRANCH 142 147
BRANCH 145 152
ATOM    152   C  IDS B   8       9.755  18.683  31.4270  0.00  0.00     0.000 C
ATOM    153   O  IDS B   8       9.399  18.937  30.2820  0.00  0.00     0.000 OA
ATOM    154   O  IDS B   8      10.774  19.168  31.8860  0.00  0.00     0.000 OA
ENDBRANCH 145 152
ENDBRANCH 140 144
ENDBRANCH 120 140
ENDBRANCH 119 123
ENDBRANCH 103 119
ENDBRANCH 102 106
ENDBRANCH 82 102
ENDBRANCH 81 85
ENDBRANCH 65 81
ENDBRANCH 64 68
ENDBRANCH 41 64
ENDBRANCH 40 44
ENDBRANCH 24 40
ENDBRANCH 23 27
ENDBRANCH 1 23
TORSDOF 31
ENDMDL
MODEL 14
REMARK VINA RESULT:      -7.8      2.100      3.374
ROOT
ATOM      1  C1  SGN B   1      28.286   9.997  13.2760  0.00  0.00     0.000 C
ATOM      2  C2  SGN B   1      27.706   8.575  13.3550  0.00  0.00     0.000 C
ATOM      3  C3  SGN B   1      28.796   7.565  13.7300  0.00  0.00     0.000 C
ATOM      4  C4  SGN B   1      29.957   7.653  12.7450  0.00  0.00     0.000 C
ATOM      5  C5  SGN B   1      30.387   9.113  12.6100  0.00  0.00     0.000 C
ATOM      6  O5  SGN B   1      29.252   9.917  12.2360  0.00  0.00     0.000 O
ATOM      7   O  SGN B   1      28.267   6.245  13.7590  0.00  0.00     0.000 O
ATOM      9  HD  SGN B   1      28.132   6.470  12.9330  0.00  0.00     0.000 HD
ATOM      9   O  SGN B   1      31.036   6.868  13.2170  0.00  0.00     0.000 O
ATOM     11  HD  SGN B   1      30.902   7.094  12.3910  0.00  0.00     0.000 HD
ENDROOT
BRANCH 2 13
ATOM     11   N  SGN B   1      26.379   9.122  13.0190  0.00  0.00     0.000 N
ATOM     13  HD  SGN B   1      26.708   9.223  13.8140  0.00  0.00     0.000 HD
ATOM     13   S  SGN B   1      25.223   9.311  14.1230  0.00  0.00     0.000 S
ATOM     14   O  SGN B   1      25.700   8.933  15.3950  0.00  0.00     0.000 OA
ATOM     15   O  SGN B   1      24.640  10.599  13.9480  0.00  0.00     0.000 OA
ATOM     16   O  SGN B   1      24.208   8.267  13.5630  0.00  0.00     0.000 OA
ENDBRANCH 2 13
BRANCH 5 17
ATOM     17   C  SGN B   1      31.461   9.344  11.5760  0.00  0.00     0.000 C
ATOM     18   O  SGN B   1      31.624   8.184  10.7350  0.00  0.00     0.000 O
ATOM     19   S  SGN B   1      33.131   7.729  10.4530  0.00  0.00     0.000 S
ATOM     20   O  SGN B   1      33.031   6.719   9.4200  0.00  0.00     0.000 OA
ATOM     21   O  SGN B   1      33.789   8.938  10.0180  0.00  0.00     0.000 OA
ATOM     22   O  SGN B   1      33.614   7.218  11.7170  0.00  0.00     0.000 OA
ENDBRANCH 5 17
BRANCH 1 23
ATOM     23  O4  IDS B   2      28.509  11.089  14.0620  0.00  0.00     0.000 O
BRANCH 23 27
ATOM     24  C1  IDS B   2      26.549  14.412  15.5920  0.00  0.00     0.000 C
ATOM     25  C2  IDS B   2      26.245  14.081  14.1140  0.00  0.00     0.000 C
ATOM     26  C3  IDS B   2      26.771  12.696  13.7460  0.00  0.00     0.000 C
ATOM     27  C4  IDS B   2      28.252  12.508  14.0470  0.00  0.00     0.000 C
ATOM     28  C5  IDS B   2      28.620  13.236  15.3560  0.00  0.00     0.000 C
ATOM     29  O5  IDS B   2      27.466  13.464  16.1520  0.00  0.00     0.000 O
ATOM     30   O  IDS B   2      26.585  12.479  12.3520  0.00  0.00     0.000 O
ATOM     32  HD  IDS B   2      27.184  12.869  11.8630  0.00  0.00     0.000 HD
BRANCH 25 32
ATOM     32   O  IDS B   2      24.791  14.100  13.8210  0.00  0.00     0.000 O
ATOM     33   S  IDS B   2      24.050  15.425  13.1730  0.00  0.00     0.000 S
ATOM     34   O  IDS B   2      22.621  15.163  13.2400  0.00  0.00     0.000 OA
ATOM     35   O  IDS B   2      24.411  16.607  13.9440  0.00  0.00     0.000 OA
ATOM     36   O  IDS B   2      24.509  15.499  11.8060  0.00  0.00     0.000 OA
ENDBRANCH 25 32
BRANCH 28 37
ATOM     37   C  IDS B   2      29.709  12.607  16.2490  0.00  0.00     0.000 C
ATOM     38   O  IDS B   2      29.334  11.602  16.8050  0.00  0.00     0.000 OA
ATOM     39   O  IDS B   2      30.895  12.996  16.3810  0.00  0.00     0.000 OA
ENDBRANCH 28 37
BRANCH 24 40
ATOM     40  O4  SUS B   3      26.222  15.623  16.0900  0.00  0.00     0.000 O
BRANCH 40 44
ATOM     41  C1  SUS B   3      24.558  16.331  19.8680  0.00  0.00     0.000 C
ATOM     42  C2  SUS B   3      25.951  16.929  19.5880  0.00  0.00     0.000 C
ATOM     43  C3  SUS B   3      26.177  16.994  18.0800  0.00  0.00     0.000 C
ATOM     44  C4  SUS B   3      25.969  15.608  17.4910  0.00  0.00     0.000 C
ATOM     45  C5  SUS B   3      24.542  15.173  17.7520  0.00  0.00     0.000 C
ATOM     46  O5  SUS B   3      24.349  15.094  19.1790  0.00  0.00     0.000 O
BRANCH 42 49
ATOM     47   N  SUS B   3      25.938  18.150  20.4120  0.00  0.00     0.000 N
ATOM     49  HD  SUS B   3      25.987  18.904  19.9880  0.00  0.00     0.000 HD
ATOM     49   S  SUS B   3      27.070  18.144  21.5450  0.00  0.00     0.000 S
ATOM     50   O  SUS B   3      28.340  17.985  20.9530  0.00  0.00     0.000 OA
ATOM     51   O  SUS B   3      26.865  19.607  22.0130  0.00  0.00     0.000 OA
ATOM     52   O  SUS B   3      26.707  17.240  22.5630  0.00  0.00     0.000 OA
ENDBRANCH 42 49
BRANCH 43 53
ATOM     53   O  SUS B   3      27.565  17.436  17.8460  0.00  0.00     0.000 O
ATOM     54   S  SUS B   3      27.779  18.952  17.2480  0.00  0.00     0.000 S
ATOM     55   O  SUS B   3      27.445  19.891  18.3090  0.00  0.00     0.000 OA
ATOM     56   O  SUS B   3      29.177  18.982  16.8580  0.00  0.00     0.000 OA
ATOM     57   O  SUS B   3      26.860  19.084  16.1140  0.00  0.00     0.000 OA
ENDBRANCH 43 53
BRANCH 45 58
ATOM     58   C  SUS B   3      24.228  13.840  17.1070  0.00  0.00     0.000 C
ATOM     59   S  SUS B   3      23.875  11.356  17.6440  0.00  0.00     0.000 S
ATOM     60   O  SUS B   3      24.003  12.857  18.1310  0.00  0.00     0.000 O
ATOM     61   O  SUS B   3      25.235  10.922  17.3890  0.00  0.00     0.000 OA
ATOM     62   O  SUS B   3      23.306  10.742  18.8130  0.00  0.00     0.000 OA
ATOM     63   O  SUS B   3      23.026  11.397  16.5050  0.00  0.00     0.000 OA
ENDBRANCH 45 58
BRANCH 41 64
ATOM     64  O4  IDS B   4      23.531  17.233  19.7290  0.00  0.00     0.000 O
BRANCH 64 68
ATOM     65  C1  IDS B   4      20.794  19.432  20.7040  0.00  0.00     0.000 C
ATOM     66  C2  IDS B   4      22.142  19.506  21.4330  0.00  0.00     0.000 C
ATOM     67  C3  IDS B   4      22.716  18.157  21.8290  0.00  0.00     0.000 C
ATOM     68  C4  IDS B   4      22.527  17.098  20.7590  0.00  0.00     0.000 C
ATOM     69  C5  IDS B   4      21.090  17.205  20.2310  0.00  0.00     0.000 C
ATOM     70  O5  IDS B   4      20.898  18.495  19.6470  0.00  0.00     0.000 O
ATOM     71   O  IDS B   4      22.065  17.757  23.0170  0.00  0.00     0.000 O
ATOM     73  HD  IDS B   4      22.320  18.319  22.4100  0.00  0.00     0.000 HD
BRANCH 66 73
ATOM     73   O  IDS B   4      23.136  20.104  20.5300  0.00  0.00     0.000 O
ATOM     74   S  IDS B   4      23.651  21.603  20.8560  0.00  0.00     0.000 S
ATOM     75   O  IDS B   4      22.472  22.440  20.9040  0.00  0.00     0.000 OA
ATOM     76   O  IDS B   4      24.515  21.869  19.7340  0.00  0.00     0.000 OA
ATOM     77   O  IDS B   4      24.336  21.508  22.1230  0.00  0.00     0.000 OA
ENDBRANCH 66 73
BRANCH 69 78
ATOM     78   C  IDS B   4      20.674  16.068  19.3070  0.00  0.00     0.000 C
ATOM     79   O  IDS B   4      19.706  15.376  19.6210  0.00  0.00     0.000 OA
ATOM     80   O  IDS B   4      21.257  15.944  18.2150  0.00  0.00     0.000 OA
ENDBRANCH 69 78
BRANCH 65 81
ATOM     81  O4  SGN B   5      19.800  19.226  21.6110  0.00  0.00     0.000 O
BRANCH 81 85
ATOM     82  C1  SGN B   5      15.886  20.368  22.6200  0.00  0.00     0.000 C
ATOM     83  C2  SGN B   5      16.040  19.233  21.5960  0.00  0.00     0.000 C
ATOM     84  C3  SGN B   5      17.453  18.641  21.6930  0.00  0.00     0.000 C
ATOM     85  C4  SGN B   5      18.474  19.751  21.5140  0.00  0.00     0.000 C
ATOM     86  C5  SGN B   5      18.237  20.801  22.5960  0.00  0.00     0.000 C
ATOM     87  O5  SGN B   5      16.907  21.331  22.4420  0.00  0.00     0.000 O
ATOM     88   O  SGN B   5      17.620  17.637  20.7160  0.00  0.00     0.000 O
ATOM     90  HD  SGN B   5      17.467  17.499  21.5570  0.00  0.00     0.000 HD
BRANCH 83 92
ATOM     90   N  SGN B   5      15.031  19.106  20.5260  0.00  0.00     0.000 N
ATOM     92  HD  SGN B   5      15.401  18.880  19.7760  0.00  0.00     0.000 HD
ATOM     92   S  SGN B   5      13.669  18.343  20.8650  0.00  0.00     0.000 S
ATOM     93   O  SGN B   5      12.925  18.384  19.6420  0.00  0.00     0.000 OA
ATOM     94   O  SGN B   5      14.055  17.092  21.4230  0.00  0.00     0.000 OA
ATOM     95   O  SGN B   5      13.039  19.157  21.9740  0.00  0.00     0.000 OA
ENDBRANCH 83 92
BRANCH 86 96
ATOM     96   C  SGN B   5      19.198  21.971  22.5480  0.00  0.00     0.000 C
ATOM     97   O  SGN B   5      19.354  22.436  21.2050  0.00  0.00     0.000 O
ATOM     98   S  SGN B   5      19.158  24.012  20.9770  0.00  0.00     0.000 S
ATOM     99   O  SGN B   5      19.573  24.188  19.6060  0.00  0.00     0.000 OA
ATOM    100   O  SGN B   5      17.795  24.312  21.2270  0.00  0.00     0.000 OA
ATOM    101   O  SGN B   5      20.043  24.619  21.9180  0.00  0.00     0.000 OA
ENDBRANCH 86 96
BRANCH 82 102
ATOM    102  O4  IDS B   6      15.879  19.916  23.9060  0.00  0.00     0.000 O
BRANCH 102 106
ATOM    103  C1  IDS B   6      14.299  19.379  27.1420  0.00  0.00     0.000 C
ATOM    104  C2  IDS B   6      13.493  19.240  25.8410  0.00  0.00     0.000 C
ATOM    105  C3  IDS B   6      13.679  20.369  24.8460  0.00  0.00     0.000 C
ATOM    106  C4  IDS B   6      15.123  20.828  24.7420  0.00  0.00     0.000 C
ATOM    107  C5  IDS B   6      15.738  20.920  26.1420  0.00  0.00     0.000 C
ATOM    108  O5  IDS B   6      15.650  19.680  26.8460  0.00  0.00     0.000 O
ATOM    109   O  IDS B   6      12.836  21.442  25.2330  0.00  0.00     0.000 O
ATOM    111  HD  IDS B   6      12.704  21.308  26.0780  0.00  0.00     0.000 HD
BRANCH 104 111
ATOM    111   O  IDS B   6      13.927  18.025  25.1360  0.00  0.00     0.000 O
ATOM    112   S  IDS B   6      12.889  16.812  25.0150  0.00  0.00     0.000 S
ATOM    113   O  IDS B   6      12.560  16.474  26.3910  0.00  0.00     0.000 OA
ATOM    114   O  IDS B   6      11.749  17.256  24.2040  0.00  0.00     0.000 OA
ATOM    115   O  IDS B   6      13.738  15.842  24.3580  0.00  0.00     0.000 OA
ENDBRANCH 104 111
BRANCH 107 116
ATOM    116   C  IDS B   6      17.196  21.345  26.0250  0.00  0.00     0.000 C
ATOM    117   O  IDS B   6      17.405  22.450  25.5900  0.00  0.00     0.000 OA
ATOM    118   O  IDS B   6      18.104  20.596  26.3470  0.00  0.00     0.000 OA
ENDBRANCH 107 116
BRANCH 103 119
ATOM    119  O4  SGN B   7      13.541  20.210  27.9030  0.00  0.00     0.000 O
BRANCH 119 123
ATOM    120  C1  SGN B   7      12.652  20.108  31.9880  0.00  0.00     0.000 C
ATOM    121  C2  SGN B   7      13.349  21.368  31.4410  0.00  0.00     0.000 C
ATOM    122  C3  SGN B   7      13.237  21.423  29.9120  0.00  0.00     0.000 C
ATOM    123  C4  SGN B   7      13.753  20.125  29.3120  0.00  0.00     0.000 C
ATOM    124  C5  SGN B   7      13.003  18.932  29.9260  0.00  0.00     0.000 C
ATOM    125  O5  SGN B   7      13.136  18.919  31.3650  0.00  0.00     0.000 O
ATOM    126   O  SGN B   7      13.978  22.551  29.4310  0.00  0.00     0.000 O
ATOM    128  HD  SGN B   7      13.646  22.123  30.1070  0.00  0.00     0.000 HD
BRANCH 121 130
ATOM    128   N  SGN B   7      12.783  22.041  32.6130  0.00  0.00     0.000 N
ATOM    130  HD  SGN B   7      13.411  21.715  33.1120  0.00  0.00     0.000 HD
ATOM    130   S  SGN B   7      13.478  23.329  33.2830  0.00  0.00     0.000 S
ATOM    131   O  SGN B   7      13.715  24.227  32.2050  0.00  0.00     0.000 OA
ATOM    132   O  SGN B   7      12.693  23.733  34.3940  0.00  0.00     0.000 OA
ATOM    133   O  SGN B   7      14.747  22.666  33.9170  0.00  0.00     0.000 OA
ENDBRANCH 121 130
BRANCH 124 134
ATOM    134   C  SGN B   7      13.521  17.596  29.4810  0.00  0.00     0.000 C
ATOM    135   O  SGN B   7      14.905  17.494  29.8560  0.00  0.00     0.000 O
ATOM    136   S  SGN B   7      15.595  16.104  29.6150  0.00  0.00     0.000 S
ATOM    137   O  SGN B   7      16.986  16.274  29.9630  0.00  0.00     0.000 OA
ATOM    138   O  SGN B   7      15.395  15.820  28.2120  0.00  0.00     0.000 OA
ATOM    139   O  SGN B   7      14.862  15.230  30.5170  0.00  0.00     0.000 OA
ENDBRANCH 124 134
BRANCH 120 140
ATOM    140  O4  IDS B   8      11.345  19.826  31.9910  0.00  0.00     0.000 O
BRANCH 140 144
ATOM    141  C1  IDS B   8       7.992  18.519  32.1060  0.00  0.00     0.000 C
ATOM    142  C2  IDS B   8       8.806  18.517  30.7810  0.00  0.00     0.000 C
ATOM    143  C3  IDS B   8       9.462  19.876  30.4730  0.00  0.00     0.000 C
ATOM    144  C4  IDS B   8      10.108  20.494  31.7120  0.00  0.00     0.000 C
ATOM    145  C5  IDS B   8       9.162  20.376  32.9170  0.00  0.00     0.000 C
ATOM    146  O5  IDS B   8       8.794  19.022  33.1680  0.00  0.00     0.000 O
BRANCH 142 147
ATOM    147   O  IDS B   8       9.897  17.512  30.8710  0.00  0.00     0.000 O
ATOM    148   S  IDS B   8       9.702  16.011  30.2860  0.00  0.00     0.000 S
ATOM    149   O  IDS B   8       8.286  15.798  30.0910  0.00  0.00     0.000 OA
ATOM    150   O  IDS B   8      10.451  15.980  29.0440  0.00  0.00     0.000 OA
ATOM    151   O  IDS B   8      10.248  15.132  31.3020  0.00  0.00     0.000 OA
ENDBRANCH 142 147
BRANCH 145 152
ATOM    152   C  IDS B   8       9.787  20.883  34.2010  0.00  0.00     0.000 C
ATOM    153   O  IDS B   8      10.028  20.095  35.1080  0.00  0.00     0.000 OA
ATOM    154   O  IDS B   8      10.062  22.065  34.3110  0.00  0.00     0.000 OA
ENDBRANCH 145 152
ENDBRANCH 140 144
ENDBRANCH 120 140
ENDBRANCH 119 123
ENDBRANCH 103 119
ENDBRANCH 102 106
ENDBRANCH 82 102
ENDBRANCH 81 85
ENDBRANCH 65 81
ENDBRANCH 64 68
ENDBRANCH 41 64
ENDBRANCH 40 44
ENDBRANCH 24 40
ENDBRANCH 23 27
ENDBRANCH 1 23
TORSDOF 31
ENDMDL
MODEL 15
REMARK VINA RESULT:      -7.6      2.898      4.582
ROOT
ATOM      1  C1  SGN B   1      29.155  13.664  12.9490  0.00  0.00     0.000 C
ATOM      2  C2  SGN B   1      29.843  13.188  14.2390  0.00  0.00     0.000 C
ATOM      3  C3  SGN B   1      29.764  14.265  15.3250  0.00  0.00     0.000 C
ATOM      4  C4  SGN B   1      30.356  15.574  14.8130  0.00  0.00     0.000 C
ATOM      5  C5  SGN B   1      29.729  15.911  13.4620  0.00  0.00     0.000 C
ATOM      6  O5  SGN B   1      29.909  14.804  12.5580  0.00  0.00     0.000 O
ATOM      7   O  SGN B   1      30.440  13.839  16.5020  0.00  0.00     0.000 O
ATOM      9  HD  SGN B   1      31.082  13.838  15.9210  0.00  0.00     0.000 HD
ATOM      9   O  SGN B   1      30.093  16.607  15.7450  0.00  0.00     0.000 O
ATOM     11  HD  SGN B   1      30.735  16.606  15.1630  0.00  0.00     0.000 HD
ENDROOT
BRANCH 2 13
ATOM     11   N  SGN B   1      30.038  11.938  13.4800  0.00  0.00     0.000 N
ATOM     13  HD  SGN B   1      29.303  12.078  13.9150  0.00  0.00     0.000 HD
ATOM     13   S  SGN B   1      29.321  10.559  13.8960  0.00  0.00     0.000 S
ATOM     14   O  SGN B   1      28.485  10.764  15.0130  0.00  0.00     0.000 OA
ATOM     15   O  SGN B   1      28.786   9.957  12.7220  0.00  0.00     0.000 OA
ATOM     16   O  SGN B   1      30.599   9.752  14.2850  0.00  0.00     0.000 OA
ENDBRANCH 2 13
BRANCH 5 17
ATOM     17   C  SGN B   1      30.316  17.132  12.7990  0.00  0.00     0.000 C
ATOM     18   O  SGN B   1      30.556  16.892  11.3980  0.00  0.00     0.000 O
ATOM     19   S  SGN B   1      31.969  17.385  10.8350  0.00  0.00     0.000 S
ATOM     20   O  SGN B   1      31.868  17.249   9.3970  0.00  0.00     0.000 OA
ATOM     21   O  SGN B   1      32.068  18.756  11.2810  0.00  0.00     0.000 OA
ATOM     22   O  SGN B   1      32.944  16.500  11.4340  0.00  0.00     0.000 OA
ENDBRANCH 5 17
BRANCH 1 23
ATOM     23  O4  IDS B   2      27.933  13.660  12.3440  0.00  0.00     0.000 O
BRANCH 23 27
ATOM     24  C1  IDS B   2      25.011  15.071  14.9320  0.00  0.00     0.000 C
ATOM     25  C2  IDS B   2      25.065  13.537  14.7600  0.00  0.00     0.000 C
ATOM     26  C3  IDS B   2      26.341  13.114  14.0380  0.00  0.00     0.000 C
ATOM     27  C4  IDS B   2      26.543  13.814  12.7010  0.00  0.00     0.000 C
ATOM     28  C5  IDS B   2      26.066  15.277  12.7940  0.00  0.00     0.000 C
ATOM     29  O5  IDS B   2      26.024  15.711  14.1450  0.00  0.00     0.000 O
ATOM     30   O  IDS B   2      26.295  11.714  13.7880  0.00  0.00     0.000 O
ATOM     32  HD  IDS B   2      25.804  11.505  13.1060  0.00  0.00     0.000 HD
BRANCH 25 32
ATOM     32   O  IDS B   2      25.028  12.825  16.0610  0.00  0.00     0.000 O
ATOM     33   S  IDS B   2      23.902  11.663  16.3870  0.00  0.00     0.000 S
ATOM     34   O  IDS B   2      24.031  11.361  17.8040  0.00  0.00     0.000 OA
ATOM     35   O  IDS B   2      22.575  12.173  16.0710  0.00  0.00     0.000 OA
ATOM     36   O  IDS B   2      24.265  10.528  15.5710  0.00  0.00     0.000 OA
ENDBRANCH 25 32
BRANCH 28 37
ATOM     37   C  IDS B   2      26.824  16.336  11.9680  0.00  0.00     0.000 C
ATOM     38   O  IDS B   2      26.932  17.392  12.5470  0.00  0.00     0.000 OA
ATOM     39   O  IDS B   2      27.358  16.176  10.8430  0.00  0.00     0.000 OA
ENDBRANCH 28 37
BRANCH 24 40
ATOM     40  O4  SUS B   3      23.925  15.648  15.4890  0.00  0.00     0.000 O
BRANCH 40 44
ATOM     41  C1  SUS B   3      23.597  19.067  17.8870  0.00  0.00     0.000 C
ATOM     42  C2  SUS B   3      23.987  19.276  16.4100  0.00  0.00     0.000 C
ATOM     43  C3  SUS B   3      23.595  18.039  15.6060  0.00  0.00     0.000 C
ATOM     44  C4  SUS B   3      24.230  16.815  16.2460  0.00  0.00     0.000 C
ATOM     45  C5  SUS B   3      23.699  16.667  17.6570  0.00  0.00     0.000 C
ATOM     46  O5  SUS B   3      24.095  17.831  18.4100  0.00  0.00     0.000 O
BRANCH 42 49
ATOM     47   N  SUS B   3      23.421  20.512  15.8420  0.00  0.00     0.000 N
ATOM     49  HD  SUS B   3      23.013  20.436  15.0810  0.00  0.00     0.000 HD
ATOM     49   S  SUS B   3      24.504  21.685  15.7110  0.00  0.00     0.000 S
ATOM     50   O  SUS B   3      25.587  21.252  14.9190  0.00  0.00     0.000 OA
ATOM     51   O  SUS B   3      23.607  22.670  14.9190  0.00  0.00     0.000 OA
ATOM     52   O  SUS B   3      24.795  22.196  16.9910  0.00  0.00     0.000 OA
ENDBRANCH 42 49
BRANCH 43 53
ATOM     53   O  SUS B   3      24.105  18.209  14.2320  0.00  0.00     0.000 O
ATOM     54   S  SUS B   3      22.998  18.225  13.0170  0.00  0.00     0.000 S
ATOM     55   O  SUS B   3      22.261  19.477  13.1150  0.00  0.00     0.000 OA
ATOM     56   O  SUS B   3      23.797  18.108  11.8100  0.00  0.00     0.000 OA
ATOM     57   O  SUS B   3      22.119  17.073  13.2420  0.00  0.00     0.000 OA
ENDBRANCH 43 53
BRANCH 45 58
ATOM     58   C  SUS B   3      24.211  15.411  18.3260  0.00  0.00     0.000 C
ATOM     59   S  SUS B   3      24.428  14.272  20.6160  0.00  0.00     0.000 S
ATOM     60   O  SUS B   3      23.800  15.404  19.7040  0.00  0.00     0.000 O
ATOM     61   O  SUS B   3      25.771  14.728  20.9160  0.00  0.00     0.000 OA
ATOM     62   O  SUS B   3      23.553  14.331  21.7560  0.00  0.00     0.000 OA
ATOM     63   O  SUS B   3      24.347  13.079  19.8490  0.00  0.00     0.000 OA
ENDBRANCH 45 58
BRANCH 41 64
ATOM     64  O4  IDS B   4      22.267  19.291  18.1450  0.00  0.00     0.000 O
BRANCH 64 68
ATOM     65  C1  IDS B   4      19.688  20.787  20.2390  0.00  0.00     0.000 C
ATOM     66  C2  IDS B   4      21.113  21.356  20.2430  0.00  0.00     0.000 C
ATOM     67  C3  IDS B   4      22.207  20.308  20.3560  0.00  0.00     0.000 C
ATOM     68  C4  IDS B   4      21.923  19.068  19.5300  0.00  0.00     0.000 C
ATOM     69  C5  IDS B   4      20.452  18.680  19.7390  0.00  0.00     0.000 C
ATOM     70  O5  IDS B   4      19.616  19.746  19.2820  0.00  0.00     0.000 O
ATOM     71   O  IDS B   4      22.313  19.958  21.7210  0.00  0.00     0.000 O
ATOM     73  HD  IDS B   4      22.077  20.454  21.0510  0.00  0.00     0.000 HD
BRANCH 66 73
ATOM     73   O  IDS B   4      21.354  22.037  18.9640  0.00  0.00     0.000 O
ATOM     74   S  IDS B   4      21.701  23.617  18.9990  0.00  0.00     0.000 S
ATOM     75   O  IDS B   4      20.607  24.261  19.6940  0.00  0.00     0.000 OA
ATOM     76   O  IDS B   4      21.774  23.935  17.5950  0.00  0.00     0.000 OA
ATOM     77   O  IDS B   4      22.960  23.719  19.6980  0.00  0.00     0.000 OA
ENDBRANCH 66 73
BRANCH 69 78
ATOM     78   C  IDS B   4      20.067  17.330  19.1510  0.00  0.00     0.000 C
ATOM     79   O  IDS B   4      20.957  16.597  18.7210  0.00  0.00     0.000 OA
ATOM     80   O  IDS B   4      18.879  16.967  19.2210  0.00  0.00     0.000 OA
ENDBRANCH 69 78
BRANCH 65 81
ATOM     81  O4  SGN B   5      19.320  20.477  21.5130  0.00  0.00     0.000 O
BRANCH 81 85
ATOM     82  C1  SGN B   5      15.962  19.995  23.9880  0.00  0.00     0.000 C
ATOM     83  C2  SGN B   5      15.868  19.422  22.5660  0.00  0.00     0.000 C
ATOM     84  C3  SGN B   5      17.279  19.265  21.9820  0.00  0.00     0.000 C
ATOM     85  C4  SGN B   5      17.998  20.601  22.0420  0.00  0.00     0.000 C
ATOM     86  C5  SGN B   5      18.049  21.054  23.4990  0.00  0.00     0.000 C
ATOM     87  O5  SGN B   5      16.700  21.202  23.9830  0.00  0.00     0.000 O
ATOM     88   O  SGN B   5      17.199  18.792  20.6550  0.00  0.00     0.000 O
ATOM     90  HD  SGN B   5      17.394  18.311  21.3490  0.00  0.00     0.000 HD
BRANCH 83 92
ATOM     90   N  SGN B   5      14.957  18.326  22.9480  0.00  0.00     0.000 N
ATOM     92  HD  SGN B   5      14.933  18.227  23.8080  0.00  0.00     0.000 HD
ATOM     92   S  SGN B   5      13.539  18.237  22.2160  0.00  0.00     0.000 S
ATOM     93   O  SGN B   5      12.908  17.094  22.8040  0.00  0.00     0.000 OA
ATOM     94   O  SGN B   5      12.953  19.526  22.3550  0.00  0.00     0.000 OA
ATOM     95   O  SGN B   5      13.873  18.048  20.7530  0.00  0.00     0.000 OA
ENDBRANCH 83 92
BRANCH 86 96
ATOM     96   C  SGN B   5      18.753  22.377  23.7140  0.00  0.00     0.000 C
ATOM     97   O  SGN B   5      18.466  23.279  22.6420  0.00  0.00     0.000 O
ATOM     98   S  SGN B   5      17.957  24.740  23.0660  0.00  0.00     0.000 S
ATOM     99   O  SGN B   5      17.955  25.452  21.8110  0.00  0.00     0.000 OA
ATOM    100   O  SGN B   5      16.680  24.589  23.6640  0.00  0.00     0.000 OA
ATOM    101   O  SGN B   5      18.948  25.209  23.9800  0.00  0.00     0.000 OA
ENDBRANCH 86 96
BRANCH 82 102
ATOM    102  O4  IDS B   6      16.501  19.112  24.8750  0.00  0.00     0.000 O
BRANCH 102 106
ATOM    103  C1  IDS B   6      16.072  17.531  28.1270  0.00  0.00     0.000 C
ATOM    104  C2  IDS B   6      14.876  18.162  27.3960  0.00  0.00     0.000 C
ATOM    105  C3  IDS B   6      15.125  19.550  26.8360  0.00  0.00     0.000 C
ATOM    106  C4  IDS B   6      16.499  19.690  26.2050  0.00  0.00     0.000 C
ATOM    107  C5  IDS B   6      17.548  19.014  27.0940  0.00  0.00     0.000 C
ATOM    108  O5  IDS B   6      17.238  17.640  27.3330  0.00  0.00     0.000 O
ATOM    109   O  IDS B   6      14.955  20.487  27.8870  0.00  0.00     0.000 O
ATOM    111  HD  IDS B   6      15.085  20.020  28.6050  0.00  0.00     0.000 HD
BRANCH 104 111
ATOM    111   O  IDS B   6      14.532  17.330  26.2330  0.00  0.00     0.000 O
ATOM    112   S  IDS B   6      13.267  16.356  26.3520  0.00  0.00     0.000 S
ATOM    113   O  IDS B   6      13.575  15.493  27.4820  0.00  0.00     0.000 OA
ATOM    114   O  IDS B   6      12.063  17.178  26.5190  0.00  0.00     0.000 OA
ATOM    115   O  IDS B   6      13.358  15.697  25.0670  0.00  0.00     0.000 OA
ENDBRANCH 104 111
BRANCH 107 116
ATOM    116   C  IDS B   6      18.916  19.129  26.4350  0.00  0.00     0.000 C
ATOM    117   O  IDS B   6      19.468  20.197  26.5140  0.00  0.00     0.000 OA
ATOM    118   O  IDS B   6      19.420  18.184  25.8490  0.00  0.00     0.000 OA
ENDBRANCH 107 116
BRANCH 103 119
ATOM    119  O4  SGN B   7      16.010  18.072  29.3700  0.00  0.00     0.000 O
BRANCH 119 123
ATOM    120  C1  SGN B   7      17.097  16.898  33.2340  0.00  0.00     0.000 C
ATOM    121  C2  SGN B   7      18.191  17.514  32.3420  0.00  0.00     0.000 C
ATOM    122  C3  SGN B   7      17.563  18.245  31.1480  0.00  0.00     0.000 C
ATOM    123  C4  SGN B   7      16.622  17.307  30.4100  0.00  0.00     0.000 C
ATOM    124  C5  SGN B   7      15.576  16.743  31.3850  0.00  0.00     0.000 C
ATOM    125  O5  SGN B   7      16.211  16.063  32.4910  0.00  0.00     0.000 O
ATOM    126   O  SGN B   7      18.607  18.718  30.2900  0.00  0.00     0.000 O
ATOM    128  HD  SGN B   7      18.381  18.370  31.0490  0.00  0.00     0.000 HD
BRANCH 121 130
ATOM    128   N  SGN B   7      19.400  17.004  32.9920  0.00  0.00     0.000 N
ATOM    130  HD  SGN B   7      19.887  17.310  32.3440  0.00  0.00     0.000 HD
ATOM    130   S  SGN B   7      20.467  17.975  33.7080  0.00  0.00     0.000 S
ATOM    131   O  SGN B   7      19.695  18.803  34.5710  0.00  0.00     0.000 OA
ATOM    132   O  SGN B   7      21.517  17.178  34.2290  0.00  0.00     0.000 OA
ATOM    133   O  SGN B   7      21.089  18.681  32.4560  0.00  0.00     0.000 OA
ENDBRANCH 121 130
BRANCH 124 134
ATOM    134   C  SGN B   7      14.669  15.715  30.7740  0.00  0.00     0.000 C
ATOM    135   O  SGN B   7      14.576  14.595  31.6710  0.00  0.00     0.000 O
ATOM    136   S  SGN B   7      13.548  13.472  31.2840  0.00  0.00     0.000 S
ATOM    137   O  SGN B   7      13.707  12.422  32.2620  0.00  0.00     0.000 OA
ATOM    138   O  SGN B   7      13.921  13.062  29.9500  0.00  0.00     0.000 OA
ATOM    139   O  SGN B   7      12.275  14.170  31.3670  0.00  0.00     0.000 OA
ENDBRANCH 124 134
BRANCH 120 140
ATOM    140  O4  IDS B   8      16.198  17.535  33.9920  0.00  0.00     0.000 O
BRANCH 140 144
ATOM    141  C1  IDS B   8      13.407  19.173  35.5710  0.00  0.00     0.000 C
ATOM    142  C2  IDS B   8      14.296  19.924  34.5390  0.00  0.00     0.000 C
ATOM    143  C3  IDS B   8      15.803  19.774  34.8180  0.00  0.00     0.000 C
ATOM    144  C4  IDS B   8      16.179  18.338  35.1790  0.00  0.00     0.000 C
ATOM    145  C5  IDS B   8      15.172  17.765  36.1870  0.00  0.00     0.000 C
ATOM    146  O5  IDS B   8      13.837  17.822  35.6900  0.00  0.00     0.000 O
BRANCH 142 147
ATOM    147   O  IDS B   8      14.044  19.380  33.1790  0.00  0.00     0.000 O
ATOM    148   S  IDS B   8      13.652  20.359  31.9460  0.00  0.00     0.000 S
ATOM    149   O  IDS B   8      13.242  21.626  32.5060  0.00  0.00     0.000 OA
ATOM    150   O  IDS B   8      14.854  20.464  31.1390  0.00  0.00     0.000 OA
ATOM    151   O  IDS B   8      12.563  19.691  31.2600  0.00  0.00     0.000 OA
ENDBRANCH 142 147
BRANCH 145 152
ATOM    152   C  IDS B   8      15.434  16.308  36.5100  0.00  0.00     0.000 C
ATOM    153   O  IDS B   8      16.431  16.002  37.1550  0.00  0.00     0.000 OA
ATOM    154   O  IDS B   8      14.643  15.458  36.1430  0.00  0.00     0.000 OA
ENDBRANCH 145 152
ENDBRANCH 140 144
ENDBRANCH 120 140
ENDBRANCH 119 123
ENDBRANCH 103 119
ENDBRANCH 102 106
ENDBRANCH 82 102
ENDBRANCH 81 85
ENDBRANCH 65 81
ENDBRANCH 64 68
ENDBRANCH 41 64
ENDBRANCH 40 44
ENDBRANCH 24 40
ENDBRANCH 23 27
ENDBRANCH 1 23
TORSDOF 31
ENDMDL
MODEL 16
REMARK VINA RESULT:      -7.6     10.578     21.136
ROOT
ATOM      1  C1  SGN B   1      18.472   5.460  43.7020  0.00  0.00     0.000 C
ATOM      2  C2  SGN B   1      19.976   5.611  43.9850  0.00  0.00     0.000 C
ATOM      3  C3  SGN B   1      20.668   6.373  42.8490  0.00  0.00     0.000 C
ATOM      4  C4  SGN B   1      20.405   5.682  41.5150  0.00  0.00     0.000 C
ATOM      5  C5  SGN B   1      18.905   5.437  41.3670  0.00  0.00     0.000 C
ATOM      6  O5  SGN B   1      18.423   4.696  42.5050  0.00  0.00     0.000 O
ATOM      7   O  SGN B   1      22.066   6.472  43.0930  0.00  0.00     0.000 O
ATOM      9  HD  SGN B   1      21.955   5.614  43.0510  0.00  0.00     0.000 HD
ATOM      9   O  SGN B   1      20.873   6.501  40.4600  0.00  0.00     0.000 O
ATOM     11  HD  SGN B   1      20.762   5.643  40.4190  0.00  0.00     0.000 HD
ENDROOT
BRANCH 2 13
ATOM     11   N  SGN B   1      20.150   4.947  45.2910  0.00  0.00     0.000 N
ATOM     13  HD  SGN B   1      19.535   5.547  45.1810  0.00  0.00     0.000 HD
ATOM     13   S  SGN B   1      19.765   5.665  46.6780  0.00  0.00     0.000 S
ATOM     14   O  SGN B   1      19.215   6.940  46.4290  0.00  0.00     0.000 OA
ATOM     15   O  SGN B   1      19.042   4.736  47.4800  0.00  0.00     0.000 OA
ATOM     16   O  SGN B   1      21.200   5.773  47.2790  0.00  0.00     0.000 OA
ENDBRANCH 2 13
BRANCH 5 17
ATOM     17   C  SGN B   1      18.529   4.657  40.1310  0.00  0.00     0.000 C
ATOM     18   O  SGN B   1      17.922   3.398  40.4820  0.00  0.00     0.000 O
ATOM     19   S  SGN B   1      18.438   2.120  39.6700  0.00  0.00     0.000 S
ATOM     20   O  SGN B   1      17.528   1.054  40.0310  0.00  0.00     0.000 OA
ATOM     21   O  SGN B   1      18.341   2.520  38.2850  0.00  0.00     0.000 OA
ATOM     22   O  SGN B   1      19.794   1.906  40.1260  0.00  0.00     0.000 OA
ENDBRANCH 5 17
BRANCH 1 23
ATOM     23  O4  IDS B   2      17.290   6.106  43.9130  0.00  0.00     0.000 O
BRANCH 23 27
ATOM     24  C1  IDS B   2      16.557   9.094  41.1270  0.00  0.00     0.000 C
ATOM     25  C2  IDS B   2      17.265   9.549  42.4210  0.00  0.00     0.000 C
ATOM     26  C3  IDS B   2      17.748   8.348  43.2300  0.00  0.00     0.000 C
ATOM     27  C4  IDS B   2      16.647   7.344  43.5430  0.00  0.00     0.000 C
ATOM     28  C5  IDS B   2      15.683   7.229  42.3450  0.00  0.00     0.000 C
ATOM     29  O5  IDS B   2      16.301   7.683  41.1510  0.00  0.00     0.000 O
ATOM     30   O  IDS B   2      18.281   8.802  44.4690  0.00  0.00     0.000 O
ATOM     32  HD  IDS B   2      17.672   8.989  45.0550  0.00  0.00     0.000 HD
BRANCH 25 32
ATOM     32   O  IDS B   2      18.444  10.406  42.1450  0.00  0.00     0.000 O
ATOM     33   S  IDS B   2      18.523  11.973  42.6580  0.00  0.00     0.000 S
ATOM     34   O  IDS B   2      19.695  12.550  42.0200  0.00  0.00     0.000 OA
ATOM     35   O  IDS B   2      17.306  12.672  42.2680  0.00  0.00     0.000 OA
ATOM     36   O  IDS B   2      18.683  11.905  44.0920  0.00  0.00     0.000 OA
ENDBRANCH 25 32
BRANCH 28 37
ATOM     37   C  IDS B   2      15.042   5.854  42.0670  0.00  0.00     0.000 C
ATOM     38   O  IDS B   2      15.253   5.458  40.9440  0.00  0.00     0.000 OA
ATOM     39   O  IDS B   2      14.415   5.133  42.8820  0.00  0.00     0.000 OA
ENDBRANCH 28 37
BRANCH 24 40
ATOM     40  O4  SUS B   3      15.998  10.010  40.3080  0.00  0.00     0.000 O
BRANCH 40 44
ATOM     41  C1  SUS B   3      15.575  10.027  36.1410  0.00  0.00     0.000 C
ATOM     42  C2  SUS B   3      14.758   8.983  36.9280  0.00  0.00     0.000 C
ATOM     43  C3  SUS B   3      14.655   9.421  38.3870  0.00  0.00     0.000 C
ATOM     44  C4  SUS B   3      16.056   9.648  38.9330  0.00  0.00     0.000 C
ATOM     45  C5  SUS B   3      16.718  10.755  38.1370  0.00  0.00     0.000 C
ATOM     46  O5  SUS B   3      16.829  10.319  36.7670  0.00  0.00     0.000 O
BRANCH 42 49
ATOM     47   N  SUS B   3      13.912   7.778  36.9740  0.00  0.00     0.000 N
ATOM     49  HD  SUS B   3      14.253   7.080  37.3580  0.00  0.00     0.000 HD
ATOM     49   S  SUS B   3      13.379   7.341  35.5280  0.00  0.00     0.000 S
ATOM     50   O  SUS B   3      14.469   7.122  34.6620  0.00  0.00     0.000 OA
ATOM     51   O  SUS B   3      12.751   5.994  35.9680  0.00  0.00     0.000 OA
ATOM     52   O  SUS B   3      12.381   8.242  35.1060  0.00  0.00     0.000 OA
ENDBRANCH 42 49
BRANCH 43 53
ATOM     53   O  SUS B   3      13.992   8.340  39.1410  0.00  0.00     0.000 O
ATOM     54   S  SUS B   3      12.550   8.692  39.8470  0.00  0.00     0.000 S
ATOM     55   O  SUS B   3      11.565   8.829  38.7840  0.00  0.00     0.000 OA
ATOM     56   O  SUS B   3      12.306   7.566  40.7310  0.00  0.00     0.000 OA
ATOM     57   O  SUS B   3      12.738   9.958  40.5630  0.00  0.00     0.000 OA
ENDBRANCH 43 53
BRANCH 45 58
ATOM     58   C  SUS B   3      18.083  11.108  38.6860  0.00  0.00     0.000 C
ATOM     59   S  SUS B   3      20.545  10.384  38.6340  0.00  0.00     0.000 S
ATOM     60   O  SUS B   3      19.081  10.305  38.0340  0.00  0.00     0.000 O
ATOM     61   O  SUS B   3      20.512   9.555  39.8240  0.00  0.00     0.000 OA
ATOM     62   O  SUS B   3      21.305   9.794  37.5660  0.00  0.00     0.000 OA
ATOM     63   O  SUS B   3      20.787  11.765  38.8620  0.00  0.00     0.000 OA
ENDBRANCH 45 58
BRANCH 41 64
ATOM     64  O4  IDS B   4      14.853  11.138  35.7820  0.00  0.00     0.000 O
BRANCH 64 68
ATOM     65  C1  IDS B   4      13.243  13.682  33.7290  0.00  0.00     0.000 C
ATOM     66  C2  IDS B   4      12.745  12.232  33.6940  0.00  0.00     0.000 C
ATOM     67  C3  IDS B   4      13.846  11.193  33.5660  0.00  0.00     0.000 C
ATOM     68  C4  IDS B   4      15.066  11.520  34.4050  0.00  0.00     0.000 C
ATOM     69  C5  IDS B   4      15.383  13.011  34.2260  0.00  0.00     0.000 C
ATOM     70  O5  IDS B   4      14.276  13.786  34.6930  0.00  0.00     0.000 O
ATOM     71   O  IDS B   4      14.206  11.130  32.2010  0.00  0.00     0.000 O
ATOM     73  HD  IDS B   4      13.697  11.329  32.8730  0.00  0.00     0.000 HD
BRANCH 66 73
ATOM     73   O  IDS B   4      12.070  11.933  34.9650  0.00  0.00     0.000 O
ATOM     74   S  IDS B   4      10.465  11.735  34.9430  0.00  0.00     0.000 S
ATOM     75   O  IDS B   4       9.911  12.944  34.3710  0.00  0.00     0.000 OA
ATOM     76   O  IDS B   4      10.169  11.558  36.3420  0.00  0.00     0.000 OA
ATOM     77   O  IDS B   4      10.232  10.562  34.1340  0.00  0.00     0.000 OA
ENDBRANCH 66 73
BRANCH 69 78
ATOM     78   C  IDS B   4      16.710  13.450  34.8290  0.00  0.00     0.000 C
ATOM     79   O  IDS B   4      17.651  13.693  34.0750  0.00  0.00     0.000 OA
ATOM     80   O  IDS B   4      16.769  13.650  36.0560  0.00  0.00     0.000 OA
ENDBRANCH 69 78
BRANCH 65 81
ATOM     81  O4  SGN B   5      13.542  14.090  32.4640  0.00  0.00     0.000 O
BRANCH 81 85
ATOM     82  C1  SGN B   5      13.595  17.465  29.9660  0.00  0.00     0.000 C
ATOM     83  C2  SGN B   5      14.869  17.175  30.7750  0.00  0.00     0.000 C
ATOM     84  C3  SGN B   5      14.857  15.714  31.2450  0.00  0.00     0.000 C
ATOM     85  C4  SGN B   5      13.581  15.449  32.0240  0.00  0.00     0.000 C
ATOM     86  C5  SGN B   5      12.392  15.748  31.1140  0.00  0.00     0.000 C
ATOM     87  O5  SGN B   5      12.447  17.133  30.7230  0.00  0.00     0.000 O
ATOM     88   O  SGN B   5      15.996  15.456  32.0370  0.00  0.00     0.000 O
ATOM     90  HD  SGN B   5      15.898  15.227  31.2080  0.00  0.00     0.000 HD
BRANCH 83 92
ATOM     90   N  SGN B   5      15.227  18.424  30.0740  0.00  0.00     0.000 N
ATOM     92  HD  SGN B   5      14.611  19.024  30.1730  0.00  0.00     0.000 HD
ATOM     92   S  SGN B   5      16.725  18.962  30.2160  0.00  0.00     0.000 S
ATOM     93   O  SGN B   5      16.745  20.165  29.4400  0.00  0.00     0.000 OA
ATOM     94   O  SGN B   5      16.986  19.011  31.6140  0.00  0.00     0.000 OA
ATOM     95   O  SGN B   5      17.586  17.862  29.6340  0.00  0.00     0.000 OA
ENDBRANCH 83 92
BRANCH 86 96
ATOM     96   C  SGN B   5      11.042  15.514  31.7590  0.00  0.00     0.000 C
ATOM     97   O  SGN B   5      10.889  16.338  32.9170  0.00  0.00     0.000 O
ATOM     98   S  SGN B   5       9.543  17.205  32.9940  0.00  0.00     0.000 S
ATOM     99   O  SGN B   5       9.590  17.748  34.3300  0.00  0.00     0.000 OA
ATOM    100   O  SGN B   5       9.599  18.174  31.9590  0.00  0.00     0.000 OA
ATOM    101   O  SGN B   5       8.497  16.253  32.8080  0.00  0.00     0.000 OA
ENDBRANCH 86 96
BRANCH 82 102
ATOM    102  O4  IDS B   6      13.578  16.817  28.7670  0.00  0.00     0.000 O
BRANCH 102 106
ATOM    103  C1  IDS B   6      13.304  17.040  25.1430  0.00  0.00     0.000 C
ATOM    104  C2  IDS B   6      13.825  18.229  25.9660  0.00  0.00     0.000 C
ATOM    105  C3  IDS B   6      12.996  18.577  27.1870  0.00  0.00     0.000 C
ATOM    106  C4  IDS B   6      12.513  17.349  27.9380  0.00  0.00     0.000 C
ATOM    107  C5  IDS B   6      12.019  16.295  26.9420  0.00  0.00     0.000 C
ATOM    108  O5  IDS B   6      13.029  15.944  25.9940  0.00  0.00     0.000 O
ATOM    109   O  IDS B   6      11.900  19.372  26.7640  0.00  0.00     0.000 O
ATOM    111  HD  IDS B   6      11.809  19.173  25.9270  0.00  0.00     0.000 HD
BRANCH 104 111
ATOM    111   O  IDS B   6      15.162  17.903  26.4850  0.00  0.00     0.000 O
ATOM    112   S  IDS B   6      16.393  18.813  26.0170  0.00  0.00     0.000 S
ATOM    113   O  IDS B   6      16.403  18.699  24.5670  0.00  0.00     0.000 OA
ATOM    114   O  IDS B   6      16.183  20.174  26.5240  0.00  0.00     0.000 OA
ATOM    115   O  IDS B   6      17.471  18.102  26.6700  0.00  0.00     0.000 OA
ENDBRANCH 104 111
BRANCH 107 116
ATOM    116   C  IDS B   6      11.571  15.054  27.7030  0.00  0.00     0.000 C
ATOM    117   O  IDS B   6      10.494  15.107  28.2410  0.00  0.00     0.000 OA
ATOM    118   O  IDS B   6      12.277  14.060  27.7700  0.00  0.00     0.000 OA
ENDBRANCH 107 116
BRANCH 103 119
ATOM    119  O4  SGN B   7      12.338  17.589  24.3620  0.00  0.00     0.000 O
BRANCH 119 123
ATOM    120  C1  SGN B   7      11.102  17.182  20.3880  0.00  0.00     0.000 C
ATOM    121  C2  SGN B   7      10.457  16.253  21.4340  0.00  0.00     0.000 C
ATOM    122  C3  SGN B   7      10.703  16.787  22.8510  0.00  0.00     0.000 C
ATOM    123  C4  SGN B   7      12.190  17.014  23.0630  0.00  0.00     0.000 C
ATOM    124  C5  SGN B   7      12.738  17.945  21.9690  0.00  0.00     0.000 C
ATOM    125  O5  SGN B   7      12.486  17.403  20.6530  0.00  0.00     0.000 O
ATOM    126   O  SGN B   7      10.177  15.851  23.7990  0.00  0.00     0.000 O
ATOM    128  HD  SGN B   7      10.242  16.103  22.9730  0.00  0.00     0.000 HD
BRANCH 121 130
ATOM    128   N  SGN B   7       9.979  15.114  20.6460  0.00  0.00     0.000 N
ATOM    130  HD  SGN B   7       9.712  14.718  21.3680  0.00  0.00     0.000 HD
ATOM    130   S  SGN B   7       8.412  14.836  20.4010  0.00  0.00     0.000 S
ATOM    131   O  SGN B   7       7.882  16.074  19.9400  0.00  0.00     0.000 OA
ATOM    132   O  SGN B   7       8.285  13.664  19.6120  0.00  0.00     0.000 OA
ATOM    133   O  SGN B   7       7.977  14.394  21.8390  0.00  0.00     0.000 OA
ENDBRANCH 121 130
BRANCH 124 134
ATOM    134   C  SGN B   7      14.225  18.138  22.0250  0.00  0.00     0.000 C
ATOM    135   O  SGN B   7      14.661  18.699  20.7750  0.00  0.00     0.000 O
ATOM    136   S  SGN B   7      16.171  19.121  20.6860  0.00  0.00     0.000 S
ATOM    137   O  SGN B   7      16.394  19.550  19.3260  0.00  0.00     0.000 OA
ATOM    138   O  SGN B   7      16.918  17.932  21.0320  0.00  0.00     0.000 OA
ATOM    139   O  SGN B   7      16.255  20.192  21.6670  0.00  0.00     0.000 OA
ENDBRANCH 124 134
BRANCH 120 140
ATOM    140  O4  IDS B   8      10.748  18.432  20.0680  0.00  0.00     0.000 O
BRANCH 140 144
ATOM    141  C1  IDS B   8       9.616  21.796  20.6700  0.00  0.00     0.000 C
ATOM    142  C2  IDS B   8       9.060  20.604  21.5020  0.00  0.00     0.000 C
ATOM    143  C3  IDS B   8       8.612  19.417  20.6290  0.00  0.00     0.000 C
ATOM    144  C4  IDS B   8       9.614  19.112  19.5170  0.00  0.00     0.000 C
ATOM    145  C5  IDS B   8      10.060  20.415  18.8350  0.00  0.00     0.000 C
ATOM    146  O5  IDS B   8      10.616  21.336  19.7700  0.00  0.00     0.000 O
BRANCH 142 147
ATOM    147   O  IDS B   8      10.119  20.102  22.4170  0.00  0.00     0.000 O
ATOM    148   S  IDS B   8      10.208  20.615  23.9530  0.00  0.00     0.000 S
ATOM    149   O  IDS B   8       9.409  21.814  24.0620  0.00  0.00     0.000 OA
ATOM    150   O  IDS B   8       9.692  19.522  24.7560  0.00  0.00     0.000 OA
ATOM    151   O  IDS B   8      11.615  20.878  24.1870  0.00  0.00     0.000 OA
ENDBRANCH 142 147
BRANCH 145 152
ATOM    152   C  IDS B   8      11.130  20.187  17.7870  0.00  0.00     0.000 C
ATOM    153   O  IDS B   8      12.284  20.533  18.0160  0.00  0.00     0.000 OA
ATOM    154   O  IDS B   8      10.838  19.645  16.7360  0.00  0.00     0.000 OA
ENDBRANCH 145 152
ENDBRANCH 140 144
ENDBRANCH 120 140
ENDBRANCH 119 123
ENDBRANCH 103 119
ENDBRANCH 102 106
ENDBRANCH 82 102
ENDBRANCH 81 85
ENDBRANCH 65 81
ENDBRANCH 64 68
ENDBRANCH 41 64
ENDBRANCH 40 44
ENDBRANCH 24 40
ENDBRANCH 23 27
ENDBRANCH 1 23
TORSDOF 31
ENDMDL
MODEL 17
REMARK VINA RESULT:      -7.5      3.241      5.399
ROOT
ATOM      1  C1  SGN B   1      28.267  10.932  14.4140  0.00  0.00     0.000 C
ATOM      2  C2  SGN B   1      29.607  10.503  15.0330  0.00  0.00     0.000 C
ATOM      3  C3  SGN B   1      30.261   9.396  14.1990  0.00  0.00     0.000 C
ATOM      4  C4  SGN B   1      29.302   8.220  14.0420  0.00  0.00     0.000 C
ATOM      5  C5  SGN B   1      27.950   8.739  13.5590  0.00  0.00     0.000 C
ATOM      6  O5  SGN B   1      27.473   9.755  14.4630  0.00  0.00     0.000 O
ATOM      7   O  SGN B   1      31.478   8.970  14.8000  0.00  0.00     0.000 O
ATOM      9  HD  SGN B   1      30.902   8.781  15.4180  0.00  0.00     0.000 HD
ATOM      9   O  SGN B   1      29.835   7.300  13.1070  0.00  0.00     0.000 O
ATOM     11  HD  SGN B   1      29.258   7.111  13.7250  0.00  0.00     0.000 HD
ENDROOT
BRANCH 2 13
ATOM     11   N  SGN B   1      29.436  11.495  16.1120  0.00  0.00     0.000 N
ATOM     13  HD  SGN B   1      29.643  11.748  15.3100  0.00  0.00     0.000 HD
ATOM     13   S  SGN B   1      30.214  12.904  16.1150  0.00  0.00     0.000 S
ATOM     14   O  SGN B   1      30.995  13.030  14.9480  0.00  0.00     0.000 OA
ATOM     15   O  SGN B   1      29.284  13.930  16.4500  0.00  0.00     0.000 OA
ATOM     16   O  SGN B   1      31.105  12.663  17.3720  0.00  0.00     0.000 OA
ENDBRANCH 2 13
BRANCH 5 17
ATOM     17   C  SGN B   1      26.881   7.679  13.4700  0.00  0.00     0.000 C
ATOM     18   O  SGN B   1      25.821   8.089  12.5830  0.00  0.00     0.000 O
ATOM     19   S  SGN B   1      24.331   7.845  13.1100  0.00  0.00     0.000 S
ATOM     20   O  SGN B   1      23.481   8.112  11.9690  0.00  0.00     0.000 OA
ATOM     21   O  SGN B   1      24.326   6.461  13.5240  0.00  0.00     0.000 OA
ATOM     22   O  SGN B   1      24.156   8.784  14.1960  0.00  0.00     0.000 OA
ENDBRANCH 5 17
BRANCH 1 23
ATOM     23  O4  IDS B   2      27.760  11.822  13.5140  0.00  0.00     0.000 O
BRANCH 23 27
ATOM     24  C1  IDS B   2      25.839  15.117  15.1530  0.00  0.00     0.000 C
ATOM     25  C2  IDS B   2      24.965  13.856  14.9730  0.00  0.00     0.000 C
ATOM     26  C3  IDS B   2      25.825  12.637  14.6510  0.00  0.00     0.000 C
ATOM     27  C4  IDS B   2      26.736  12.836  13.4470  0.00  0.00     0.000 C
ATOM     28  C5  IDS B   2      27.271  14.282  13.4260  0.00  0.00     0.000 C
ATOM     29  O5  IDS B   2      27.182  14.875  14.7130  0.00  0.00     0.000 O
ATOM     30   O  IDS B   2      24.978  11.528  14.3700  0.00  0.00     0.000 O
ATOM     32  HD  IDS B   2      24.649  11.544  13.5690  0.00  0.00     0.000 HD
BRANCH 25 32
ATOM     32   O  IDS B   2      24.177  13.541  16.1900  0.00  0.00     0.000 O
ATOM     33   S  IDS B   2      22.529  13.614  16.2040  0.00  0.00     0.000 S
ATOM     34   O  IDS B   2      22.129  13.467  17.5950  0.00  0.00     0.000 OA
ATOM     35   O  IDS B   2      22.096  14.893  15.6590  0.00  0.00     0.000 OA
ATOM     36   O  IDS B   2      22.082  12.495  15.4070  0.00  0.00     0.000 OA
ENDBRANCH 25 32
BRANCH 28 37
ATOM     37   C  IDS B   2      28.696  14.515  12.8820  0.00  0.00     0.000 C
ATOM     38   O  IDS B   2      28.906  13.920  11.8510  0.00  0.00     0.000 OA
ATOM     39   O  IDS B   2      29.572  15.276  13.3600  0.00  0.00     0.000 OA
ENDBRANCH 28 37
BRANCH 24 40
ATOM     40  O4  SUS B   3      25.257  16.313  15.3760  0.00  0.00     0.000 O
BRANCH 40 44
ATOM     41  C1  SUS B   3      26.326  19.390  18.0100  0.00  0.00     0.000 C
ATOM     42  C2  SUS B   3      27.122  19.280  16.6940  0.00  0.00     0.000 C
ATOM     43  C3  SUS B   3      26.317  18.463  15.6860  0.00  0.00     0.000 C
ATOM     44  C4  SUS B   3      25.965  17.121  16.3100  0.00  0.00     0.000 C
ATOM     45  C5  SUS B   3      25.110  17.360  17.5370  0.00  0.00     0.000 C
ATOM     46  O5  SUS B   3      25.889  18.113  18.4890  0.00  0.00     0.000 O
BRANCH 42 49
ATOM     47   N  SUS B   3      28.292  19.885  17.3530  0.00  0.00     0.000 N
ATOM     49  HD  SUS B   3      28.152  20.266  18.1170  0.00  0.00     0.000 HD
ATOM     49   S  SUS B   3      29.062  20.926  16.4100  0.00  0.00     0.000 S
ATOM     50   O  SUS B   3      28.177  21.941  15.9930  0.00  0.00     0.000 OA
ATOM     51   O  SUS B   3      30.036  21.461  17.4910  0.00  0.00     0.000 OA
ATOM     52   O  SUS B   3      29.765  20.222  15.4120  0.00  0.00     0.000 OA
ENDBRANCH 42 49
BRANCH 43 53
ATOM     53   O  SUS B   3      27.159  18.256  14.4920  0.00  0.00     0.000 O
ATOM     54   S  SUS B   3      26.657  18.953  13.0910  0.00  0.00     0.000 S
ATOM     55   O  SUS B   3      26.847  20.391  13.2260  0.00  0.00     0.000 OA
ATOM     56   O  SUS B   3      27.496  18.344  12.0740  0.00  0.00     0.000 OA
ATOM     57   O  SUS B   3      25.237  18.617  12.9460  0.00  0.00     0.000 OA
ENDBRANCH 43 53
BRANCH 45 58
ATOM     58   C  SUS B   3      24.636  16.064  18.1580  0.00  0.00     0.000 C
ATOM     59   S  SUS B   3      25.186  14.376  20.0110  0.00  0.00     0.000 S
ATOM     60   O  SUS B   3      25.397  15.799  19.3480  0.00  0.00     0.000 O
ATOM     61   O  SUS B   3      25.958  13.459  19.1940  0.00  0.00     0.000 OA
ATOM     62   O  SUS B   3      25.772  14.595  21.3060  0.00  0.00     0.000 OA
ATOM     63   O  SUS B   3      23.783  14.160  20.0080  0.00  0.00     0.000 OA
ENDBRANCH 45 58
BRANCH 41 64
ATOM     64  O4  IDS B   4      25.341  20.346  17.9840  0.00  0.00     0.000 O
BRANCH 64 68
ATOM     65  C1  IDS B   4      23.546  23.031  19.6700  0.00  0.00     0.000 C
ATOM     66  C2  IDS B   4      24.959  22.643  20.1240  0.00  0.00     0.000 C
ATOM     67  C3  IDS B   4      25.180  21.147  20.2770  0.00  0.00     0.000 C
ATOM     68  C4  IDS B   4      24.524  20.338  19.1750  0.00  0.00     0.000 C
ATOM     69  C5  IDS B   4      23.111  20.894  18.9500  0.00  0.00     0.000 C
ATOM     70  O5  IDS B   4      23.204  22.259  18.5340  0.00  0.00     0.000 O
ATOM     71   O  IDS B   4      24.645  20.770  21.5290  0.00  0.00     0.000 O
ATOM     73  HD  IDS B   4      24.947  21.325  20.9370  0.00  0.00     0.000 HD
BRANCH 66 73
ATOM     73   O  IDS B   4      25.921  23.077  19.1010  0.00  0.00     0.000 O
ATOM     74   S  IDS B   4      27.020  24.189  19.5180  0.00  0.00     0.000 S
ATOM     75   O  IDS B   4      26.281  25.333  20.0080  0.00  0.00     0.000 OA
ATOM     76   O  IDS B   4      27.697  24.420  18.2670  0.00  0.00     0.000 OA
ATOM     77   O  IDS B   4      27.838  23.562  20.5290  0.00  0.00     0.000 OA
ENDBRANCH 66 73
BRANCH 69 78
ATOM     78   C  IDS B   4      22.242  20.051  18.0280  0.00  0.00     0.000 C
ATOM     79   O  IDS B   4      21.993  18.889  18.3490  0.00  0.00     0.000 OA
ATOM     80   O  IDS B   4      21.724  20.595  17.0350  0.00  0.00     0.000 OA
ENDBRANCH 69 78
BRANCH 65 81
ATOM     81  O4  SGN B   5      22.696  22.970  20.7330  0.00  0.00     0.000 O
BRANCH 81 85
ATOM     82  C1  SGN B   5      18.779  24.308  21.4420  0.00  0.00     0.000 C
ATOM     83  C2  SGN B   5      19.384  24.617  20.0640  0.00  0.00     0.000 C
ATOM     84  C3  SGN B   5      20.579  23.689  19.8080  0.00  0.00     0.000 C
ATOM     85  C4  SGN B   5      21.577  23.833  20.9440  0.00  0.00     0.000 C
ATOM     86  C5  SGN B   5      20.871  23.479  22.2500  0.00  0.00     0.000 C
ATOM     87  O5  SGN B   5      19.774  24.392  22.4440  0.00  0.00     0.000 O
ATOM     88   O  SGN B   5      21.175  24.006  18.5690  0.00  0.00     0.000 O
ATOM     90  HD  SGN B   5      20.643  23.337  18.7140  0.00  0.00     0.000 HD
BRANCH 83 92
ATOM     90   N  SGN B   5      18.052  25.246  19.9660  0.00  0.00     0.000 N
ATOM     92  HD  SGN B   5      17.890  25.741  20.6580  0.00  0.00     0.000 HD
ATOM     92   S  SGN B   5      17.623  25.882  18.5640  0.00  0.00     0.000 S
ATOM     93   O  SGN B   5      16.310  26.404  18.7990  0.00  0.00     0.000 OA
ATOM     94   O  SGN B   5      18.683  26.756  18.1960  0.00  0.00     0.000 OA
ATOM     95   O  SGN B   5      17.638  24.720  17.5940  0.00  0.00     0.000 OA
ENDBRANCH 83 92
BRANCH 86 96
ATOM     96   C  SGN B   5      21.755  23.567  23.4770  0.00  0.00     0.000 C
ATOM     97   O  SGN B   5      23.037  22.993  23.2150  0.00  0.00     0.000 O
ATOM     98   S  SGN B   5      24.307  23.896  23.5930  0.00  0.00     0.000 S
ATOM     99   O  SGN B   5      25.411  22.985  23.4100  0.00  0.00     0.000 OA
ATOM    100   O  SGN B   5      24.310  25.014  22.7190  0.00  0.00     0.000 OA
ATOM    101   O  SGN B   5      24.091  24.258  24.9560  0.00  0.00     0.000 OA
ENDBRANCH 86 96
BRANCH 82 102
ATOM    102  O4  IDS B   6      18.165  23.092  21.4840  0.00  0.00     0.000 O
BRANCH 102 106
ATOM    103  C1  IDS B   6      15.267  21.124  22.4800  0.00  0.00     0.000 C
ATOM    104  C2  IDS B   6      15.136  22.629  22.1980  0.00  0.00     0.000 C
ATOM    105  C3  IDS B   6      16.192  23.500  22.8520  0.00  0.00     0.000 C
ATOM    106  C4  IDS B   6      17.578  22.884  22.7940  0.00  0.00     0.000 C
ATOM    107  C5  IDS B   6      17.494  21.390  23.1230  0.00  0.00     0.000 C
ATOM    108  O5  IDS B   6      16.598  20.702  22.2490  0.00  0.00     0.000 O
ATOM    109   O  IDS B   6      15.800  23.735  24.1940  0.00  0.00     0.000 O
ATOM    111  HD  IDS B   6      15.269  23.076  24.3750  0.00  0.00     0.000 HD
BRANCH 104 111
ATOM    111   O  IDS B   6      15.282  22.861  20.7530  0.00  0.00     0.000 O
ATOM    112   S  IDS B   6      14.060  23.537  19.9710  0.00  0.00     0.000 S
ATOM    113   O  IDS B   6      12.938  22.641  20.1990  0.00  0.00     0.000 OA
ATOM    114   O  IDS B   6      13.873  24.897  20.4900  0.00  0.00     0.000 OA
ATOM    115   O  IDS B   6      14.588  23.487  18.6240  0.00  0.00     0.000 OA
ENDBRANCH 104 111
BRANCH 107 116
ATOM    116   C  IDS B   6      18.884  20.774  23.0270  0.00  0.00     0.000 C
ATOM    117   O  IDS B   6      19.598  20.895  23.9900  0.00  0.00     0.000 OA
ATOM    118   O  IDS B   6      19.255  20.196  22.0180  0.00  0.00     0.000 OA
ENDBRANCH 107 116
BRANCH 103 119
ATOM    119  O4  SGN B   7      14.678  20.973  23.6940  0.00  0.00     0.000 O
BRANCH 119 123
ATOM    120  C1  SGN B   7      13.923  17.634  26.0970  0.00  0.00     0.000 C
ATOM    121  C2  SGN B   7      14.982  18.640  26.5850  0.00  0.00     0.000 C
ATOM    122  C3  SGN B   7      14.852  19.968  25.8290  0.00  0.00     0.000 C
ATOM    123  C4  SGN B   7      14.890  19.713  24.3320  0.00  0.00     0.000 C
ATOM    124  C5  SGN B   7      13.804  18.695  23.9470  0.00  0.00     0.000 C
ATOM    125  O5  SGN B   7      13.966  17.461  24.6810  0.00  0.00     0.000 O
ATOM    126   O  SGN B   7      15.911  20.842  26.2370  0.00  0.00     0.000 O
ATOM    128  HD  SGN B   7      15.475  20.105  26.3660  0.00  0.00     0.000 HD
BRANCH 121 130
ATOM    128   N  SGN B   7      14.906  17.809  27.7890  0.00  0.00     0.000 N
ATOM    130  HD  SGN B   7      15.675  17.457  27.6040  0.00  0.00     0.000 HD
ATOM    130   S  SGN B   7      15.808  18.097  29.0910  0.00  0.00     0.000 S
ATOM    131   O  SGN B   7      15.622  19.479  29.3750  0.00  0.00     0.000 OA
ATOM    132   O  SGN B   7      15.504  17.117  30.0710  0.00  0.00     0.000 OA
ATOM    133   O  SGN B   7      17.221  17.690  28.5500  0.00  0.00     0.000 OA
ENDBRANCH 121 130
BRANCH 124 134
ATOM    134   C  SGN B   7      13.836  18.289  22.5030  0.00  0.00     0.000 C
ATOM    135   O  SGN B   7      12.698  18.866  21.8400  0.00  0.00     0.000 O
ATOM    136   S  SGN B   7      12.631  18.685  20.2810  0.00  0.00     0.000 S
ATOM    137   O  SGN B   7      11.369  19.246  19.8610  0.00  0.00     0.000 OA
ATOM    138   O  SGN B   7      12.715  17.259  20.0620  0.00  0.00     0.000 OA
ATOM    139   O  SGN B   7      13.792  19.434  19.8290  0.00  0.00     0.000 OA
ENDBRANCH 124 134
BRANCH 120 140
ATOM    140  O4  IDS B   8      12.596  17.692  26.2600  0.00  0.00     0.000 O
BRANCH 140 144
ATOM    141  C1  IDS B   8       9.724  16.217  27.8520  0.00  0.00     0.000 C
ATOM    142  C2  IDS B   8      10.922  15.338  27.3910  0.00  0.00     0.000 C
ATOM    143  C3  IDS B   8      11.366  15.633  25.9460  0.00  0.00     0.000 C
ATOM    144  C4  IDS B   8      11.422  17.133  25.6590  0.00  0.00     0.000 C
ATOM    145  C5  IDS B   8      10.166  17.825  26.2110  0.00  0.00     0.000 C
ATOM    146  O5  IDS B   8      10.006  17.589  27.6070  0.00  0.00     0.000 O
BRANCH 142 147
ATOM    147   O  IDS B   8      12.092  15.594  28.2720  0.00  0.00     0.000 O
ATOM    148   S  IDS B   8      13.218  14.453  28.5180  0.00  0.00     0.000 S
ATOM    149   O  IDS B   8      12.660  13.188  28.0960  0.00  0.00     0.000 OA
ATOM    150   O  IDS B   8      14.360  14.858  27.7200  0.00  0.00     0.000 OA
ATOM    151   O  IDS B   8      13.482  14.479  29.9440  0.00  0.00     0.000 OA
ENDBRANCH 142 147
BRANCH 145 152
ATOM    152   C  IDS B   8      10.209  19.330  26.0440  0.00  0.00     0.000 C
ATOM    153   O  IDS B   8      10.343  19.811  24.9240  0.00  0.00     0.000 OA
ATOM    154   O  IDS B   8      10.089  20.048  27.0210  0.00  0.00     0.000 OA
ENDBRANCH 145 152
ENDBRANCH 140 144
ENDBRANCH 120 140
ENDBRANCH 119 123
ENDBRANCH 103 119
ENDBRANCH 102 106
ENDBRANCH 82 102
ENDBRANCH 81 85
ENDBRANCH 65 81
ENDBRANCH 64 68
ENDBRANCH 41 64
ENDBRANCH 40 44
ENDBRANCH 24 40
ENDBRANCH 23 27
ENDBRANCH 1 23
TORSDOF 31
ENDMDL
MODEL 18
REMARK VINA RESULT:      -7.4      7.518     22.319
ROOT
ATOM      1  C1  SGN B   1      23.815  18.141  27.4360  0.00  0.00     0.000 C
ATOM      2  C2  SGN B   1      24.860  17.421  28.3040  0.00  0.00     0.000 C
ATOM      3  C3  SGN B   1      24.216  16.861  29.5770  0.00  0.00     0.000 C
ATOM      4  C4  SGN B   1      23.507  17.975  30.3420  0.00  0.00     0.000 C
ATOM      5  C5  SGN B   1      22.593  18.735  29.3830  0.00  0.00     0.000 C
ATOM      6  O5  SGN B   1      23.360  19.206  28.2580  0.00  0.00     0.000 O
ATOM      7   O  SGN B   1      25.193  16.235  30.3990  0.00  0.00     0.000 O
ATOM      9  HD  SGN B   1      25.485  17.050  30.3690  0.00  0.00     0.000 HD
ATOM      9   O  SGN B   1      22.749  17.412  31.3970  0.00  0.00     0.000 O
ATOM     11  HD  SGN B   1      23.040  18.227  31.3660  0.00  0.00     0.000 HD
ENDROOT
BRANCH 2 13
ATOM     11   N  SGN B   1      26.086  17.584  27.5000  0.00  0.00     0.000 N
ATOM     13  HD  SGN B   1      25.372  17.241  27.1490  0.00  0.00     0.000 HD
ATOM     13   S  SGN B   1      26.436  16.617  26.2620  0.00  0.00     0.000 S
ATOM     14   O  SGN B   1      25.399  15.682  26.0680  0.00  0.00     0.000 OA
ATOM     15   O  SGN B   1      26.867  17.422  25.1690  0.00  0.00     0.000 OA
ATOM     16   O  SGN B   1      27.707  15.939  26.8620  0.00  0.00     0.000 OA
ENDBRANCH 2 13
BRANCH 5 17
ATOM     17   C  SGN B   1      21.917  19.934  30.0010  0.00  0.00     0.000 C
ATOM     18   O  SGN B   1      22.626  21.147  29.6780  0.00  0.00     0.000 O
ATOM     19   S  SGN B   1      22.865  22.163  30.8900  0.00  0.00     0.000 S
ATOM     20   O  SGN B   1      23.368  23.372  30.2720  0.00  0.00     0.000 OA
ATOM     21   O  SGN B   1      21.557  22.319  31.4830  0.00  0.00     0.000 OA
ATOM     22   O  SGN B   1      23.826  21.507  31.7490  0.00  0.00     0.000 OA
ENDBRANCH 5 17
BRANCH 1 23
ATOM     23  O4  IDS B   2      22.928  17.890  26.4310  0.00  0.00     0.000 O
BRANCH 23 27
ATOM     24  C1  IDS B   2      24.062  18.235  22.4530  0.00  0.00     0.000 C
ATOM     25  C2  IDS B   2      23.863  19.568  23.2080  0.00  0.00     0.000 C
ATOM     26  C3  IDS B   2      23.744  19.331  24.7110  0.00  0.00     0.000 C
ATOM     27  C4  IDS B   2      22.657  18.334  25.0850  0.00  0.00     0.000 C
ATOM     28  C5  IDS B   2      22.599  17.201  24.0400  0.00  0.00     0.000 C
ATOM     29  O5  IDS B   2      23.817  17.116  23.3160  0.00  0.00     0.000 O
ATOM     30   O  IDS B   2      23.438  20.562  25.3560  0.00  0.00     0.000 O
ATOM     32  HD  IDS B   2      22.603  20.782  25.2940  0.00  0.00     0.000 HD
BRANCH 25 32
ATOM     32   O  IDS B   2      24.989  20.509  22.9900  0.00  0.00     0.000 O
ATOM     33   S  IDS B   2      24.764  21.992  22.3010  0.00  0.00     0.000 S
ATOM     34   O  IDS B   2      26.092  22.526  22.0460  0.00  0.00     0.000 OA
ATOM     35   O  IDS B   2      24.005  21.842  21.0670  0.00  0.00     0.000 OA
ATOM     36   O  IDS B   2      24.061  22.778  23.2880  0.00  0.00     0.000 OA
ENDBRANCH 25 32
BRANCH 28 37
ATOM     37   C  IDS B   2      22.227  15.786  24.5310  0.00  0.00     0.000 C
ATOM     38   O  IDS B   2      22.929  14.926  24.0530  0.00  0.00     0.000 OA
ATOM     39   O  IDS B   2      21.353  15.488  25.3810  0.00  0.00     0.000 OA
ENDBRANCH 28 37
BRANCH 24 40
ATOM     40  O4  SUS B   3      24.121  18.227  21.1050  0.00  0.00     0.000 O
BRANCH 40 44
ATOM     41  C1  SUS B   3      26.595  15.969  18.5900  0.00  0.00     0.000 C
ATOM     42  C2  SUS B   3      25.189  15.408  18.8850  0.00  0.00     0.000 C
ATOM     43  C3  SUS B   3      24.292  16.538  19.3850  0.00  0.00     0.000 C
ATOM     44  C4  SUS B   3      24.956  17.201  20.5820  0.00  0.00     0.000 C
ATOM     45  C5  SUS B   3      26.282  17.789  20.1430  0.00  0.00     0.000 C
ATOM     46  O5  SUS B   3      27.126  16.710  19.6940  0.00  0.00     0.000 O
BRANCH 42 49
ATOM     47   N  SUS B   3      24.579  14.704  17.7440  0.00  0.00     0.000 N
ATOM     49  HD  SUS B   3      23.762  14.916  17.5500  0.00  0.00     0.000 HD
ATOM     49   S  SUS B   3      24.659  13.110  17.8870  0.00  0.00     0.000 S
ATOM     50   O  SUS B   3      24.034  12.704  19.0830  0.00  0.00     0.000 OA
ATOM     51   O  SUS B   3      23.768  12.775  16.6640  0.00  0.00     0.000 OA
ATOM     52   O  SUS B   3      25.985  12.688  17.6680  0.00  0.00     0.000 OA
ENDBRANCH 42 49
BRANCH 43 53
ATOM     53   O  SUS B   3      23.001  15.948  19.7910  0.00  0.00     0.000 O
ATOM     54   S  SUS B   3      21.678  16.358  18.9060  0.00  0.00     0.000 S
ATOM     55   O  SUS B   3      21.801  15.703  17.6100  0.00  0.00     0.000 OA
ATOM     56   O  SUS B   3      20.561  15.879  19.7000  0.00  0.00     0.000 OA
ATOM     57   O  SUS B   3      21.707  17.817  18.7680  0.00  0.00     0.000 OA
ENDBRANCH 43 53
BRANCH 45 58
ATOM     58   C  SUS B   3      26.959  18.554  21.2580  0.00  0.00     0.000 C
ATOM     59   S  SUS B   3      29.269  19.232  22.1470  0.00  0.00     0.000 S
ATOM     60   O  SUS B   3      28.367  18.652  20.9820  0.00  0.00     0.000 O
ATOM     61   O  SUS B   3      29.429  18.136  23.0850  0.00  0.00     0.000 OA
ATOM     62   O  SUS B   3      30.479  19.527  21.4270  0.00  0.00     0.000 OA
ATOM     63   O  SUS B   3      28.567  20.361  22.6450  0.00  0.00     0.000 OA
ENDBRANCH 45 58
BRANCH 41 64
ATOM     64  O4  IDS B   4      26.691  16.614  17.3810  0.00  0.00     0.000 O
BRANCH 64 68
ATOM     65  C1  IDS B   4      28.058  17.452  14.1100  0.00  0.00     0.000 C
ATOM     66  C2  IDS B   4      27.902  15.985  14.5290  0.00  0.00     0.000 C
ATOM     67  C3  IDS B   4      28.404  15.674  15.9290  0.00  0.00     0.000 C
ATOM     68  C4  IDS B   4      28.057  16.757  16.9330  0.00  0.00     0.000 C
ATOM     69  C5  IDS B   4      28.349  18.118  16.2880  0.00  0.00     0.000 C
ATOM     70  O5  IDS B   4      27.526  18.277  15.1300  0.00  0.00     0.000 O
ATOM     71   O  IDS B   4      29.807  15.530  15.8480  0.00  0.00     0.000 O
ATOM     73  HD  IDS B   4      29.000  15.566  15.5360  0.00  0.00     0.000 HD
BRANCH 66 73
ATOM     73   O  IDS B   4      26.472  15.647  14.5420  0.00  0.00     0.000 O
ATOM     74   S  IDS B   4      25.987  14.370  13.6760  0.00  0.00     0.000 S
ATOM     75   O  IDS B   4      26.416  14.610  12.3150  0.00  0.00     0.000 OA
ATOM     76   O  IDS B   4      24.557  14.415  13.8570  0.00  0.00     0.000 OA
ATOM     77   O  IDS B   4      26.626  13.227  14.2830  0.00  0.00     0.000 OA
ENDBRANCH 66 73
BRANCH 69 78
ATOM     78   C  IDS B   4      28.260  19.300  17.2440  0.00  0.00     0.000 C
ATOM     79   O  IDS B   4      27.170  19.847  17.4080  0.00  0.00     0.000 OA
ATOM     80   O  IDS B   4      29.267  19.606  17.9090  0.00  0.00     0.000 OA
ENDBRANCH 69 78
BRANCH 65 81
ATOM     81  O4  SGN B   5      29.350  17.684  13.7460  0.00  0.00     0.000 O
BRANCH 81 85
ATOM     82  C1  SGN B   5      31.903  20.704  12.3310  0.00  0.00     0.000 C
ATOM     83  C2  SGN B   5      31.882  20.462  13.8480  0.00  0.00     0.000 C
ATOM     84  C3  SGN B   5      31.291  19.075  14.1380  0.00  0.00     0.000 C
ATOM     85  C4  SGN B   5      29.918  18.972  13.4980  0.00  0.00     0.000 C
ATOM     86  C5  SGN B   5      30.070  19.206  11.9970  0.00  0.00     0.000 C
ATOM     87  O5  SGN B   5      30.609  20.525  11.7870  0.00  0.00     0.000 O
ATOM     88   O  SGN B   5      31.215  18.869  15.5320  0.00  0.00     0.000 O
ATOM     90  HD  SGN B   5      31.820  18.539  15.0080  0.00  0.00     0.000 HD
BRANCH 83 92
ATOM     90   N  SGN B   5      32.909  21.513  13.7140  0.00  0.00     0.000 N
ATOM     92  HD  SGN B   5      32.663  22.118  13.1460  0.00  0.00     0.000 HD
ATOM     92   S  SGN B   5      33.588  22.074  15.0480  0.00  0.00     0.000 S
ATOM     93   O  SGN B   5      34.515  23.063  14.5850  0.00  0.00     0.000 OA
ATOM     94   O  SGN B   5      32.513  22.448  15.9000  0.00  0.00     0.000 OA
ATOM     95   O  SGN B   5      34.262  20.871  15.6720  0.00  0.00     0.000 OA
ENDBRANCH 83 92
BRANCH 86 96
ATOM     96   C  SGN B   5      28.773  19.120  11.2200  0.00  0.00     0.000 C
ATOM     97   O  SGN B   5      27.810  20.036  11.7480  0.00  0.00     0.000 O
ATOM     98   S  SGN B   5      27.099  21.002  10.6840  0.00  0.00     0.000 S
ATOM     99   O  SGN B   5      26.068  21.637  11.4710  0.00  0.00     0.000 OA
ATOM    100   O  SGN B   5      28.089  21.886  10.1820  0.00  0.00     0.000 OA
ATOM    101   O  SGN B   5      26.586  20.118   9.6890  0.00  0.00     0.000 OA
ENDBRANCH 86 96
BRANCH 82 102
ATOM    102  O4  IDS B   6      32.803  19.908  11.6860  0.00  0.00     0.000 O
BRANCH 102 106
ATOM    103  C1  IDS B   6      35.725  19.552   9.5420  0.00  0.00     0.000 C
ATOM    104  C2  IDS B   6      35.565  20.777  10.4570  0.00  0.00     0.000 C
ATOM    105  C3  IDS B   6      34.202  21.440  10.4110  0.00  0.00     0.000 C
ATOM    106  C4  IDS B   6      33.063  20.437  10.3610  0.00  0.00     0.000 C
ATOM    107  C5  IDS B   6      33.409  19.311   9.3830  0.00  0.00     0.000 C
ATOM    108  O5  IDS B   6      34.637  18.666   9.7260  0.00  0.00     0.000 O
ATOM    109   O  IDS B   6      34.167  22.300   9.2830  0.00  0.00     0.000 O
ATOM    111  HD  IDS B   6      34.774  21.977   8.7560  0.00  0.00     0.000 HD
BRANCH 104 111
ATOM    111   O  IDS B   6      35.747  20.358  11.8550  0.00  0.00     0.000 O
ATOM    112   S  IDS B   6      37.076  20.826  12.6150  0.00  0.00     0.000 S
ATOM    113   O  IDS B   6      38.164  20.291  11.8110  0.00  0.00     0.000 OA
ATOM    114   O  IDS B   6      37.058  22.289  12.7250  0.00  0.00     0.000 OA
ATOM    115   O  IDS B   6      36.881  20.137  13.8720  0.00  0.00     0.000 OA
ENDBRANCH 104 111
BRANCH 107 116
ATOM    116   C  IDS B   6      32.277  18.292   9.3670  0.00  0.00     0.000 C
ATOM    117   O  IDS B   6      32.468  17.260   9.9590  0.00  0.00     0.000 OA
ATOM    118   O  IDS B   6      31.233  18.511   8.7740  0.00  0.00     0.000 OA
ENDBRANCH 107 116
BRANCH 103 119
ATOM    119  O4  SGN B   7      35.999  20.092   8.3270  0.00  0.00     0.000 O
BRANCH 119 123
ATOM    120  C1  SGN B   7      36.815  18.494   4.5500  0.00  0.00     0.000 C
ATOM    121  C2  SGN B   7      35.412  19.084   4.7870  0.00  0.00     0.000 C
ATOM    122  C3  SGN B   7      35.406  19.969   6.0400  0.00  0.00     0.000 C
ATOM    123  C4  SGN B   7      35.953  19.188   7.2230  0.00  0.00     0.000 C
ATOM    124  C5  SGN B   7      37.348  18.637   6.8850  0.00  0.00     0.000 C
ATOM    125  O5  SGN B   7      37.306  17.810   5.7010  0.00  0.00     0.000 O
ATOM    126   O  SGN B   7      34.068  20.420   6.2850  0.00  0.00     0.000 O
ATOM    128  HD  SGN B   7      34.626  20.028   5.7510  0.00  0.00     0.000 HD
BRANCH 121 130
ATOM    128   N  SGN B   7      35.097  18.554   3.4580  0.00  0.00     0.000 N
ATOM    130  HD  SGN B   7      34.346  18.240   3.7540  0.00  0.00     0.000 HD
ATOM    130   S  SGN B   7      33.977  19.218   2.5110  0.00  0.00     0.000 S
ATOM    131   O  SGN B   7      34.292  20.606   2.4790  0.00  0.00     0.000 OA
ATOM    132   O  SGN B   7      33.910  18.471   1.3070  0.00  0.00     0.000 OA
ATOM    133   O  SGN B   7      32.678  18.826   3.2930  0.00  0.00     0.000 OA
ENDBRANCH 121 130
BRANCH 124 134
ATOM    134   C  SGN B   7      37.925  17.752   7.9510  0.00  0.00     0.000 C
ATOM    135   O  SGN B   7      39.129  17.152   7.4440  0.00  0.00     0.000 O
ATOM    136   S  SGN B   7      39.972  16.305   8.4650  0.00  0.00     0.000 S
ATOM    137   O  SGN B   7      41.059  15.726   7.7120  0.00  0.00     0.000 OA
ATOM    138   O  SGN B   7      39.055  15.316   8.9830  0.00  0.00     0.000 OA
ATOM    139   O  SGN B   7      40.389  17.307   9.4330  0.00  0.00     0.000 OA
ENDBRANCH 124 134
BRANCH 120 140
ATOM    140  O4  IDS B   8      37.932  19.141   4.1990  0.00  0.00     0.000 O
BRANCH 140 144
ATOM    141  C1  IDS B   8      40.214  21.924   4.1170  0.00  0.00     0.000 C
ATOM    142  C2  IDS B   8      38.675  22.152   4.1340  0.00  0.00     0.000 C
ATOM    143  C3  IDS B   8      37.927  21.294   3.0970  0.00  0.00     0.000 C
ATOM    144  C4  IDS B   8      38.440  19.856   3.0660  0.00  0.00     0.000 C
ATOM    145  C5  IDS B   8      39.976  19.841   3.0790  0.00  0.00     0.000 C
ATOM    146  O5  IDS B   8      40.501  20.534   4.2090  0.00  0.00     0.000 O
BRANCH 142 147
ATOM    147   O  IDS B   8      38.136  21.794   5.4730  0.00  0.00     0.000 O
ATOM    148   S  IDS B   8      37.693  22.942   6.5300  0.00  0.00     0.000 S
ATOM    149   O  IDS B   8      38.274  24.191   6.0900  0.00  0.00     0.000 OA
ATOM    150   O  IDS B   8      36.242  22.956   6.5000  0.00  0.00     0.000 OA
ATOM    151   O  IDS B   8      38.232  22.514   7.8060  0.00  0.00     0.000 OA
ENDBRANCH 142 147
BRANCH 145 152
ATOM    152   C  IDS B   8      40.546  18.439   3.1480  0.00  0.00     0.000 C
ATOM    153   O  IDS B   8      40.512  17.722   2.1540  0.00  0.00     0.000 OA
ATOM    154   O  IDS B   8      41.050  18.045   4.1850  0.00  0.00     0.000 OA
ENDBRANCH 145 152
ENDBRANCH 140 144
ENDBRANCH 120 140
ENDBRANCH 119 123
ENDBRANCH 103 119
ENDBRANCH 102 106
ENDBRANCH 82 102
ENDBRANCH 81 85
ENDBRANCH 65 81
ENDBRANCH 64 68
ENDBRANCH 41 64
ENDBRANCH 40 44
ENDBRANCH 24 40
ENDBRANCH 23 27
ENDBRANCH 1 23
TORSDOF 31
ENDMDL
MODEL 19
REMARK VINA RESULT:      -7.4     10.520     21.040
ROOT
ATOM      1  C1  SGN B   1      18.711   6.120  43.6770  0.00  0.00     0.000 C
ATOM      2  C2  SGN B   1      20.228   6.289  43.8600  0.00  0.00     0.000 C
ATOM      3  C3  SGN B   1      20.858   6.921  42.6150  0.00  0.00     0.000 C
ATOM      4  C4  SGN B   1      20.521   6.095  41.3770  0.00  0.00     0.000 C
ATOM      5  C5  SGN B   1      19.015   5.848  41.3370  0.00  0.00     0.000 C
ATOM      6  O5  SGN B   1      18.595   5.235  42.5710  0.00  0.00     0.000 O
ATOM      7   O  SGN B   1      22.268   7.035  42.7700  0.00  0.00     0.000 O
ATOM      9  HD  SGN B   1      22.153   6.178  42.8250  0.00  0.00     0.000 HD
ATOM      9   O  SGN B   1      20.932   6.796  40.2180  0.00  0.00     0.000 O
ATOM     11  HD  SGN B   1      20.817   5.939  40.2730  0.00  0.00     0.000 HD
ENDROOT
BRANCH 2 13
ATOM     11   N  SGN B   1      20.466   5.762  45.2170  0.00  0.00     0.000 N
ATOM     13  HD  SGN B   1      19.853   6.357  45.0780  0.00  0.00     0.000 HD
ATOM     13   S  SGN B   1      20.165   6.627  46.5400  0.00  0.00     0.000 S
ATOM     14   O  SGN B   1      19.618   7.879  46.1880  0.00  0.00     0.000 OA
ATOM     15   O  SGN B   1      19.476   5.799  47.4730  0.00  0.00     0.000 OA
ATOM     16   O  SGN B   1      21.632   6.773  47.0500  0.00  0.00     0.000 OA
ENDBRANCH 2 13
BRANCH 5 17
ATOM     17   C  SGN B   1      18.570   4.946  40.2130  0.00  0.00     0.000 C
ATOM     18   O  SGN B   1      18.177   3.653  40.7150  0.00  0.00     0.000 O
ATOM     19   S  SGN B   1      18.729   2.389  39.9060  0.00  0.00     0.000 S
ATOM     20   O  SGN B   1      18.016   1.254  40.4520  0.00  0.00     0.000 OA
ATOM     21   O  SGN B   1      18.392   2.677  38.5310  0.00  0.00     0.000 OA
ATOM     22   O  SGN B   1      20.151   2.363  40.1700  0.00  0.00     0.000 OA
ENDBRANCH 5 17
BRANCH 1 23
ATOM     23  O4  IDS B   2      17.544   6.794  43.8830  0.00  0.00     0.000 O
BRANCH 23 27
ATOM     24  C1  IDS B   2      16.745   9.610  40.9400  0.00  0.00     0.000 C
ATOM     25  C2  IDS B   2      17.513  10.134  42.1730  0.00  0.00     0.000 C
ATOM     26  C3  IDS B   2      18.009   8.979  43.0380  0.00  0.00     0.000 C
ATOM     27  C4  IDS B   2      16.906   8.018  43.4590  0.00  0.00     0.000 C
ATOM     28  C5  IDS B   2      15.892   7.844  42.3110  0.00  0.00     0.000 C
ATOM     29  O5  IDS B   2      16.468   8.209  41.0660  0.00  0.00     0.000 O
ATOM     30   O  IDS B   2      18.600   9.501  44.2230  0.00  0.00     0.000 O
ATOM     32  HD  IDS B   2      18.018   9.737  44.8190  0.00  0.00     0.000 HD
BRANCH 25 32
ATOM     32   O  IDS B   2      18.693  10.950  41.7940  0.00  0.00     0.000 O
ATOM     33   S  IDS B   2      18.842  12.530  42.2480  0.00  0.00     0.000 S
ATOM     34   O  IDS B   2      19.987  13.054  41.5190  0.00  0.00     0.000 OA
ATOM     35   O  IDS B   2      17.622  13.248  41.9100  0.00  0.00     0.000 OA
ATOM     36   O  IDS B   2      19.091  12.505  43.6710  0.00  0.00     0.000 OA
ENDBRANCH 25 32
BRANCH 28 37
ATOM     37   C  IDS B   2      15.218   6.466  42.1470  0.00  0.00     0.000 C
ATOM     38   O  IDS B   2      14.431   6.223  43.0320  0.00  0.00     0.000 OA
ATOM     39   O  IDS B   2      15.365   5.661  41.1950  0.00  0.00     0.000 OA
ENDBRANCH 28 37
BRANCH 24 40
ATOM     40  O4  SUS B   3      16.168  10.482  40.0860  0.00  0.00     0.000 O
BRANCH 40 44
ATOM     41  C1  SUS B   3      15.636  10.269  35.9370  0.00  0.00     0.000 C
ATOM     42  C2  SUS B   3      14.874   9.242  36.7990  0.00  0.00     0.000 C
ATOM     43  C3  SUS B   3      14.795   9.753  38.2360  0.00  0.00     0.000 C
ATOM     44  C4  SUS B   3      16.202  10.052  38.7300  0.00  0.00     0.000 C
ATOM     45  C5  SUS B   3      16.806  11.135  37.8610  0.00  0.00     0.000 C
ATOM     46  O5  SUS B   3      16.896  10.633  36.5120  0.00  0.00     0.000 O
BRANCH 42 49
ATOM     47   N  SUS B   3      14.057   8.024  36.9320  0.00  0.00     0.000 N
ATOM     49  HD  SUS B   3      14.419   7.359  37.3520  0.00  0.00     0.000 HD
ATOM     49   S  SUS B   3      13.515   7.487  35.5230  0.00  0.00     0.000 S
ATOM     50   O  SUS B   3      14.598   7.239  34.6560  0.00  0.00     0.000 OA
ATOM     51   O  SUS B   3      12.923   6.157  36.0540  0.00  0.00     0.000 OA
ATOM     52   O  SUS B   3      12.491   8.338  35.0620  0.00  0.00     0.000 OA
ENDBRANCH 42 49
BRANCH 43 53
ATOM     53   O  SUS B   3      14.188   8.691  39.0620  0.00  0.00     0.000 O
ATOM     54   S  SUS B   3      12.743   9.027  39.7710  0.00  0.00     0.000 S
ATOM     55   O  SUS B   3      11.738   9.062  38.7180  0.00  0.00     0.000 OA
ATOM     56   O  SUS B   3      12.558   7.945  40.7220  0.00  0.00     0.000 OA
ATOM     57   O  SUS B   3      12.889  10.338  40.4090  0.00  0.00     0.000 OA
ENDBRANCH 43 53
BRANCH 45 58
ATOM     58   C  SUS B   3      18.173  11.560  38.3530  0.00  0.00     0.000 C
ATOM     59   S  SUS B   3      20.681  11.167  37.9780  0.00  0.00     0.000 S
ATOM     60   O  SUS B   3      19.182  11.007  37.4920  0.00  0.00     0.000 O
ATOM     61   O  SUS B   3      20.858  10.154  39.0010  0.00  0.00     0.000 OA
ATOM     62   O  SUS B   3      21.390  10.862  36.7650  0.00  0.00     0.000 OA
ATOM     63   O  SUS B   3      20.793  12.510  38.4260  0.00  0.00     0.000 OA
ENDBRANCH 45 58
BRANCH 41 64
ATOM     64  O4  IDS B   4      14.869  11.337  35.5410  0.00  0.00     0.000 O
BRANCH 64 68
ATOM     65  C1  IDS B   4      13.567  14.101  33.5560  0.00  0.00     0.000 C
ATOM     66  C2  IDS B   4      12.856  12.741  33.5480  0.00  0.00     0.000 C
ATOM     67  C3  IDS B   4      13.782  11.550  33.3730  0.00  0.00     0.000 C
ATOM     68  C4  IDS B   4      15.075  11.688  34.1550  0.00  0.00     0.000 C
ATOM     69  C5  IDS B   4      15.602  13.116  33.9580  0.00  0.00     0.000 C
ATOM     70  O5  IDS B   4      14.646  14.046  34.4720  0.00  0.00     0.000 O
ATOM     71   O  IDS B   4      14.068  11.439  31.9940  0.00  0.00     0.000 O
ATOM     73  HD  IDS B   4      13.624  11.709  32.6870  0.00  0.00     0.000 HD
BRANCH 66 73
ATOM     73   O  IDS B   4      12.202  12.542  34.8480  0.00  0.00     0.000 O
ATOM     74   S  IDS B   4      10.608  12.268  34.8610  0.00  0.00     0.000 S
ATOM     75   O  IDS B   4       9.995  13.386  34.1760  0.00  0.00     0.000 OA
ATOM     76   O  IDS B   4      10.327  12.221  36.2740  0.00  0.00     0.000 OA
ATOM     77   O  IDS B   4      10.427  11.010  34.1770  0.00  0.00     0.000 OA
ENDBRANCH 66 73
BRANCH 69 78
ATOM     78   C  IDS B   4      17.006  13.349  34.4990  0.00  0.00     0.000 C
ATOM     79   O  IDS B   4      17.961  12.871  33.8900  0.00  0.00     0.000 OA
ATOM     80   O  IDS B   4      17.148  14.103  35.4800  0.00  0.00     0.000 OA
ENDBRANCH 69 78
BRANCH 65 81
ATOM     81  O4  SGN B   5      13.865  14.464  32.2770  0.00  0.00     0.000 O
BRANCH 81 85
ATOM     82  C1  SGN B   5      13.800  17.723  29.6290  0.00  0.00     0.000 C
ATOM     83  C2  SGN B   5      15.078  17.523  30.4590  0.00  0.00     0.000 C
ATOM     84  C3  SGN B   5      15.123  16.085  30.9940  0.00  0.00     0.000 C
ATOM     85  C4  SGN B   5      13.852  15.802  31.7770  0.00  0.00     0.000 C
ATOM     86  C5  SGN B   5      12.660  16.010  30.8470  0.00  0.00     0.000 C
ATOM     87  O5  SGN B   5      12.660  17.378  30.3940  0.00  0.00     0.000 O
ATOM     88   O  SGN B   5      16.265  15.910  31.8040  0.00  0.00     0.000 O
ATOM     90  HD  SGN B   5      16.183  15.640  30.9850  0.00  0.00     0.000 HD
BRANCH 83 92
ATOM     90   N  SGN B   5      15.401  18.733  29.6770  0.00  0.00     0.000 N
ATOM     92  HD  SGN B   5      14.752  19.306  29.7100  0.00  0.00     0.000 HD
ATOM     92   S  SGN B   5      16.864  19.358  29.8310  0.00  0.00     0.000 S
ATOM     93   O  SGN B   5      16.853  20.500  28.9670  0.00  0.00     0.000 OA
ATOM     94   O  SGN B   5      17.068  19.523  31.2290  0.00  0.00     0.000 OA
ATOM     95   O  SGN B   5      17.800  18.264  29.3630  0.00  0.00     0.000 OA
ENDBRANCH 83 92
BRANCH 86 96
ATOM     96   C  SGN B   5      11.315  15.750  31.4940  0.00  0.00     0.000 C
ATOM     97   O  SGN B   5      10.684  16.982  31.8520  0.00  0.00     0.000 O
ATOM     98   S  SGN B   5       9.170  17.170  31.3570  0.00  0.00     0.000 S
ATOM     99   O  SGN B   5       8.762  18.378  32.0330  0.00  0.00     0.000 OA
ATOM    100   O  SGN B   5       9.193  17.262  29.9410  0.00  0.00     0.000 OA
ATOM    101   O  SGN B   5       8.496  16.003  31.8270  0.00  0.00     0.000 OA
ENDBRANCH 86 96
BRANCH 82 102
ATOM    102  O4  IDS B   6      13.818  17.022  28.4610  0.00  0.00     0.000 O
BRANCH 102 106
ATOM    103  C1  IDS B   6      13.516  17.074  24.8330  0.00  0.00     0.000 C
ATOM    104  C2  IDS B   6      13.958  18.329  25.6030  0.00  0.00     0.000 C
ATOM    105  C3  IDS B   6      13.111  18.670  26.8140  0.00  0.00     0.000 C
ATOM    106  C4  IDS B   6      12.716  17.444  27.6180  0.00  0.00     0.000 C
ATOM    107  C5  IDS B   6      12.292  16.319  26.6700  0.00  0.00     0.000 C
ATOM    108  O5  IDS B   6      13.320  15.998  25.7300  0.00  0.00     0.000 O
ATOM    109   O  IDS B   6      11.963  19.371  26.3660  0.00  0.00     0.000 O
ATOM    111  HD  IDS B   6      11.882  19.131  25.5380  0.00  0.00     0.000 HD
BRANCH 104 111
ATOM    111   O  IDS B   6      15.316  18.117  26.1250  0.00  0.00     0.000 O
ATOM    112   S  IDS B   6      16.490  19.054  25.5730  0.00  0.00     0.000 S
ATOM    113   O  IDS B   6      16.492  18.830  24.1350  0.00  0.00     0.000 OA
ATOM    114   O  IDS B   6      16.210  20.437  25.9770  0.00  0.00     0.000 OA
ATOM    115   O  IDS B   6      17.612  18.454  26.2620  0.00  0.00     0.000 OA
ENDBRANCH 104 111
BRANCH 107 116
ATOM    116   C  IDS B   6      11.933  15.083  27.4840  0.00  0.00     0.000 C
ATOM    117   O  IDS B   6      12.762  14.210  27.5400  0.00  0.00     0.000 OA
ATOM    118   O  IDS B   6      10.852  14.982  28.0430  0.00  0.00     0.000 OA
ENDBRANCH 107 116
BRANCH 103 119
ATOM    119  O4  SGN B   7      12.512  17.523  24.0370  0.00  0.00     0.000 O
BRANCH 119 123
ATOM    120  C1  SGN B   7      11.115  16.691  20.1830  0.00  0.00     0.000 C
ATOM    121  C2  SGN B   7      10.609  15.800  21.3330  0.00  0.00     0.000 C
ATOM    122  C3  SGN B   7      10.879  16.466  22.6890  0.00  0.00     0.000 C
ATOM    123  C4  SGN B   7      12.349  16.834  22.7960  0.00  0.00     0.000 C
ATOM    124  C5  SGN B   7      12.756  17.715  21.6040  0.00  0.00     0.000 C
ATOM    125  O5  SGN B   7      12.486  17.049  20.3500  0.00  0.00     0.000 O
ATOM    126   O  SGN B   7      10.488  15.569  23.7350  0.00  0.00     0.000 O
ATOM    128  HD  SGN B   7      10.488  15.758  22.8890  0.00  0.00     0.000 HD
BRANCH 121 130
ATOM    128   N  SGN B   7       9.734  15.296  20.2720  0.00  0.00     0.000 N
ATOM    130  HD  SGN B   7      10.189  14.559  20.2370  0.00  0.00     0.000 HD
ATOM    130   S  SGN B   7       8.648  14.136  20.5320  0.00  0.00     0.000 S
ATOM    131   O  SGN B   7       7.920  14.558  21.6790  0.00  0.00     0.000 OA
ATOM    132   O  SGN B   7       7.975  13.874  19.3110  0.00  0.00     0.000 OA
ATOM    133   O  SGN B   7       9.595  12.904  20.7330  0.00  0.00     0.000 OA
ENDBRANCH 121 130
BRANCH 124 134
ATOM    134   C  SGN B   7      14.221  18.037  21.5590  0.00  0.00     0.000 C
ATOM    135   O  SGN B   7      14.479  18.830  20.3880  0.00  0.00     0.000 O
ATOM    136   S  SGN B   7      15.934  19.402  20.2370  0.00  0.00     0.000 S
ATOM    137   O  SGN B   7      15.980  20.064  18.9550  0.00  0.00     0.000 OA
ATOM    138   O  SGN B   7      16.804  18.250  20.3080  0.00  0.00     0.000 OA
ATOM    139   O  SGN B   7      16.035  20.305  21.3730  0.00  0.00     0.000 OA
ENDBRANCH 124 134
BRANCH 120 140
ATOM    140  O4  IDS B   8      10.636  17.876  19.7890  0.00  0.00     0.000 O
BRANCH 140 144
ATOM    141  C1  IDS B   8       9.138  20.726  18.1780  0.00  0.00     0.000 C
ATOM    142  C2  IDS B   8      10.350  19.992  17.5380  0.00  0.00     0.000 C
ATOM    143  C3  IDS B   8      11.503  19.751  18.5310  0.00  0.00     0.000 C
ATOM    144  C4  IDS B   8      10.998  19.260  19.8870  0.00  0.00     0.000 C
ATOM    145  C5  IDS B   8       9.787  20.092  20.3350  0.00  0.00     0.000 C
ATOM    146  O5  IDS B   8       8.739  20.059  19.3690  0.00  0.00     0.000 O
BRANCH 142 147
ATOM    147   O  IDS B   8       9.916  18.661  17.0380  0.00  0.00     0.000 O
ATOM    148   S  IDS B   8       9.683  18.398  15.4550  0.00  0.00     0.000 S
ATOM    149   O  IDS B   8       9.586  19.687  14.8070  0.00  0.00     0.000 OA
ATOM    150   O  IDS B   8      10.835  17.633  15.0150  0.00  0.00     0.000 OA
ATOM    151   O  IDS B   8       8.440  17.655  15.3700  0.00  0.00     0.000 OA
ENDBRANCH 142 147
BRANCH 145 152
ATOM    152   C  IDS B   8       9.179  19.588  21.6280  0.00  0.00     0.000 C
ATOM    153   O  IDS B   8       8.105  18.998  21.6010  0.00  0.00     0.000 OA
ATOM    154   O  IDS B   8       9.774  19.755  22.6780  0.00  0.00     0.000 OA
ENDBRANCH 145 152
ENDBRANCH 140 144
ENDBRANCH 120 140
ENDBRANCH 119 123
ENDBRANCH 103 119
ENDBRANCH 102 106
ENDBRANCH 82 102
ENDBRANCH 81 85
ENDBRANCH 65 81
ENDBRANCH 64 68
ENDBRANCH 41 64
ENDBRANCH 40 44
ENDBRANCH 24 40
ENDBRANCH 23 27
ENDBRANCH 1 23
TORSDOF 31
ENDMDL
MODEL 20
REMARK VINA RESULT:      -7.4      3.093      4.958
ROOT
ATOM      1  C1  SGN B   1      28.389  11.676  14.4100  0.00  0.00     0.000 C
ATOM      2  C2  SGN B   1      29.325  10.616  15.0130  0.00  0.00     0.000 C
ATOM      3  C3  SGN B   1      29.581   9.485  14.0110  0.00  0.00     0.000 C
ATOM      4  C4  SGN B   1      28.259   8.882  13.5470  0.00  0.00     0.000 C
ATOM      5  C5  SGN B   1      27.329  10.006  13.0950  0.00  0.00     0.000 C
ATOM      6  O5  SGN B   1      27.183  10.967  14.1580  0.00  0.00     0.000 O
ATOM      7   O  SGN B   1      30.411   8.484  14.5880  0.00  0.00     0.000 O
ATOM      9  HD  SGN B   1      29.723   8.466  15.1130  0.00  0.00     0.000 HD
ATOM      9   O  SGN B   1      28.499   7.987  12.4780  0.00  0.00     0.000 O
ATOM     11  HD  SGN B   1      27.811   7.969  13.0030  0.00  0.00     0.000 HD
ENDROOT
BRANCH 2 13
ATOM     11   N  SGN B   1      29.461  11.325  16.2990  0.00  0.00     0.000 N
ATOM     13  HD  SGN B   1      29.794  11.661  15.5740  0.00  0.00     0.000 HD
ATOM     13   S  SGN B   1      30.696  12.308  16.6110  0.00  0.00     0.000 S
ATOM     14   O  SGN B   1      31.539  12.403  15.4840  0.00  0.00     0.000 OA
ATOM     15   O  SGN B   1      30.185  13.498  17.2050  0.00  0.00     0.000 OA
ATOM     16   O  SGN B   1      31.362  11.475  17.7500  0.00  0.00     0.000 OA
ENDBRANCH 2 13
BRANCH 5 17
ATOM     17   C  SGN B   1      25.945   9.542  12.7150  0.00  0.00     0.000 C
ATOM     18   O  SGN B   1      25.173   9.212  13.8870  0.00  0.00     0.000 O
ATOM     19   S  SGN B   1      24.346   7.845  13.8190  0.00  0.00     0.000 S
ATOM     20   O  SGN B   1      23.493   7.865  14.9890  0.00  0.00     0.000 OA
ATOM     21   O  SGN B   1      23.620   7.933  12.5730  0.00  0.00     0.000 OA
ATOM     22   O  SGN B   1      25.343   6.798  13.8460  0.00  0.00     0.000 OA
ENDBRANCH 5 17
BRANCH 1 23
ATOM     23  O4  IDS B   2      28.434  12.830  13.6840  0.00  0.00     0.000 O
BRANCH 23 27
ATOM     24  C1  IDS B   2      26.513  16.066  15.4350  0.00  0.00     0.000 C
ATOM     25  C2  IDS B   2      25.622  15.153  14.5650  0.00  0.00     0.000 C
ATOM     26  C3  IDS B   2      26.344  13.853  14.2220  0.00  0.00     0.000 C
ATOM     27  C4  IDS B   2      27.700  14.067  13.5630  0.00  0.00     0.000 C
ATOM     28  C5  IDS B   2      28.403  15.288  14.1900  0.00  0.00     0.000 C
ATOM     29  O5  IDS B   2      27.863  15.583  15.4690  0.00  0.00     0.000 O
ATOM     30   O  IDS B   2      25.544  13.097  13.3200  0.00  0.00     0.000 O
ATOM     32  HD  IDS B   2      25.594  13.376  12.5020  0.00  0.00     0.000 HD
BRANCH 25 32
ATOM     32   O  IDS B   2      24.353  14.794  15.2450  0.00  0.00     0.000 O
ATOM     33   S  IDS B   2      22.890  15.326  14.6960  0.00  0.00     0.000 S
ATOM     34   O  IDS B   2      21.920  14.973  15.7210  0.00  0.00     0.000 OA
ATOM     35   O  IDS B   2      22.945  16.766  14.4890  0.00  0.00     0.000 OA
ATOM     36   O  IDS B   2      22.647  14.602  13.4700  0.00  0.00     0.000 OA
ENDBRANCH 25 32
BRANCH 28 37
ATOM     37   C  IDS B   2      29.940  15.252  14.3090  0.00  0.00     0.000 C
ATOM     38   O  IDS B   2      30.351  15.880  15.2570  0.00  0.00     0.000 OA
ATOM     39   O  IDS B   2      30.739  14.610  13.5840  0.00  0.00     0.000 OA
ENDBRANCH 28 37
BRANCH 24 40
ATOM     40  O4  SUS B   3      26.077  17.293  15.7880  0.00  0.00     0.000 O
BRANCH 40 44
ATOM     41  C1  SUS B   3      25.838  18.955  19.6250  0.00  0.00     0.000 C
ATOM     42  C2  SUS B   3      27.033  19.378  18.7470  0.00  0.00     0.000 C
ATOM     43  C3  SUS B   3      26.711  19.082  17.2840  0.00  0.00     0.000 C
ATOM     44  C4  SUS B   3      26.334  17.615  17.1500  0.00  0.00     0.000 C
ATOM     45  C5  SUS B   3      25.098  17.348  17.9850  0.00  0.00     0.000 C
ATOM     46  O5  SUS B   3      25.422  17.610  19.3650  0.00  0.00     0.000 O
BRANCH 42 49
ATOM     47   N  SUS B   3      27.307  20.763  19.1670  0.00  0.00     0.000 N
ATOM     49  HD  SUS B   3      27.224  21.375  18.5590  0.00  0.00     0.000 HD
ATOM     49   S  SUS B   3      28.748  20.929  19.8470  0.00  0.00     0.000 S
ATOM     50   O  SUS B   3      29.751  20.496  18.9570  0.00  0.00     0.000 OA
ATOM     51   O  SUS B   3      28.727  22.476  19.9370  0.00  0.00     0.000 OA
ATOM     52   O  SUS B   3      28.725  20.355  21.1340  0.00  0.00     0.000 OA
ENDBRANCH 42 49
BRANCH 43 53
ATOM     53   O  SUS B   3      27.920  19.365  16.4860  0.00  0.00     0.000 O
ATOM     54   S  SUS B   3      27.876  20.678  15.4980  0.00  0.00     0.000 S
ATOM     55   O  SUS B   3      27.912  21.862  16.3450  0.00  0.00     0.000 OA
ATOM     56   O  SUS B   3      29.049  20.524  14.6560  0.00  0.00     0.000 OA
ATOM     57   O  SUS B   3      26.616  20.596  14.7540  0.00  0.00     0.000 OA
ENDBRANCH 43 53
BRANCH 45 58
ATOM     58   C  SUS B   3      24.602  15.928  17.8240  0.00  0.00     0.000 C
ATOM     59   S  SUS B   3      25.054  13.518  18.5830  0.00  0.00     0.000 S
ATOM     60   O  SUS B   3      25.289  15.075  18.7550  0.00  0.00     0.000 O
ATOM     61   O  SUS B   3      25.889  13.131  17.4610  0.00  0.00     0.000 OA
ATOM     62   O  SUS B   3      25.553  13.032  19.8410  0.00  0.00     0.000 OA
ATOM     63   O  SUS B   3      23.657  13.365  18.3820  0.00  0.00     0.000 OA
ENDBRANCH 45 58
BRANCH 41 64
ATOM     64  O4  IDS B   4      24.812  19.868  19.6410  0.00  0.00     0.000 O
BRANCH 64 68
ATOM     65  C1  IDS B   4      22.528  21.600  21.8900  0.00  0.00     0.000 C
ATOM     66  C2  IDS B   4      23.728  20.827  22.4520  0.00  0.00     0.000 C
ATOM     67  C3  IDS B   4      23.913  19.439  21.8630  0.00  0.00     0.000 C
ATOM     68  C4  IDS B   4      23.657  19.395  20.3680  0.00  0.00     0.000 C
ATOM     69  C5  IDS B   4      22.381  20.197  20.0780  0.00  0.00     0.000 C
ATOM     70  O5  IDS B   4      22.580  21.556  20.4750  0.00  0.00     0.000 O
ATOM     71   O  IDS B   4      23.012  18.578  22.5270  0.00  0.00     0.000 O
ATOM     73  HD  IDS B   4      23.478  19.299  22.4220  0.00  0.00     0.000 HD
BRANCH 66 73
ATOM     73   O  IDS B   4      24.959  21.559  22.1230  0.00  0.00     0.000 O
ATOM     74   S  IDS B   4      25.893  22.060  23.3450  0.00  0.00     0.000 S
ATOM     75   O  IDS B   4      25.054  22.877  24.1950  0.00  0.00     0.000 OA
ATOM     76   O  IDS B   4      26.920  22.796  22.6510  0.00  0.00     0.000 OA
ATOM     77   O  IDS B   4      26.360  20.856  23.9920  0.00  0.00     0.000 OA
ENDBRANCH 66 73
BRANCH 69 78
ATOM     78   C  IDS B   4      21.866  20.067  18.6510  0.00  0.00     0.000 C
ATOM     79   O  IDS B   4      22.182  20.925  17.8280  0.00  0.00     0.000 OA
ATOM     80   O  IDS B   4      21.233  19.042  18.3380  0.00  0.00     0.000 OA
ENDBRANCH 69 78
BRANCH 65 81
ATOM     81  O4  SGN B   5      21.384  21.150  22.4770  0.00  0.00     0.000 O
BRANCH 81 85
ATOM     82  C1  SGN B   5      17.455  22.305  23.4060  0.00  0.00     0.000 C
ATOM     83  C2  SGN B   5      18.013  22.759  22.0490  0.00  0.00     0.000 C
ATOM     84  C3  SGN B   5      19.225  21.893  21.6760  0.00  0.00     0.000 C
ATOM     85  C4  SGN B   5      20.249  21.958  22.7950  0.00  0.00     0.000 C
ATOM     86  C5  SGN B   5      19.589  21.464  24.0800  0.00  0.00     0.000 C
ATOM     87  O5  SGN B   5      18.475  22.324  24.3870  0.00  0.00     0.000 O
ATOM     88   O  SGN B   5      19.777  22.340  20.4580  0.00  0.00     0.000 O
ATOM     90  HD  SGN B   5      19.268  21.647  20.5540  0.00  0.00     0.000 HD
BRANCH 83 92
ATOM     90   N  SGN B   5      16.665  22.771  21.4480  0.00  0.00     0.000 N
ATOM     92  HD  SGN B   5      16.084  22.413  21.9820  0.00  0.00     0.000 HD
ATOM     92   S  SGN B   5      16.179  24.108  20.7190  0.00  0.00     0.000 S
ATOM     93   O  SGN B   5      14.858  23.802  20.2610  0.00  0.00     0.000 OA
ATOM     94   O  SGN B   5      16.384  25.156  21.6580  0.00  0.00     0.000 OA
ATOM     95   O  SGN B   5      17.169  24.312  19.5920  0.00  0.00     0.000 OA
ENDBRANCH 83 92
BRANCH 86 96
ATOM     96   C  SGN B   5      20.504  21.463  25.2870  0.00  0.00     0.000 C
ATOM     97   O  SGN B   5      20.371  20.240  26.0160  0.00  0.00     0.000 O
ATOM     98   S  SGN B   5      21.736  19.472  26.3610  0.00  0.00     0.000 S
ATOM     99   O  SGN B   5      21.295  18.423  27.2490  0.00  0.00     0.000 OA
ATOM    100   O  SGN B   5      22.289  19.016  25.1360  0.00  0.00     0.000 OA
ATOM    101   O  SGN B   5      22.544  20.456  27.0040  0.00  0.00     0.000 OA
ENDBRANCH 86 96
BRANCH 82 102
ATOM    102  O4  IDS B   6      16.874  21.074  23.3490  0.00  0.00     0.000 O
BRANCH 102 106
ATOM    103  C1  IDS B   6      14.138  18.683  23.5850  0.00  0.00     0.000 C
ATOM    104  C2  IDS B   6      13.968  19.997  22.8070  0.00  0.00     0.000 C
ATOM    105  C3  IDS B   6      14.451  21.239  23.5300  0.00  0.00     0.000 C
ATOM    106  C4  IDS B   6      15.757  21.016  24.2730  0.00  0.00     0.000 C
ATOM    107  C5  IDS B   6      15.717  19.666  24.9950  0.00  0.00     0.000 C
ATOM    108  O5  IDS B   6      15.455  18.588  24.0950  0.00  0.00     0.000 O
ATOM    109   O  IDS B   6      13.430  21.656  24.4220  0.00  0.00     0.000 O
ATOM    111  HD  IDS B   6      12.967  20.936  24.5600  0.00  0.00     0.000 HD
BRANCH 104 111
ATOM    111   O  IDS B   6      14.767  19.930  21.5740  0.00  0.00     0.000 O
ATOM    112   S  IDS B   6      13.991  19.802  20.1800  0.00  0.00     0.000 S
ATOM    113   O  IDS B   6      13.208  18.582  20.3070  0.00  0.00     0.000 OA
ATOM    114   O  IDS B   6      13.199  21.020  19.9750  0.00  0.00     0.000 OA
ATOM    115   O  IDS B   6      15.127  19.681  19.2910  0.00  0.00     0.000 OA
ENDBRANCH 104 111
BRANCH 107 116
ATOM    116   C  IDS B   6      17.044  19.435  25.7060  0.00  0.00     0.000 C
ATOM    117   O  IDS B   6      17.760  18.579  25.2520  0.00  0.00     0.000 OA
ATOM    118   O  IDS B   6      17.357  20.081  26.6930  0.00  0.00     0.000 OA
ENDBRANCH 107 116
BRANCH 103 119
ATOM    119  O4  SGN B   7      13.058  18.655  24.4080  0.00  0.00     0.000 O
BRANCH 119 123
ATOM    120  C1  SGN B   7      10.778  15.720  26.3250  0.00  0.00     0.000 C
ATOM    121  C2  SGN B   7      12.245  15.883  26.7650  0.00  0.00     0.000 C
ATOM    122  C3  SGN B   7      12.806  17.225  26.2770  0.00  0.00     0.000 C
ATOM    123  C4  SGN B   7      12.594  17.356  24.7780  0.00  0.00     0.000 C
ATOM    124  C5  SGN B   7      11.105  17.171  24.4420  0.00  0.00     0.000 C
ATOM    125  O5  SGN B   7      10.620  15.896  24.9180  0.00  0.00     0.000 O
ATOM    126   O  SGN B   7      14.196  17.300  26.6160  0.00  0.00     0.000 O
ATOM    128  HD  SGN B   7      13.439  16.887  26.7010  0.00  0.00     0.000 HD
BRANCH 121 130
ATOM    128   N  SGN B   7      11.860  15.378  28.0850  0.00  0.00     0.000 N
ATOM    130  HD  SGN B   7      11.727  14.589  27.7520  0.00  0.00     0.000 HD
ATOM    130   S  SGN B   7      12.815  14.408  28.9450  0.00  0.00     0.000 S
ATOM    131   O  SGN B   7      14.084  15.052  28.9600  0.00  0.00     0.000 OA
ATOM    132   O  SGN B   7      12.154  14.096  30.1610  0.00  0.00     0.000 OA
ATOM    133   O  SGN B   7      12.720  13.095  28.0960  0.00  0.00     0.000 OA
ENDBRANCH 121 130
BRANCH 124 134
ATOM    134   C  SGN B   7      10.810  17.169  22.9710  0.00  0.00     0.000 C
ATOM    135   O  SGN B   7      10.264  15.887  22.6160  0.00  0.00     0.000 O
ATOM    136   S  SGN B   7       9.744  15.732  21.1420  0.00  0.00     0.000 S
ATOM    137   O  SGN B   7       9.345  14.352  20.9950  0.00  0.00     0.000 OA
ATOM    138   O  SGN B   7      10.867  16.088  20.3050  0.00  0.00     0.000 OA
ATOM    139   O  SGN B   7       8.637  16.675  21.0990  0.00  0.00     0.000 OA
ENDBRANCH 124 134
BRANCH 120 140
ATOM    140  O4  IDS B   8       9.712  16.412  26.7430  0.00  0.00     0.000 O
BRANCH 140 144
ATOM    141  C1  IDS B   8       6.665  17.729  28.1370  0.00  0.00     0.000 C
ATOM    142  C2  IDS B   8       6.868  17.644  26.5980  0.00  0.00     0.000 C
ATOM    143  C3  IDS B   8       8.221  18.217  26.1350  0.00  0.00     0.000 C
ATOM    144  C4  IDS B   8       9.370  17.772  27.0370  0.00  0.00     0.000 C
ATOM    145  C5  IDS B   8       8.968  17.908  28.5140  0.00  0.00     0.000 C
ATOM    146  O5  IDS B   8       7.786  17.166  28.8070  0.00  0.00     0.000 O
BRANCH 142 147
ATOM    147   O  IDS B   8       6.824  16.221  26.1700  0.00  0.00     0.000 O
ATOM    148   S  IDS B   8       6.136  15.791  24.7650  0.00  0.00     0.000 S
ATOM    149   O  IDS B   8       5.319  16.897  24.3210  0.00  0.00     0.000 OA
ATOM    150   O  IDS B   8       7.238  15.509  23.8650  0.00  0.00     0.000 OA
ATOM    151   O  IDS B   8       5.339  14.619  25.0740  0.00  0.00     0.000 OA
ENDBRANCH 142 147
BRANCH 145 152
ATOM    152   C  IDS B   8      10.032  17.388  29.4590  0.00  0.00     0.000 C
ATOM    153   O  IDS B   8       9.789  16.418  30.1680  0.00  0.00     0.000 OA
ATOM    154   O  IDS B   8      11.124  17.926  29.4890  0.00  0.00     0.000 OA
ENDBRANCH 145 152
ENDBRANCH 140 144
ENDBRANCH 120 140
ENDBRANCH 119 123
ENDBRANCH 103 119
ENDBRANCH 102 106
ENDBRANCH 82 102
ENDBRANCH 81 85
ENDBRANCH 65 81
ENDBRANCH 64 68
ENDBRANCH 41 64
ENDBRANCH 40 44
ENDBRANCH 24 40
ENDBRANCH 23 27
ENDBRANCH 1 23
TORSDOF 31
ENDMDL
MODEL 21
REMARK VINA RESULT:      -7.3      7.510     20.550
ROOT
ATOM      1  C1  SGN B   1      27.149  16.322  33.2320  0.00  0.00     0.000 C
ATOM      2  C2  SGN B   1      27.553  15.201  34.2030  0.00  0.00     0.000 C
ATOM      3  C3  SGN B   1      26.315  14.467  34.7300  0.00  0.00     0.000 C
ATOM      4  C4  SGN B   1      25.349  15.458  35.3720  0.00  0.00     0.000 C
ATOM      5  C5  SGN B   1      25.106  16.615  34.4060  0.00  0.00     0.000 C
ATOM      6  O5  SGN B   1      26.366  17.201  34.0280  0.00  0.00     0.000 O
ATOM      7   O  SGN B   1      26.689  13.459  35.6620  0.00  0.00     0.000 O
ATOM      9  HD  SGN B   1      26.981  14.176  36.0500  0.00  0.00     0.000 HD
ATOM      9   O  SGN B   1      24.130  14.802  35.6670  0.00  0.00     0.000 O
ATOM     11  HD  SGN B   1      24.422  15.519  36.0560  0.00  0.00     0.000 HD
ENDROOT
BRANCH 2 13
ATOM     11   N  SGN B   1      29.024  15.306  34.2120  0.00  0.00     0.000 N
ATOM     13  HD  SGN B   1      28.593  15.236  33.4650  0.00  0.00     0.000 HD
ATOM     13   S  SGN B   1      29.939  14.663  33.0560  0.00  0.00     0.000 S
ATOM     14   O  SGN B   1      29.127  14.066  32.0700  0.00  0.00     0.000 OA
ATOM     15   O  SGN B   1      30.918  15.623  32.6700  0.00  0.00     0.000 OA
ATOM     16   O  SGN B   1      30.666  13.587  33.9200  0.00  0.00     0.000 OA
ENDBRANCH 2 13
BRANCH 5 17
ATOM     17   C  SGN B   1      24.249  17.719  34.9740  0.00  0.00     0.000 C
ATOM     18   O  SGN B   1      24.615  18.005  36.3380  0.00  0.00     0.000 O
ATOM     19   S  SGN B   1      23.404  18.169  37.3700  0.00  0.00     0.000 S
ATOM     20   O  SGN B   1      24.011  18.675  38.5830  0.00  0.00     0.000 OA
ATOM     21   O  SGN B   1      22.520  19.114  36.7280  0.00  0.00     0.000 OA
ATOM     22   O  SGN B   1      22.845  16.843  37.5100  0.00  0.00     0.000 OA
ENDBRANCH 5 17
BRANCH 1 23
ATOM     23  O4  IDS B   2      26.917  16.534  31.9050  0.00  0.00     0.000 O
BRANCH 23 27
ATOM     24  C1  IDS B   2      27.042  17.761  27.9420  0.00  0.00     0.000 C
ATOM     25  C2  IDS B   2      28.365  17.905  28.7270  0.00  0.00     0.000 C
ATOM     26  C3  IDS B   2      28.293  17.161  30.0580  0.00  0.00     0.000 C
ATOM     27  C4  IDS B   2      27.108  17.571  30.9200  0.00  0.00     0.000 C
ATOM     28  C5  IDS B   2      25.877  17.840  30.0310  0.00  0.00     0.000 C
ATOM     29  O5  IDS B   2      26.014  17.203  28.7700  0.00  0.00     0.000 O
ATOM     30   O  IDS B   2      29.477  17.420  30.8030  0.00  0.00     0.000 O
ATOM     32  HD  IDS B   2      29.470  18.190  31.1990  0.00  0.00     0.000 HD
BRANCH 25 32
ATOM     32   O  IDS B   2      29.526  17.369  27.9750  0.00  0.00     0.000 O
ATOM     33   S  IDS B   2      29.811  15.748  27.8520  0.00  0.00     0.000 S
ATOM     34   O  IDS B   2      31.128  15.613  27.2520  0.00  0.00     0.000 OA
ATOM     35   O  IDS B   2      29.766  15.147  29.1780  0.00  0.00     0.000 OA
ATOM     36   O  IDS B   2      28.780  15.235  26.9800  0.00  0.00     0.000 OA
ENDBRANCH 25 32
BRANCH 28 37
ATOM     37   C  IDS B   2      24.486  17.494  30.6010  0.00  0.00     0.000 C
ATOM     38   O  IDS B   2      23.855  18.474  30.9200  0.00  0.00     0.000 OA
ATOM     39   O  IDS B   2      23.970  16.353  30.6920  0.00  0.00     0.000 OA
ENDBRANCH 28 37
BRANCH 24 40
ATOM     40  O4  SUS B   3      26.884  18.406  26.7670  0.00  0.00     0.000 O
BRANCH 40 44
ATOM     41  C1  SUS B   3      26.257  16.897  22.9100  0.00  0.00     0.000 C
ATOM     42  C2  SUS B   3      25.177  16.596  23.9690  0.00  0.00     0.000 C
ATOM     43  C3  SUS B   3      25.314  17.588  25.1230  0.00  0.00     0.000 C
ATOM     44  C4  SUS B   3      26.736  17.529  25.6560  0.00  0.00     0.000 C
ATOM     45  C5  SUS B   3      27.691  17.932  24.5510  0.00  0.00     0.000 C
ATOM     46  O5  SUS B   3      27.568  16.976  23.4790  0.00  0.00     0.000 O
BRANCH 42 49
ATOM     47   N  SUS B   3      24.237  15.542  24.3880  0.00  0.00     0.000 N
ATOM     49  HD  SUS B   3      24.585  14.827  24.7310  0.00  0.00     0.000 HD
ATOM     49   S  SUS B   3      23.243  15.099  23.2130  0.00  0.00     0.000 S
ATOM     50   O  SUS B   3      23.984  14.657  22.0990  0.00  0.00     0.000 OA
ATOM     51   O  SUS B   3      22.608  13.897  23.9590  0.00  0.00     0.000 OA
ATOM     52   O  SUS B   3      22.288  16.114  23.0010  0.00  0.00     0.000 OA
ENDBRANCH 42 49
BRANCH 43 53
ATOM     53   O  SUS B   3      24.364  17.189  26.1800  0.00  0.00     0.000 O
ATOM     54   S  SUS B   3      23.197  18.272  26.5870  0.00  0.00     0.000 S
ATOM     55   O  SUS B   3      22.253  18.333  25.4810  0.00  0.00     0.000 OA
ATOM     56   O  SUS B   3      22.631  17.736  27.8120  0.00  0.00     0.000 OA
ATOM     57   O  SUS B   3      23.874  19.559  26.7790  0.00  0.00     0.000 OA
ENDBRANCH 43 53
BRANCH 45 58
ATOM     58   C  SUS B   3      29.123  17.995  25.0350  0.00  0.00     0.000 C
ATOM     59   S  SUS B   3      31.229  19.460  24.9690  0.00  0.00     0.000 S
ATOM     60   O  SUS B   3      29.673  19.288  24.7300  0.00  0.00     0.000 O
ATOM     61   O  SUS B   3      31.861  18.815  23.8340  0.00  0.00     0.000 OA
ATOM     62   O  SUS B   3      31.348  20.893  24.9310  0.00  0.00     0.000 OA
ATOM     63   O  SUS B   3      31.489  18.862  26.2310  0.00  0.00     0.000 OA
ENDBRANCH 45 58
BRANCH 41 64
ATOM     64  O4  IDS B   4      25.940  17.945  22.0800  0.00  0.00     0.000 O
BRANCH 64 68
ATOM     65  C1  IDS B   4      25.380  18.886  18.6050  0.00  0.00     0.000 C
ATOM     66  C2  IDS B   4      25.411  17.407  19.0090  0.00  0.00     0.000 C
ATOM     67  C3  IDS B   4      26.571  17.028  19.9150  0.00  0.00     0.000 C
ATOM     68  C4  IDS B   4      26.860  18.075  20.9730  0.00  0.00     0.000 C
ATOM     69  C5  IDS B   4      26.817  19.455  20.3040  0.00  0.00     0.000 C
ATOM     70  O5  IDS B   4      25.509  19.680  19.7710  0.00  0.00     0.000 O
ATOM     71   O  IDS B   4      27.707  16.855  19.0920  0.00  0.00     0.000 O
ATOM     73  HD  IDS B   4      26.860  16.922  19.2620  0.00  0.00     0.000 HD
BRANCH 66 73
ATOM     73   O  IDS B   4      24.198  17.101  19.7790  0.00  0.00     0.000 O
ATOM     74   S  IDS B   4      23.023  16.268  19.0420  0.00  0.00     0.000 S
ATOM     75   O  IDS B   4      22.669  17.019  17.8570  0.00  0.00     0.000 OA
ATOM     76   O  IDS B   4      21.995  16.249  20.0530  0.00  0.00     0.000 OA
ATOM     77   O  IDS B   4      23.592  14.974  18.7500  0.00  0.00     0.000 OA
ENDBRANCH 66 73
BRANCH 69 78
ATOM     78   C  IDS B   4      27.302  20.598  21.1850  0.00  0.00     0.000 C
ATOM     79   O  IDS B   4      28.399  21.102  20.9500  0.00  0.00     0.000 OA
ATOM     80   O  IDS B   4      26.529  21.055  22.0470  0.00  0.00     0.000 OA
ENDBRANCH 69 78
BRANCH 65 81
ATOM     81  O4  SGN B   5      26.285  19.104  17.6110  0.00  0.00     0.000 O
BRANCH 81 85
ATOM     82  C1  SGN B   5      27.309  21.933  14.6810  0.00  0.00     0.000 C
ATOM     83  C2  SGN B   5      28.175  21.897  15.9490  0.00  0.00     0.000 C
ATOM     84  C3  SGN B   5      27.976  20.556  16.6690  0.00  0.00     0.000 C
ATOM     85  C4  SGN B   5      26.497  20.353  16.9490  0.00  0.00     0.000 C
ATOM     86  C5  SGN B   5      25.749  20.384  15.6190  0.00  0.00     0.000 C
ATOM     87  O5  SGN B   5      25.957  21.669  15.0020  0.00  0.00     0.000 O
ATOM     88   O  SGN B   5      28.724  20.539  17.8660  0.00  0.00     0.000 O
ATOM     90  HD  SGN B   5      28.950  20.148  17.1260  0.00  0.00     0.000 HD
BRANCH 83 92
ATOM     90   N  SGN B   5      29.339  22.402  15.1960  0.00  0.00     0.000 N
ATOM     92  HD  SGN B   5      29.172  22.429  14.3470  0.00  0.00     0.000 HD
ATOM     92   S  SGN B   5      30.115  23.674  15.7740  0.00  0.00     0.000 S
ATOM     93   O  SGN B   5      31.164  23.910  14.8290  0.00  0.00     0.000 OA
ATOM     94   O  SGN B   5      29.118  24.666  15.9950  0.00  0.00     0.000 OA
ATOM     95   O  SGN B   5      30.620  23.233  17.1300  0.00  0.00     0.000 OA
ENDBRANCH 83 92
BRANCH 86 96
ATOM     96   C  SGN B   5      24.253  20.180  15.7440  0.00  0.00     0.000 C
ATOM     97   O  SGN B   5      23.615  21.389  16.1650  0.00  0.00     0.000 O
ATOM     98   S  SGN B   5      22.363  21.869  15.2860  0.00  0.00     0.000 S
ATOM     99   O  SGN B   5      21.830  22.962  16.0630  0.00  0.00     0.000 OA
ATOM    100   O  SGN B   5      22.855  22.236  14.0070  0.00  0.00     0.000 OA
ATOM    101   O  SGN B   5      21.501  20.732  15.2450  0.00  0.00     0.000 OA
ENDBRANCH 86 96
BRANCH 82 102
ATOM    102  O4  IDS B   6      27.747  21.068  13.7230  0.00  0.00     0.000 O
BRANCH 102 106
ATOM    103  C1  IDS B   6      29.040  20.174  10.4390  0.00  0.00     0.000 C
ATOM    104  C2  IDS B   6      29.614  21.373  11.2090  0.00  0.00     0.000 C
ATOM    105  C3  IDS B   6      28.579  22.311  11.8010  0.00  0.00     0.000 C
ATOM    106  C4  IDS B   6      27.399  21.574  12.4090  0.00  0.00     0.000 C
ATOM    107  C5  IDS B   6      26.969  20.433  11.4820  0.00  0.00     0.000 C
ATOM    108  O5  IDS B   6      28.044  19.532  11.2120  0.00  0.00     0.000 O
ATOM    109   O  IDS B   6      28.149  23.195  10.7800  0.00  0.00     0.000 O
ATOM    111  HD  IDS B   6      28.326  22.769  10.0470  0.00  0.00     0.000 HD
BRANCH 104 111
ATOM    111   O  IDS B   6      30.391  20.879  12.3550  0.00  0.00     0.000 O
ATOM    112   S  IDS B   6      31.988  20.948  12.2680  0.00  0.00     0.000 S
ATOM    113   O  IDS B   6      32.325  20.164  11.0890  0.00  0.00     0.000 OA
ATOM    114   O  IDS B   6      32.389  22.358  12.2010  0.00  0.00     0.000 OA
ATOM    115   O  IDS B   6      32.319  20.300  13.5190  0.00  0.00     0.000 OA
ENDBRANCH 104 111
BRANCH 107 116
ATOM    116   C  IDS B   6      25.809  19.677  12.1180  0.00  0.00     0.000 C
ATOM    117   O  IDS B   6      26.039  18.561  12.5100  0.00  0.00     0.000 OA
ATOM    118   O  IDS B   6      24.700  20.179  12.2130  0.00  0.00     0.000 OA
ENDBRANCH 107 116
BRANCH 103 119
ATOM    119  O4  SGN B   7      28.761  20.684   9.2110  0.00  0.00     0.000 O
BRANCH 119 123
ATOM    120  C1  SGN B   7      28.485  19.196   5.3130  0.00  0.00     0.000 C
ATOM    121  C2  SGN B   7      27.249  19.052   6.2200  0.00  0.00     0.000 C
ATOM    122  C3  SGN B   7      27.363  19.981   7.4360  0.00  0.00     0.000 C
ATOM    123  C4  SGN B   7      28.682  19.733   8.1490  0.00  0.00     0.000 C
ATOM    124  C5  SGN B   7      29.849  19.893   7.1600  0.00  0.00     0.000 C
ATOM    125  O5  SGN B   7      29.700  19.001   6.0330  0.00  0.00     0.000 O
ATOM    126   O  SGN B   7      26.249  19.749   8.3060  0.00  0.00     0.000 O
ATOM    128  HD  SGN B   7      26.623  19.612   7.5370  0.00  0.00     0.000 HD
BRANCH 121 130
ATOM    128   N  SGN B   7      26.590  17.996   5.4480  0.00  0.00     0.000 N
ATOM    130  HD  SGN B   7      26.071  17.819   6.1180  0.00  0.00     0.000 HD
ATOM    130   S  SGN B   7      25.099  18.162   4.8630  0.00  0.00     0.000 S
ATOM    131   O  SGN B   7      25.103  19.410   4.1800  0.00  0.00     0.000 OA
ATOM    132   O  SGN B   7      24.754  16.969   4.1760  0.00  0.00     0.000 OA
ATOM    133   O  SGN B   7      24.269  18.108   6.1900  0.00  0.00     0.000 OA
ENDBRANCH 121 130
BRANCH 124 134
ATOM    134   C  SGN B   7      31.189  19.555   7.7420  0.00  0.00     0.000 C
ATOM    135   O  SGN B   7      31.899  18.725   6.8070  0.00  0.00     0.000 O
ATOM    136   S  SGN B   7      33.390  18.386   7.1640  0.00  0.00     0.000 S
ATOM    137   O  SGN B   7      33.852  17.470   6.1480  0.00  0.00     0.000 OA
ATOM    138   O  SGN B   7      33.339  17.790   8.4800  0.00  0.00     0.000 OA
ATOM    139   O  SGN B   7      34.028  19.692   7.1180  0.00  0.00     0.000 OA
ENDBRANCH 124 134
BRANCH 120 140
ATOM    140  O4  IDS B   8      28.846  20.253   4.5760  0.00  0.00     0.000 O
BRANCH 140 144
ATOM    141  C1  IDS B   8      29.042  21.557   1.2260  0.00  0.00     0.000 C
ATOM    142  C2  IDS B   8      29.261  20.044   1.5090  0.00  0.00     0.000 C
ATOM    143  C3  IDS B   8      30.247  19.781   2.6620  0.00  0.00     0.000 C
ATOM    144  C4  IDS B   8      29.997  20.705   3.8520  0.00  0.00     0.000 C
ATOM    145  C5  IDS B   8      29.781  22.147   3.3670  0.00  0.00     0.000 C
ATOM    146  O5  IDS B   8      28.708  22.234   2.4320  0.00  0.00     0.000 O
BRANCH 142 147
ATOM    147   O  IDS B   8      27.966  19.418   1.8870  0.00  0.00     0.000 O
ATOM    148   S  IDS B   8      27.685  17.845   1.6090  0.00  0.00     0.000 S
ATOM    149   O  IDS B   8      28.671  17.385   0.6570  0.00  0.00     0.000 OA
ATOM    150   O  IDS B   8      27.806  17.196   2.9010  0.00  0.00     0.000 OA
ATOM    151   O  IDS B   8      26.341  17.788   1.0660  0.00  0.00     0.000 OA
ENDBRANCH 142 147
BRANCH 145 152
ATOM    152   C  IDS B   8      29.430  23.096   4.4950  0.00  0.00     0.000 C
ATOM    153   O  IDS B   8      28.384  23.733   4.4450  0.00  0.00     0.000 OA
ATOM    154   O  IDS B   8      30.179  23.200   5.4490  0.00  0.00     0.000 OA
ENDBRANCH 145 152
ENDBRANCH 140 144
ENDBRANCH 120 140
ENDBRANCH 119 123
ENDBRANCH 103 119
ENDBRANCH 102 106
ENDBRANCH 82 102
ENDBRANCH 81 85
ENDBRANCH 65 81
ENDBRANCH 64 68
ENDBRANCH 41 64
ENDBRANCH 40 44
ENDBRANCH 24 40
ENDBRANCH 23 27
ENDBRANCH 1 23
TORSDOF 31
ENDMDL
MODEL 22
REMARK VINA RESULT:      -7.3      3.386      5.640
ROOT
ATOM      1  C1  SGN B   1      28.394  16.155  12.3200  0.00  0.00     0.000 C
ATOM      2  C2  SGN B   1      29.802  15.555  12.1720  0.00  0.00     0.000 C
ATOM      3  C3  SGN B   1      30.839  16.657  11.9290  0.00  0.00     0.000 C
ATOM      4  C4  SGN B   1      30.444  17.493  10.7160  0.00  0.00     0.000 C
ATOM      5  C5  SGN B   1      28.991  17.935  10.8660  0.00  0.00     0.000 C
ATOM      6  O5  SGN B   1      28.153  16.780  11.0670  0.00  0.00     0.000 O
ATOM      7   O  SGN B   1      32.133  16.095  11.7480  0.00  0.00     0.000 O
ATOM      9  HD  SGN B   1      31.695  15.743  11.0900  0.00  0.00     0.000 HD
ATOM      9   O  SGN B   1      31.292  18.623  10.6260  0.00  0.00     0.000 O
ATOM     11  HD  SGN B   1      30.854  18.270   9.9680  0.00  0.00     0.000 HD
ENDROOT
BRANCH 2 13
ATOM     11   N  SGN B   1      29.406  14.145  12.3480  0.00  0.00     0.000 N
ATOM     13  HD  SGN B   1      29.290  14.717  12.9870  0.00  0.00     0.000 HD
ATOM     13   S  SGN B   1      29.388  13.431  13.7890  0.00  0.00     0.000 S
ATOM     14   O  SGN B   1      29.744  14.355  14.7940  0.00  0.00     0.000 OA
ATOM     15   O  SGN B   1      28.174  12.696  13.9130  0.00  0.00     0.000 OA
ATOM     16   O  SGN B   1      30.529  12.396  13.5400  0.00  0.00     0.000 OA
ENDBRANCH 2 13
BRANCH 5 17
ATOM     17   C  SGN B   1      28.449  18.680   9.6710  0.00  0.00     0.000 C
ATOM     18   O  SGN B   1      27.269  19.430  10.0240  0.00  0.00     0.000 O
ATOM     19   S  SGN B   1      26.041  19.326   9.0040  0.00  0.00     0.000 S
ATOM     20   O  SGN B   1      25.098  20.329   9.4490  0.00  0.00     0.000 OA
ATOM     21   O  SGN B   1      26.627  19.614   7.7160  0.00  0.00     0.000 OA
ATOM     22   O  SGN B   1      25.553  17.971   9.1390  0.00  0.00     0.000 OA
ENDBRANCH 5 17
BRANCH 1 23
ATOM     23  O4  IDS B   2      27.553  16.644  13.2750  0.00  0.00     0.000 O
BRANCH 23 27
ATOM     24  C1  IDS B   2      24.391  17.342  15.8730  0.00  0.00     0.000 C
ATOM     25  C2  IDS B   2      24.438  15.933  15.2420  0.00  0.00     0.000 C
ATOM     26  C3  IDS B   2      25.777  15.687  14.5530  0.00  0.00     0.000 C
ATOM     27  C4  IDS B   2      26.135  16.750  13.5240  0.00  0.00     0.000 C
ATOM     28  C5  IDS B   2      25.676  18.137  14.0170  0.00  0.00     0.000 C
ATOM     29  O5  IDS B   2      25.495  18.141  15.4250  0.00  0.00     0.000 O
ATOM     30   O  IDS B   2      25.735  14.434  13.8810  0.00  0.00     0.000 O
ATOM     32  HD  IDS B   2      25.318  14.467  13.1220  0.00  0.00     0.000 HD
BRANCH 25 32
ATOM     32   O  IDS B   2      24.248  14.860  16.2490  0.00  0.00     0.000 O
ATOM     33   S  IDS B   2      22.828  14.029  16.3800  0.00  0.00     0.000 S
ATOM     34   O  IDS B   2      22.933  13.237  17.5950  0.00  0.00     0.000 OA
ATOM     35   O  IDS B   2      21.720  14.970  16.4520  0.00  0.00     0.000 OA
ATOM     36   O  IDS B   2      22.760  13.187  15.2070  0.00  0.00     0.000 OA
ENDBRANCH 25 32
BRANCH 28 37
ATOM     37   C  IDS B   2      26.537  19.359  13.6360  0.00  0.00     0.000 C
ATOM     38   O  IDS B   2      26.008  20.065  12.8100  0.00  0.00     0.000 OA
ATOM     39   O  IDS B   2      27.642  19.688  14.1320  0.00  0.00     0.000 OA
ENDBRANCH 28 37
BRANCH 24 40
ATOM     40  O4  SUS B   3      23.262  17.775  16.4710  0.00  0.00     0.000 O
BRANCH 40 44
ATOM     41  C1  SUS B   3      22.734  20.322  19.7540  0.00  0.00     0.000 C
ATOM     42  C2  SUS B   3      23.219  20.960  18.4370  0.00  0.00     0.000 C
ATOM     43  C3  SUS B   3      22.896  20.024  17.2750  0.00  0.00     0.000 C
ATOM     44  C4  SUS B   3      23.502  18.659  17.5600  0.00  0.00     0.000 C
ATOM     45  C5  SUS B   3      22.880  18.100  18.8240  0.00  0.00     0.000 C
ATOM     46  O5  SUS B   3      23.211  18.981  19.9160  0.00  0.00     0.000 O
BRANCH 42 49
ATOM     47   N  SUS B   3      23.959  22.007  19.1630  0.00  0.00     0.000 N
ATOM     49  HD  SUS B   3      23.815  22.063  20.0150  0.00  0.00     0.000 HD
ATOM     49   S  SUS B   3      23.752  23.463  18.5280  0.00  0.00     0.000 S
ATOM     50   O  SUS B   3      22.380  23.785  18.5010  0.00  0.00     0.000 OA
ATOM     51   O  SUS B   3      24.477  24.252  19.6480  0.00  0.00     0.000 OA
ATOM     52   O  SUS B   3      24.466  23.549  17.3160  0.00  0.00     0.000 OA
ENDBRANCH 42 49
BRANCH 43 53
ATOM     53   O  SUS B   3      23.494  20.593  16.0520  0.00  0.00     0.000 O
ATOM     54   S  SUS B   3      22.464  21.220  14.9350  0.00  0.00     0.000 S
ATOM     55   O  SUS B   3      21.921  22.454  15.4870  0.00  0.00     0.000 OA
ATOM     56   O  SUS B   3      23.296  21.420  13.7620  0.00  0.00     0.000 OA
ATOM     57   O  SUS B   3      21.412  20.220  14.7340  0.00  0.00     0.000 OA
ENDBRANCH 43 53
BRANCH 45 58
ATOM     58   C  SUS B   3      23.360  16.697  19.1190  0.00  0.00     0.000 C
ATOM     59   S  SUS B   3      24.909  15.363  20.6710  0.00  0.00     0.000 S
ATOM     60   O  SUS B   3      24.144  16.705  20.3250  0.00  0.00     0.000 O
ATOM     61   O  SUS B   3      26.069  15.352  19.8010  0.00  0.00     0.000 OA
ATOM     62   O  SUS B   3      25.250  15.598  22.0490  0.00  0.00     0.000 OA
ATOM     63   O  SUS B   3      23.970  14.321  20.4470  0.00  0.00     0.000 OA
ENDBRANCH 45 58
BRANCH 41 64
ATOM     64  O4  IDS B   4      21.387  20.470  19.9770  0.00  0.00     0.000 O
BRANCH 64 68
ATOM     65  C1  IDS B   4      18.591  21.018  22.2490  0.00  0.00     0.000 C
ATOM     66  C2  IDS B   4      19.995  21.514  22.6180  0.00  0.00     0.000 C
ATOM     67  C3  IDS B   4      21.100  20.494  22.3950  0.00  0.00     0.000 C
ATOM     68  C4  IDS B   4      20.923  19.705  21.1120  0.00  0.00     0.000 C
ATOM     69  C5  IDS B   4      19.450  19.288  21.0070  0.00  0.00     0.000 C
ATOM     70  O5  IDS B   4      18.632  20.459  20.9480  0.00  0.00     0.000 O
ATOM     71   O  IDS B   4      21.089  19.616  23.5020  0.00  0.00     0.000 O
ATOM     73  HD  IDS B   4      20.903  20.346  23.0740  0.00  0.00     0.000 HD
BRANCH 66 73
ATOM     73   O  IDS B   4      20.336  22.654  21.7570  0.00  0.00     0.000 O
ATOM     74   S  IDS B   4      20.596  24.087  22.4630  0.00  0.00     0.000 S
ATOM     75   O  IDS B   4      19.402  24.391  23.2230  0.00  0.00     0.000 OA
ATOM     76   O  IDS B   4      20.801  24.945  21.3240  0.00  0.00     0.000 OA
ATOM     77   O  IDS B   4      21.767  23.903  23.2870  0.00  0.00     0.000 OA
ENDBRANCH 66 73
BRANCH 69 78
ATOM     78   C  IDS B   4      19.153  18.302  19.8850  0.00  0.00     0.000 C
ATOM     79   O  IDS B   4      18.528  17.276  20.1500  0.00  0.00     0.000 OA
ATOM     80   O  IDS B   4      19.459  18.615  18.7200  0.00  0.00     0.000 OA
ENDBRANCH 69 78
BRANCH 65 81
ATOM     81  O4  SGN B   5      18.116  20.220  23.2450  0.00  0.00     0.000 O
BRANCH 81 85
ATOM     82  C1  SGN B   5      14.636  19.068  25.2950  0.00  0.00     0.000 C
ATOM     83  C2  SGN B   5      14.754  18.639  23.8250  0.00  0.00     0.000 C
ATOM     84  C3  SGN B   5      16.222  18.720  23.3820  0.00  0.00     0.000 C
ATOM     85  C4  SGN B   5      16.746  20.122  23.6400  0.00  0.00     0.000 C
ATOM     86  C5  SGN B   5      16.599  20.423  25.1290  0.00  0.00     0.000 C
ATOM     87  O5  SGN B   5      15.203  20.352  25.4790  0.00  0.00     0.000 O
ATOM     88   O  SGN B   5      16.330  18.383  22.0170  0.00  0.00     0.000 O
ATOM     90  HD  SGN B   5      16.523  17.860  22.6800  0.00  0.00     0.000 HD
BRANCH 83 92
ATOM     90   N  SGN B   5      13.284  18.511  23.8120  0.00  0.00     0.000 N
ATOM     92  HD  SGN B   5      12.908  19.262  23.5990  0.00  0.00     0.000 HD
ATOM     92   S  SGN B   5      12.649  17.217  23.1230  0.00  0.00     0.000 S
ATOM     93   O  SGN B   5      11.235  17.394  23.2700  0.00  0.00     0.000 OA
ATOM     94   O  SGN B   5      13.227  17.147  21.8250  0.00  0.00     0.000 OA
ATOM     95   O  SGN B   5      13.190  16.051  23.9210  0.00  0.00     0.000 OA
ENDBRANCH 83 92
BRANCH 86 96
ATOM     96   C  SGN B   5      17.096  21.795  25.5370  0.00  0.00     0.000 C
ATOM     97   O  SGN B   5      16.101  22.484  26.2980  0.00  0.00     0.000 O
ATOM     98   S  SGN B   5      16.585  23.108  27.6930  0.00  0.00     0.000 S
ATOM     99   O  SGN B   5      15.444  23.889  28.1060  0.00  0.00     0.000 OA
ATOM    100   O  SGN B   5      16.906  22.027  28.5550  0.00  0.00     0.000 OA
ATOM    101   O  SGN B   5      17.721  23.902  27.3520  0.00  0.00     0.000 OA
ENDBRANCH 86 96
BRANCH 82 102
ATOM    102  O4  IDS B   6      15.204  18.171  26.1500  0.00  0.00     0.000 O
BRANCH 102 106
ATOM    103  C1  IDS B   6      15.370  16.621  29.4400  0.00  0.00     0.000 C
ATOM    104  C2  IDS B   6      14.038  17.152  28.8880  0.00  0.00     0.000 C
ATOM    105  C3  IDS B   6      14.099  18.543  28.2880  0.00  0.00     0.000 C
ATOM    106  C4  IDS B   6      15.353  18.771  27.4620  0.00  0.00     0.000 C
ATOM    107  C5  IDS B   6      16.567  18.188  28.1930  0.00  0.00     0.000 C
ATOM    108  O5  IDS B   6      16.397  16.800  28.4840  0.00  0.00     0.000 O
ATOM    109   O  IDS B   6      14.015  19.484  29.3460  0.00  0.00     0.000 O
ATOM    111  HD  IDS B   6      14.282  19.041  30.0400  0.00  0.00     0.000 HD
BRANCH 104 111
ATOM    111   O  IDS B   6      13.590  16.277  27.7940  0.00  0.00     0.000 O
ATOM    112   S  IDS B   6      12.239  15.444  28.0000  0.00  0.00     0.000 S
ATOM    113   O  IDS B   6      12.483  14.638  29.1860  0.00  0.00     0.000 OA
ATOM    114   O  IDS B   6      11.124  16.391  28.1210  0.00  0.00     0.000 OA
ATOM    115   O  IDS B   6      12.239  14.688  26.7660  0.00  0.00     0.000 OA
ENDBRANCH 104 111
BRANCH 107 116
ATOM    116   C  IDS B   6      17.813  18.389  27.3400  0.00  0.00     0.000 C
ATOM    117   O  IDS B   6      18.582  19.245  27.6980  0.00  0.00     0.000 OA
ATOM    118   O  IDS B   6      18.012  17.720  26.3390  0.00  0.00     0.000 OA
ENDBRANCH 107 116
BRANCH 103 119
ATOM    119  O4  SGN B   7      15.450  17.179  30.6760  0.00  0.00     0.000 O
BRANCH 119 123
ATOM    120  C1  SGN B   7      17.138  16.136  34.3580  0.00  0.00     0.000 C
ATOM    121  C2  SGN B   7      18.055  16.804  33.3160  0.00  0.00     0.000 C
ATOM    122  C3  SGN B   7      17.221  17.476  32.2170  0.00  0.00     0.000 C
ATOM    123  C4  SGN B   7      16.248  16.470  31.6250  0.00  0.00     0.000 C
ATOM    124  C5  SGN B   7      15.386  15.857  32.7410  0.00  0.00     0.000 C
ATOM    125  O5  SGN B   7      16.211  15.236  33.7520  0.00  0.00     0.000 O
ATOM    126   O  SGN B   7      18.103  17.999  31.2170  0.00  0.00     0.000 O
ATOM    128  HD  SGN B   7      18.008  17.649  32.0040  0.00  0.00     0.000 HD
BRANCH 121 130
ATOM    128   N  SGN B   7      19.001  16.763  34.4340  0.00  0.00     0.000 N
ATOM    130  HD  SGN B   7      19.482  16.178  34.0150  0.00  0.00     0.000 HD
ATOM    130   S  SGN B   7      20.465  17.428  34.3470  0.00  0.00     0.000 S
ATOM    131   O  SGN B   7      20.245  18.751  33.8710  0.00  0.00     0.000 OA
ATOM    132   O  SGN B   7      21.128  17.210  35.5810  0.00  0.00     0.000 OA
ATOM    133   O  SGN B   7      21.160  16.444  33.3450  0.00  0.00     0.000 OA
ENDBRANCH 121 130
BRANCH 124 134
ATOM    134   C  SGN B   7      14.470  14.766  32.2710  0.00  0.00     0.000 C
ATOM    135   O  SGN B   7      14.969  13.508  32.7570  0.00  0.00     0.000 O
ATOM    136   S  SGN B   7      14.064  12.250  32.5010  0.00  0.00     0.000 S
ATOM    137   O  SGN B   7      14.810  11.109  32.9770  0.00  0.00     0.000 OA
ATOM    138   O  SGN B   7      13.845  12.226  31.0730  0.00  0.00     0.000 OA
ATOM    139   O  SGN B   7      12.878  12.552  33.2880  0.00  0.00     0.000 OA
ENDBRANCH 124 134
BRANCH 120 140
ATOM    140  O4  IDS B   8      16.314  16.729  35.2290  0.00  0.00     0.000 O
BRANCH 140 144
ATOM    141  C1  IDS B   8      13.953  19.192  36.3790  0.00  0.00     0.000 C
ATOM    142  C2  IDS B   8      15.109  19.581  35.4140  0.00  0.00     0.000 C
ATOM    143  C3  IDS B   8      16.481  19.054  35.8730  0.00  0.00     0.000 C
ATOM    144  C4  IDS B   8      16.406  17.607  36.3580  0.00  0.00     0.000 C
ATOM    145  C5  IDS B   8      15.188  17.418  37.2750  0.00  0.00     0.000 C
ATOM    146  O5  IDS B   8      13.976  17.791  36.6240  0.00  0.00     0.000 O
BRANCH 142 147
ATOM    147   O  IDS B   8      14.846  19.009  34.0680  0.00  0.00     0.000 O
ATOM    148   S  IDS B   8      14.161  19.901  32.8990  0.00  0.00     0.000 S
ATOM    149   O  IDS B   8      13.563  21.059  33.5250  0.00  0.00     0.000 OA
ATOM    150   O  IDS B   8      15.241  20.248  31.9940  0.00  0.00     0.000 OA
ATOM    151   O  IDS B   8      13.165  19.038  32.2940  0.00  0.00     0.000 OA
ENDBRANCH 142 147
BRANCH 145 152
ATOM    152   C  IDS B   8      15.003  15.978  37.7090  0.00  0.00     0.000 C
ATOM    153   O  IDS B   8      15.908  15.405  38.3050  0.00  0.00     0.000 OA
ATOM    154   O  IDS B   8      13.949  15.411  37.4800  0.00  0.00     0.000 OA
ENDBRANCH 145 152
ENDBRANCH 140 144
ENDBRANCH 120 140
ENDBRANCH 119 123
ENDBRANCH 103 119
ENDBRANCH 102 106
ENDBRANCH 82 102
ENDBRANCH 81 85
ENDBRANCH 65 81
ENDBRANCH 64 68
ENDBRANCH 41 64
ENDBRANCH 40 44
ENDBRANCH 24 40
ENDBRANCH 23 27
ENDBRANCH 1 23
TORSDOF 31
ENDMDL
MODEL 23
REMARK VINA RESULT:      -7.3     10.097     19.594
ROOT
ATOM      1  C1  SGN B   1      19.430  19.938  19.7860  0.00  0.00     0.000 C
ATOM      2  C2  SGN B   1      18.458  18.762  19.5970  0.00  0.00     0.000 C
ATOM      3  C3  SGN B   1      19.094  17.450  20.0680  0.00  0.00     0.000 C
ATOM      4  C4  SGN B   1      20.418  17.218  19.3470  0.00  0.00     0.000 C
ATOM      5  C5  SGN B   1      21.274  18.478  19.4570  0.00  0.00     0.000 C
ATOM      6  O5  SGN B   1      20.535  19.608  18.9550  0.00  0.00     0.000 O
ATOM      7   O  SGN B   1      18.209  16.358  19.8500  0.00  0.00     0.000 O
ATOM      9  HD  SGN B   1      18.332  16.649  19.0430  0.00  0.00     0.000 HD
ATOM      9   O  SGN B   1      21.088  16.119  19.9350  0.00  0.00     0.000 O
ATOM     11  HD  SGN B   1      21.211  16.409  19.1290  0.00  0.00     0.000 HD
ENDROOT
BRANCH 2 13
ATOM     11   N  SGN B   1      17.227  19.351  19.0360  0.00  0.00     0.000 N
ATOM     13  HD  SGN B   1      17.618  19.715  19.7180  0.00  0.00     0.000 HD
ATOM     13   S  SGN B   1      16.193  20.197  19.9330  0.00  0.00     0.000 S
ATOM     14   O  SGN B   1      16.676  20.310  21.2540  0.00  0.00     0.000 OA
ATOM     15   O  SGN B   1      15.832  21.373  19.2160  0.00  0.00     0.000 OA
ATOM     16   O  SGN B   1      14.979  19.220  19.8540  0.00  0.00     0.000 OA
ENDBRANCH 2 13
BRANCH 5 17
ATOM     17   C  SGN B   1      22.569  18.409  18.6860  0.00  0.00     0.000 C
ATOM     18   O  SGN B   1      23.606  17.793  19.4750  0.00  0.00     0.000 O
ATOM     19   S  SGN B   1      25.028  18.523  19.4590  0.00  0.00     0.000 S
ATOM     20   O  SGN B   1      25.931  17.601  20.1140  0.00  0.00     0.000 OA
ATOM     21   O  SGN B   1      25.312  18.711  18.0550  0.00  0.00     0.000 OA
ATOM     22   O  SGN B   1      24.828  19.756  20.1880  0.00  0.00     0.000 OA
ENDBRANCH 5 17
BRANCH 1 23
ATOM     23  O4  IDS B   2      19.784  20.874  20.7130  0.00  0.00     0.000 O
BRANCH 23 27
ATOM     24  C1  IDS B   2      22.872  19.695  23.2240  0.00  0.00     0.000 C
ATOM     25  C2  IDS B   2      21.448  19.335  23.7030  0.00  0.00     0.000 C
ATOM     26  C3  IDS B   2      20.428  19.541  22.5860  0.00  0.00     0.000 C
ATOM     27  C4  IDS B   2      20.457  20.940  21.9880  0.00  0.00     0.000 C
ATOM     28  C5  IDS B   2      21.909  21.453  21.9160  0.00  0.00     0.000 C
ATOM     29  O5  IDS B   2      22.831  20.375  21.9620  0.00  0.00     0.000 O
ATOM     30   O  IDS B   2      19.120  19.320  23.1010  0.00  0.00     0.000 O
ATOM     32  HD  IDS B   2      18.810  19.994  23.5480  0.00  0.00     0.000 HD
BRANCH 25 32
ATOM     32   O  IDS B   2      21.346  17.924  24.1490  0.00  0.00     0.000 O
ATOM     33   S  IDS B   2      21.256  17.519  25.7460  0.00  0.00     0.000 S
ATOM     34   O  IDS B   2      21.396  16.072  25.8060  0.00  0.00     0.000 OA
ATOM     35   O  IDS B   2      22.323  18.187  26.4770  0.00  0.00     0.000 OA
ATOM     36   O  IDS B   2      19.944  17.939  26.1810  0.00  0.00     0.000 OA
ENDBRANCH 25 32
BRANCH 28 37
ATOM     37   C  IDS B   2      22.292  22.369  20.7350  0.00  0.00     0.000 C
ATOM     38   O  IDS B   2      22.178  23.543  20.9980  0.00  0.00     0.000 OA
ATOM     39   O  IDS B   2      22.746  22.013  19.6200  0.00  0.00     0.000 OA
ENDBRANCH 28 37
BRANCH 24 40
ATOM     40  O4  SUS B   3      23.906  19.644  24.0900  0.00  0.00     0.000 O
BRANCH 40 44
ATOM     41  C1  SUS B   3      27.939  18.716  23.4460  0.00  0.00     0.000 C
ATOM     42  C2  SUS B   3      27.429  20.062  22.8950  0.00  0.00     0.000 C
ATOM     43  C3  SUS B   3      26.136  20.442  23.6130  0.00  0.00     0.000 C
ATOM     44  C4  SUS B   3      25.142  19.301  23.4730  0.00  0.00     0.000 C
ATOM     45  C5  SUS B   3      25.719  18.064  24.1310  0.00  0.00     0.000 C
ATOM     46  O5  SUS B   3      26.927  17.703  23.4300  0.00  0.00     0.000 O
BRANCH 42 49
ATOM     47   N  SUS B   3      27.646  20.815  21.6480  0.00  0.00     0.000 N
ATOM     49  HD  SUS B   3      27.486  20.394  20.9080  0.00  0.00     0.000 HD
ATOM     49   S  SUS B   3      29.117  21.443  21.5530  0.00  0.00     0.000 S
ATOM     50   O  SUS B   3      30.083  20.422  21.6640  0.00  0.00     0.000 OA
ATOM     51   O  SUS B   3      29.008  21.935  20.0870  0.00  0.00     0.000 OA
ATOM     52   O  SUS B   3      29.217  22.535  22.4390  0.00  0.00     0.000 OA
ENDBRANCH 42 49
BRANCH 43 53
ATOM     53   O  SUS B   3      25.599  21.657  22.9700  0.00  0.00     0.000 O
ATOM     54   S  SUS B   3      25.413  22.987  23.9180  0.00  0.00     0.000 S
ATOM     55   O  SUS B   3      26.744  23.493  24.2250  0.00  0.00     0.000 OA
ATOM     56   O  SUS B   3      24.617  23.889  23.1050  0.00  0.00     0.000 OA
ATOM     57   O  SUS B   3      24.722  22.539  25.1300  0.00  0.00     0.000 OA
ENDBRANCH 43 53
BRANCH 45 58
ATOM     58   C  SUS B   3      24.743  16.908  24.1210  0.00  0.00     0.000 C
ATOM     59   S  SUS B   3      23.623  15.207  22.5600  0.00  0.00     0.000 S
ATOM     60   O  SUS B   3      24.743  16.297  22.8200  0.00  0.00     0.000 O
ATOM     61   O  SUS B   3      22.409  15.961  22.3140  0.00  0.00     0.000 OA
ATOM     62   O  SUS B   3      24.136  14.576  21.3740  0.00  0.00     0.000 OA
ATOM     63   O  SUS B   3      23.608  14.393  23.7230  0.00  0.00     0.000 OA
ENDBRANCH 45 58
BRANCH 41 64
ATOM     64  O4  IDS B   4      28.606  18.824  24.6420  0.00  0.00     0.000 O
BRANCH 64 68
ATOM     65  C1  IDS B   4      31.609  19.194  26.6720  0.00  0.00     0.000 C
ATOM     66  C2  IDS B   4      31.535  19.833  25.2790  0.00  0.00     0.000 C
ATOM     67  C3  IDS B   4      30.998  18.914  24.1950  0.00  0.00     0.000 C
ATOM     68  C4  IDS B   4      29.834  18.063  24.6660  0.00  0.00     0.000 C
ATOM     69  C5  IDS B   4      30.180  17.506  26.0540  0.00  0.00     0.000 C
ATOM     70  O5  IDS B   4      30.361  18.593  26.9650  0.00  0.00     0.000 O
ATOM     71   O  IDS B   4      32.063  18.081  23.7860  0.00  0.00     0.000 O
ATOM     73  HD  IDS B   4      31.705  18.773  24.1640  0.00  0.00     0.000 HD
BRANCH 66 73
ATOM     73   O  IDS B   4      30.602  20.967  25.3280  0.00  0.00     0.000 O
ATOM     74   S  IDS B   4      31.225  22.457  25.4180  0.00  0.00     0.000 S
ATOM     75   O  IDS B   4      32.075  22.476  26.5900  0.00  0.00     0.000 OA
ATOM     76   O  IDS B   4      30.039  23.267  25.5410  0.00  0.00     0.000 OA
ATOM     77   O  IDS B   4      31.949  22.648  24.1840  0.00  0.00     0.000 OA
ENDBRANCH 66 73
BRANCH 69 78
ATOM     78   C  IDS B   4      29.208  16.455  26.5710  0.00  0.00     0.000 C
ATOM     79   O  IDS B   4      29.639  15.552  27.2860  0.00  0.00     0.000 OA
ATOM     80   O  IDS B   4      27.993  16.603  26.3420  0.00  0.00     0.000 OA
ENDBRANCH 69 78
BRANCH 65 81
ATOM     81  O4  SGN B   5      32.708  18.393  26.7450  0.00  0.00     0.000 O
BRANCH 81 85
ATOM     82  C1  SGN B   5      35.508  16.774  29.4240  0.00  0.00     0.000 C
ATOM     83  C2  SGN B   5      34.027  16.670  29.8160  0.00  0.00     0.000 C
ATOM     84  C3  SGN B   5      33.151  16.868  28.5710  0.00  0.00     0.000 C
ATOM     85  C4  SGN B   5      33.504  18.191  27.9150  0.00  0.00     0.000 C
ATOM     86  C5  SGN B   5      34.987  18.165  27.5510  0.00  0.00     0.000 C
ATOM     87  O5  SGN B   5      35.755  17.998  28.7580  0.00  0.00     0.000 O
ATOM     88   O  SGN B   5      31.788  16.831  28.9320  0.00  0.00     0.000 O
ATOM     90  HD  SGN B   5      32.227  16.182  28.5630  0.00  0.00     0.000 HD
BRANCH 83 92
ATOM     90   N  SGN B   5      34.362  16.612  31.2520  0.00  0.00     0.000 N
ATOM     92  HD  SGN B   5      34.284  17.392  31.6210  0.00  0.00     0.000 HD
ATOM     92   S  SGN B   5      33.782  15.396  32.1110  0.00  0.00     0.000 S
ATOM     93   O  SGN B   5      34.274  15.630  33.4350  0.00  0.00     0.000 OA
ATOM     94   O  SGN B   5      32.381  15.381  31.8620  0.00  0.00     0.000 OA
ATOM     95   O  SGN B   5      34.368  14.158  31.4670  0.00  0.00     0.000 OA
ENDBRANCH 83 92
BRANCH 86 96
ATOM     96   C  SGN B   5      35.481  19.426  26.8730  0.00  0.00     0.000 C
ATOM     97   O  SGN B   5      36.342  19.102  25.7780  0.00  0.00     0.000 O
ATOM     98   S  SGN B   5      35.999  19.805  24.3780  0.00  0.00     0.000 S
ATOM     99   O  SGN B   5      37.132  19.451  23.5580  0.00  0.00     0.000 OA
ATOM    100   O  SGN B   5      34.758  19.281  23.9310  0.00  0.00     0.000 OA
ATOM    101   O  SGN B   5      35.935  21.197  24.6860  0.00  0.00     0.000 OA
ENDBRANCH 86 96
BRANCH 82 102
ATOM    102  O4  IDS B   6      35.923  15.725  28.6590  0.00  0.00     0.000 O
BRANCH 102 106
ATOM    103  C1  IDS B   6      38.847  13.612  28.1700  0.00  0.00     0.000 C
ATOM    104  C2  IDS B   6      38.732  14.520  29.4040  0.00  0.00     0.000 C
ATOM    105  C3  IDS B   6      38.305  15.946  29.1150  0.00  0.00     0.000 C
ATOM    106  C4  IDS B   6      37.211  16.029  28.0650  0.00  0.00     0.000 C
ATOM    107  C5  IDS B   6      37.522  15.067  26.9160  0.00  0.00     0.000 C
ATOM    108  O5  IDS B   6      37.682  13.723  27.3750  0.00  0.00     0.000 O
ATOM    109   O  IDS B   6      39.451  16.676  28.7070  0.00  0.00     0.000 O
ATOM    111  HD  IDS B   6      39.993  16.066  28.4180  0.00  0.00     0.000 HD
BRANCH 104 111
ATOM    111   O  IDS B   6      37.699  13.980  30.3010  0.00  0.00     0.000 O
ATOM    112   S  IDS B   6      38.157  13.435  31.7350  0.00  0.00     0.000 S
ATOM    113   O  IDS B   6      39.124  12.390  31.4380  0.00  0.00     0.000 OA
ATOM    114   O  IDS B   6      38.690  14.560  32.5110  0.00  0.00     0.000 OA
ATOM    115   O  IDS B   6      36.885  12.938  32.2140  0.00  0.00     0.000 OA
ENDBRANCH 104 111
BRANCH 107 116
ATOM    116   C  IDS B   6      36.401  15.131  25.8860  0.00  0.00     0.000 C
ATOM    117   O  IDS B   6      35.842  14.095  25.6280  0.00  0.00     0.000 OA
ATOM    118   O  IDS B   6      36.095  16.182  25.3460  0.00  0.00     0.000 OA
ENDBRANCH 107 116
BRANCH 103 119
ATOM    119  O4  SGN B   7      40.075  13.905  27.6690  0.00  0.00     0.000 O
BRANCH 119 123
ATOM    120  C1  SGN B   7      43.078  11.823  25.6360  0.00  0.00     0.000 C
ATOM    121  C2  SGN B   7      41.943  12.439  24.7960  0.00  0.00     0.000 C
ATOM    122  C3  SGN B   7      41.172  13.481  25.6160  0.00  0.00     0.000 C
ATOM    123  C4  SGN B   7      40.705  12.863  26.9230  0.00  0.00     0.000 C
ATOM    124  C5  SGN B   7      41.906  12.273  27.6810  0.00  0.00     0.000 C
ATOM    125  O5  SGN B   7      42.600  11.297  26.8730  0.00  0.00     0.000 O
ATOM    126   O  SGN B   7      40.067  13.960  24.8400  0.00  0.00     0.000 O
ATOM    128  HD  SGN B   7      40.801  13.501  24.8700  0.00  0.00     0.000 HD
BRANCH 121 130
ATOM    128   N  SGN B   7      41.510  12.053  23.4500  0.00  0.00     0.000 N
ATOM    130  HD  SGN B   7      41.399  12.885  23.2400  0.00  0.00     0.000 HD
ATOM    130   S  SGN B   7      42.439  12.271  22.1530  0.00  0.00     0.000 S
ATOM    131   O  SGN B   7      43.699  11.708  22.4990  0.00  0.00     0.000 OA
ATOM    132   O  SGN B   7      41.733  11.804  21.0150  0.00  0.00     0.000 OA
ATOM    133   O  SGN B   7      42.392  13.832  22.0340  0.00  0.00     0.000 OA
ENDBRANCH 121 130
BRANCH 124 134
ATOM    134   C  SGN B   7      41.531  11.537  28.9330  0.00  0.00     0.000 C
ATOM    135   O  SGN B   7      42.670  10.780  29.3770  0.00  0.00     0.000 O
ATOM    136   S  SGN B   7      42.531  10.055  30.7640  0.00  0.00     0.000 S
ATOM    137   O  SGN B   7      43.740   9.287  30.9440  0.00  0.00     0.000 OA
ATOM    138   O  SGN B   7      41.350   9.230  30.6430  0.00  0.00     0.000 OA
ATOM    139   O  SGN B   7      42.394  11.171  31.6880  0.00  0.00     0.000 OA
ENDBRANCH 124 134
BRANCH 120 140
ATOM    140  O4  IDS B   8      44.191  12.419  26.0780  0.00  0.00     0.000 O
BRANCH 140 144
ATOM    141  C1  IDS B   8      46.201  15.087  27.4210  0.00  0.00     0.000 C
ATOM    142  C2  IDS B   8      45.044  15.381  26.4240  0.00  0.00     0.000 C
ATOM    143  C3  IDS B   8      45.078  14.480  25.1760  0.00  0.00     0.000 C
ATOM    144  C4  IDS B   8      45.369  13.023  25.5290  0.00  0.00     0.000 C
ATOM    145  C5  IDS B   8      46.523  12.943  26.5400  0.00  0.00     0.000 C
ATOM    146  O5  IDS B   8      46.245  13.697  27.7180  0.00  0.00     0.000 O
BRANCH 142 147
ATOM    147   O  IDS B   8      43.739  15.150  27.0980  0.00  0.00     0.000 O
ATOM    148   S  IDS B   8      42.888  16.384  27.7180  0.00  0.00     0.000 S
ATOM    149   O  IDS B   8      43.778  17.518  27.8290  0.00  0.00     0.000 OA
ATOM    150   O  IDS B   8      41.801  16.612  26.7850  0.00  0.00     0.000 OA
ATOM    151   O  IDS B   8      42.436  15.921  29.0170  0.00  0.00     0.000 OA
ENDBRANCH 142 147
BRANCH 145 152
ATOM    152   C  IDS B   8      46.793  11.526  27.0060  0.00  0.00     0.000 C
ATOM    153   O  IDS B   8      46.562  11.218  28.1700  0.00  0.00     0.000 OA
ATOM    154   O  IDS B   8      47.218  10.704  26.2150  0.00  0.00     0.000 OA
ENDBRANCH 145 152
ENDBRANCH 140 144
ENDBRANCH 120 140
ENDBRANCH 119 123
ENDBRANCH 103 119
ENDBRANCH 102 106
ENDBRANCH 82 102
ENDBRANCH 81 85
ENDBRANCH 65 81
ENDBRANCH 64 68
ENDBRANCH 41 64
ENDBRANCH 40 44
ENDBRANCH 24 40
ENDBRANCH 23 27
ENDBRANCH 1 23
TORSDOF 31
ENDMDL
MODEL 24
REMARK VINA RESULT:      -7.2      2.585      3.957
ROOT
ATOM      1  C1  SGN B   1      28.332  10.890  14.4620  0.00  0.00     0.000 C
ATOM      2  C2  SGN B   1      29.657  10.428  15.0910  0.00  0.00     0.000 C
ATOM      3  C3  SGN B   1      30.295   9.313  14.2560  0.00  0.00     0.000 C
ATOM      4  C4  SGN B   1      29.314   8.159  14.0810  0.00  0.00     0.000 C
ATOM      5  C5  SGN B   1      27.978   8.710  13.5880  0.00  0.00     0.000 C
ATOM      6  O5  SGN B   1      27.513   9.728  14.4950  0.00  0.00     0.000 O
ATOM      7   O  SGN B   1      31.498   8.858  14.8650  0.00  0.00     0.000 O
ATOM      9  HD  SGN B   1      30.912   8.677  15.4760  0.00  0.00     0.000 HD
ATOM      9   O  SGN B   1      29.837   7.235  13.1440  0.00  0.00     0.000 O
ATOM     11  HD  SGN B   1      29.250   7.054  13.7560  0.00  0.00     0.000 HD
ENDROOT
BRANCH 2 13
ATOM     11   N  SGN B   1      29.477  11.427  16.1620  0.00  0.00     0.000 N
ATOM     13  HD  SGN B   1      29.724  11.672  15.3690  0.00  0.00     0.000 HD
ATOM     13   S  SGN B   1      30.302  12.808  16.1960  0.00  0.00     0.000 S
ATOM     14   O  SGN B   1      31.132  12.906  15.0600  0.00  0.00     0.000 OA
ATOM     15   O  SGN B   1      29.396  13.866  16.4940  0.00  0.00     0.000 OA
ATOM     16   O  SGN B   1      31.135  12.538  17.4870  0.00  0.00     0.000 OA
ENDBRANCH 2 13
BRANCH 5 17
ATOM     17   C  SGN B   1      26.888   7.672  13.4810  0.00  0.00     0.000 C
ATOM     18   O  SGN B   1      25.841   8.115  12.5940  0.00  0.00     0.000 O
ATOM     19   S  SGN B   1      24.344   7.895  13.1110  0.00  0.00     0.000 S
ATOM     20   O  SGN B   1      23.505   8.193  11.9700  0.00  0.00     0.000 OA
ATOM     21   O  SGN B   1      24.309   6.506  13.5080  0.00  0.00     0.000 OA
ATOM     22   O  SGN B   1      24.183   8.824  14.2080  0.00  0.00     0.000 OA
ENDBRANCH 5 17
BRANCH 1 23
ATOM     23  O4  IDS B   2      27.852  11.796  13.5630  0.00  0.00     0.000 O
BRANCH 23 27
ATOM     24  C1  IDS B   2      25.765  15.050  15.0740  0.00  0.00     0.000 C
ATOM     25  C2  IDS B   2      24.953  13.744  14.9340  0.00  0.00     0.000 C
ATOM     26  C3  IDS B   2      25.872  12.557  14.6610  0.00  0.00     0.000 C
ATOM     27  C4  IDS B   2      26.781  12.757  13.4560  0.00  0.00     0.000 C
ATOM     28  C5  IDS B   2      27.247  14.225  13.3860  0.00  0.00     0.000 C
ATOM     29  O5  IDS B   2      27.122  14.858  14.6500  0.00  0.00     0.000 O
ATOM     30   O  IDS B   2      25.082  11.399  14.4150  0.00  0.00     0.000 O
ATOM     32  HD  IDS B   2      24.757  11.372  13.6120  0.00  0.00     0.000 HD
BRANCH 25 32
ATOM     32   O  IDS B   2      24.173  13.434  16.1580  0.00  0.00     0.000 O
ATOM     33   S  IDS B   2      22.526  13.532  16.1890  0.00  0.00     0.000 S
ATOM     34   O  IDS B   2      22.139  13.384  17.5830  0.00  0.00     0.000 OA
ATOM     35   O  IDS B   2      22.107  14.819  15.6540  0.00  0.00     0.000 OA
ATOM     36   O  IDS B   2      22.055  12.424  15.3910  0.00  0.00     0.000 OA
ENDBRANCH 25 32
BRANCH 28 37
ATOM     37   C  IDS B   2      28.663  14.507  12.8410  0.00  0.00     0.000 C
ATOM     38   O  IDS B   2      28.834  14.061  11.7300  0.00  0.00     0.000 OA
ATOM     39   O  IDS B   2      29.568  15.175  13.3980  0.00  0.00     0.000 OA
ENDBRANCH 28 37
BRANCH 24 40
ATOM     40  O4  SUS B   3      25.125  16.225  15.2520  0.00  0.00     0.000 O
BRANCH 40 44
ATOM     41  C1  SUS B   3      26.163  19.443  17.7250  0.00  0.00     0.000 C
ATOM     42  C2  SUS B   3      26.620  19.508  16.2530  0.00  0.00     0.000 C
ATOM     43  C3  SUS B   3      25.775  18.546  15.4210  0.00  0.00     0.000 C
ATOM     44  C4  SUS B   3      25.862  17.158  16.0340  0.00  0.00     0.000 C
ATOM     45  C5  SUS B   3      25.302  17.207  17.4410  0.00  0.00     0.000 C
ATOM     46  O5  SUS B   3      26.121  18.100  18.2210  0.00  0.00     0.000 O
BRANCH 42 49
ATOM     47   N  SUS B   3      26.597  20.934  15.8830  0.00  0.00     0.000 N
ATOM     49  HD  SUS B   3      26.090  21.152  15.2150  0.00  0.00     0.000 HD
ATOM     49   S  SUS B   3      28.061  21.524  15.6090  0.00  0.00     0.000 S
ATOM     50   O  SUS B   3      28.696  20.780  14.5940  0.00  0.00     0.000 OA
ATOM     51   O  SUS B   3      27.601  22.903  15.0700  0.00  0.00     0.000 OA
ATOM     52   O  SUS B   3      28.742  21.671  16.8340  0.00  0.00     0.000 OA
ENDBRANCH 42 49
BRANCH 43 53
ATOM     53   O  SUS B   3      26.325  18.526  14.0520  0.00  0.00     0.000 O
ATOM     54   S  SUS B   3      25.398  19.180  12.8620  0.00  0.00     0.000 S
ATOM     55   O  SUS B   3      25.393  20.623  13.0560  0.00  0.00     0.000 OA
ATOM     56   O  SUS B   3      26.049  18.756  11.6350  0.00  0.00     0.000 OA
ATOM     57   O  SUS B   3      24.054  18.617  13.0260  0.00  0.00     0.000 OA
ENDBRANCH 43 53
BRANCH 45 58
ATOM     58   C  SUS B   3      25.263  15.837  18.0830  0.00  0.00     0.000 C
ATOM     59   S  SUS B   3      24.554  14.617  20.2260  0.00  0.00     0.000 S
ATOM     60   O  SUS B   3      24.516  15.908  19.3100  0.00  0.00     0.000 O
ATOM     61   O  SUS B   3      25.841  14.662  20.8930  0.00  0.00     0.000 OA
ATOM     62   O  SUS B   3      23.457  14.889  21.1170  0.00  0.00     0.000 OA
ATOM     63   O  SUS B   3      24.363  13.519  19.3460  0.00  0.00     0.000 OA
ENDBRANCH 45 58
BRANCH 41 64
ATOM     64  O4  IDS B   4      25.030  20.174  17.9850  0.00  0.00     0.000 O
BRANCH 64 68
ATOM     65  C1  IDS B   4      23.089  22.270  20.2460  0.00  0.00     0.000 C
ATOM     66  C2  IDS B   4      24.612  22.174  20.3990  0.00  0.00     0.000 C
ATOM     67  C3  IDS B   4      25.160  20.757  20.3450  0.00  0.00     0.000 C
ATOM     68  C4  IDS B   4      24.480  19.901  19.2930  0.00  0.00     0.000 C
ATOM     69  C5  IDS B   4      22.968  20.145  19.3830  0.00  0.00     0.000 C
ATOM     70  O5  IDS B   4      22.696  21.522  19.1100  0.00  0.00     0.000 O
ATOM     71   O  IDS B   4      24.968  20.185  21.6230  0.00  0.00     0.000 O
ATOM     73  HD  IDS B   4      25.029  20.833  21.0510  0.00  0.00     0.000 HD
BRANCH 66 73
ATOM     73   O  IDS B   4      25.245  22.881  19.2770  0.00  0.00     0.000 O
ATOM     74   S  IDS B   4      26.308  24.051  19.6220  0.00  0.00     0.000 S
ATOM     75   O  IDS B   4      25.613  25.000  20.4650  0.00  0.00     0.000 OA
ATOM     76   O  IDS B   4      26.629  24.555  18.3110  0.00  0.00     0.000 OA
ATOM     77   O  IDS B   4      27.405  23.391  20.2890  0.00  0.00     0.000 OA
ENDBRANCH 66 73
BRANCH 69 78
ATOM     78   C  IDS B   4      22.126  19.197  18.5410  0.00  0.00     0.000 C
ATOM     79   O  IDS B   4      20.908  19.176  18.7130  0.00  0.00     0.000 OA
ATOM     80   O  IDS B   4      22.683  18.551  17.6340  0.00  0.00     0.000 OA
ENDBRANCH 69 78
BRANCH 65 81
ATOM     81  O4  SGN B   5      22.494  21.948  21.4280  0.00  0.00     0.000 O
BRANCH 81 85
ATOM     82  C1  SGN B   5      19.031  22.589  23.7160  0.00  0.00     0.000 C
ATOM     83  C2  SGN B   5      18.834  22.286  22.2230  0.00  0.00     0.000 C
ATOM     84  C3  SGN B   5      20.105  21.635  21.6600  0.00  0.00     0.000 C
ATOM     85  C4  SGN B   5      21.294  22.538  21.9350  0.00  0.00     0.000 C
ATOM     86  C5  SGN B   5      21.400  22.747  23.4430  0.00  0.00     0.000 C
ATOM     87  O5  SGN B   5      20.191  23.376  23.9090  0.00  0.00     0.000 O
ATOM     88   O  SGN B   5      19.954  21.405  20.2770  0.00  0.00     0.000 O
ATOM     90  HD  SGN B   5      19.879  20.805  20.8960  0.00  0.00     0.000 HD
BRANCH 83 92
ATOM     90   N  SGN B   5      17.446  22.491  22.6810  0.00  0.00     0.000 N
ATOM     92  HD  SGN B   5      17.374  23.226  23.1340  0.00  0.00     0.000 HD
ATOM     92   S  SGN B   5      16.264  22.217  21.6420  0.00  0.00     0.000 S
ATOM     93   O  SGN B   5      15.070  22.508  22.3780  0.00  0.00     0.000 OA
ATOM     94   O  SGN B   5      16.588  22.973  20.4810  0.00  0.00     0.000 OA
ATOM     95   O  SGN B   5      16.401  20.754  21.2810  0.00  0.00     0.000 OA
ENDBRANCH 83 92
BRANCH 86 96
ATOM     96   C  SGN B   5      22.559  23.626  23.8690  0.00  0.00     0.000 C
ATOM     97   O  SGN B   5      23.213  23.074  25.0140  0.00  0.00     0.000 O
ATOM     98   S  SGN B   5      24.806  22.920  24.9110  0.00  0.00     0.000 S
ATOM     99   O  SGN B   5      25.176  22.545  26.2550  0.00  0.00     0.000 OA
ATOM    100   O  SGN B   5      25.076  21.936  23.9260  0.00  0.00     0.000 OA
ATOM    101   O  SGN B   5      25.264  24.219  24.5400  0.00  0.00     0.000 OA
ENDBRANCH 86 96
BRANCH 82 102
ATOM    102  O4  IDS B   6      19.091  21.460  24.4770  0.00  0.00     0.000 O
BRANCH 102 106
ATOM    103  C1  IDS B   6      17.657  19.778  27.3710  0.00  0.00     0.000 C
ATOM    104  C2  IDS B   6      16.901  20.918  26.6700  0.00  0.00     0.000 C
ATOM    105  C3  IDS B   6      17.730  22.153  26.3750  0.00  0.00     0.000 C
ATOM    106  C4  IDS B   6      19.127  21.818  25.8830  0.00  0.00     0.000 C
ATOM    107  C5  IDS B   6      19.710  20.676  26.7200  0.00  0.00     0.000 C
ATOM    108  O5  IDS B   6      18.874  19.518  26.6980  0.00  0.00     0.000 O
ATOM    109   O  IDS B   6      17.787  22.939  27.5540  0.00  0.00     0.000 O
ATOM    111  HD  IDS B   6      17.631  22.372  28.1900  0.00  0.00     0.000 HD
BRANCH 104 111
ATOM    111   O  IDS B   6      16.429  20.445  25.3600  0.00  0.00     0.000 O
ATOM    112   S  IDS B   6      14.866  20.141  25.1870  0.00  0.00     0.000 S
ATOM    113   O  IDS B   6      14.577  19.130  26.1920  0.00  0.00     0.000 OA
ATOM    114   O  IDS B   6      14.128  21.398  25.3530  0.00  0.00     0.000 OA
ATOM    115   O  IDS B   6      14.875  19.636  23.8310  0.00  0.00     0.000 OA
ENDBRANCH 104 111
BRANCH 107 116
ATOM    116   C  IDS B   6      21.096  20.323  26.1960  0.00  0.00     0.000 C
ATOM    117   O  IDS B   6      21.152  19.484  25.3330  0.00  0.00     0.000 OA
ATOM    118   O  IDS B   6      22.099  20.860  26.6390  0.00  0.00     0.000 OA
ENDBRANCH 107 116
BRANCH 103 119
ATOM    119  O4  SGN B   7      17.637  20.137  28.6800  0.00  0.00     0.000 O
BRANCH 119 123
ATOM    120  C1  SGN B   7      18.024  18.150  32.3390  0.00  0.00     0.000 C
ATOM    121  C2  SGN B   7      19.308  18.689  31.6810  0.00  0.00     0.000 C
ATOM    122  C3  SGN B   7      18.964  19.714  30.5930  0.00  0.00     0.000 C
ATOM    123  C4  SGN B   7      17.977  19.108  29.6100  0.00  0.00     0.000 C
ATOM    124  C5  SGN B   7      16.738  18.595  30.3630  0.00  0.00     0.000 C
ATOM    125  O5  SGN B   7      17.108  17.633  31.3760  0.00  0.00     0.000 O
ATOM    126   O  SGN B   7      20.171  20.119  29.9370  0.00  0.00     0.000 O
ATOM    128  HD  SGN B   7      19.797  19.697  30.5940  0.00  0.00     0.000 HD
BRANCH 121 130
ATOM    128   N  SGN B   7      20.043  17.952  32.7120  0.00  0.00     0.000 N
ATOM    130  HD  SGN B   7      20.636  17.712  32.1280  0.00  0.00     0.000 HD
ATOM    130   S  SGN B   7      21.442  18.479  33.3120  0.00  0.00     0.000 S
ATOM    131   O  SGN B   7      21.203  19.832  33.6800  0.00  0.00     0.000 OA
ATOM    132   O  SGN B   7      21.895  17.542  34.2760  0.00  0.00     0.000 OA
ATOM    133   O  SGN B   7      22.379  18.257  32.0760  0.00  0.00     0.000 OA
ENDBRANCH 121 130
BRANCH 124 134
ATOM    134   C  SGN B   7      15.754  17.873  29.4900  0.00  0.00     0.000 C
ATOM    135   O  SGN B   7      16.083  16.474  29.4890  0.00  0.00     0.000 O
ATOM    136   S  SGN B   7      15.075  15.518  28.7540  0.00  0.00     0.000 S
ATOM    137   O  SGN B   7      15.663  14.200  28.7940  0.00  0.00     0.000 OA
ATOM    138   O  SGN B   7      14.964  16.046  27.4130  0.00  0.00     0.000 OA
ATOM    139   O  SGN B   7      13.871  15.655  29.5570  0.00  0.00     0.000 OA
ENDBRANCH 124 134
BRANCH 120 140
ATOM    140  O4  IDS B   8      17.158  18.809  33.1170  0.00  0.00     0.000 O
BRANCH 140 144
ATOM    141  C1  IDS B   8      14.567  19.759  35.4280  0.00  0.00     0.000 C
ATOM    142  C2  IDS B   8      14.753  20.514  34.0810  0.00  0.00     0.000 C
ATOM    143  C3  IDS B   8      16.214  20.923  33.8160  0.00  0.00     0.000 C
ATOM    144  C4  IDS B   8      17.193  19.799  34.1520  0.00  0.00     0.000 C
ATOM    145  C5  IDS B   8      16.828  19.165  35.5030  0.00  0.00     0.000 C
ATOM    146  O5  IDS B   8      15.488  18.679  35.5120  0.00  0.00     0.000 O
BRANCH 142 147
ATOM    147   O  IDS B   8      14.331  19.637  32.9580  0.00  0.00     0.000 O
ATOM    148   S  IDS B   8      13.105  20.058  31.9830  0.00  0.00     0.000 S
ATOM    149   O  IDS B   8      12.362  21.108  32.6420  0.00  0.00     0.000 OA
ATOM    150   O  IDS B   8      13.727  20.499  30.7480  0.00  0.00     0.000 OA
ATOM    151   O  IDS B   8      12.314  18.853  31.8230  0.00  0.00     0.000 OA
ENDBRANCH 142 147
BRANCH 145 152
ATOM    152   C  IDS B   8      17.705  17.977  35.8450  0.00  0.00     0.000 C
ATOM    153   O  IDS B   8      17.184  16.906  36.1360  0.00  0.00     0.000 OA
ATOM    154   O  IDS B   8      18.917  18.093  35.8080  0.00  0.00     0.000 OA
ENDBRANCH 145 152
ENDBRANCH 140 144
ENDBRANCH 120 140
ENDBRANCH 119 123
ENDBRANCH 103 119
ENDBRANCH 102 106
ENDBRANCH 82 102
ENDBRANCH 81 85
ENDBRANCH 65 81
ENDBRANCH 64 68
ENDBRANCH 41 64
ENDBRANCH 40 44
ENDBRANCH 24 40
ENDBRANCH 23 27
ENDBRANCH 1 23
TORSDOF 31
ENDMDL
MODEL 25
REMARK VINA RESULT:      -7.2      4.958      8.067
ROOT
ATOM      1  C1  SGN B   1      28.639  11.675  13.5550  0.00  0.00     0.000 C
ATOM      2  C2  SGN B   1      30.118  11.362  13.8390  0.00  0.00     0.000 C
ATOM      3  C3  SGN B   1      30.558  10.098  13.0920  0.00  0.00     0.000 C
ATOM      4  C4  SGN B   1      29.648   8.929  13.4540  0.00  0.00     0.000 C
ATOM      5  C5  SGN B   1      28.192   9.358  13.2830  0.00  0.00     0.000 C
ATOM      6  O5  SGN B   1      27.945  10.544  14.0630  0.00  0.00     0.000 O
ATOM      7   O  SGN B   1      31.913   9.787  13.3930  0.00  0.00     0.000 O
ATOM      9  HD  SGN B   1      31.544   9.737  14.1740  0.00  0.00     0.000 HD
ATOM      9   O  SGN B   1      29.935   7.830  12.6100  0.00  0.00     0.000 O
ATOM     11  HD  SGN B   1      29.566   7.780  13.3910  0.00  0.00     0.000 HD
ENDROOT
BRANCH 2 13
ATOM     11   N  SGN B   1      30.519  12.457  14.7420  0.00  0.00     0.000 N
ATOM     13  HD  SGN B   1      30.130  12.629  13.9880  0.00  0.00     0.000 HD
ATOM     13   S  SGN B   1      30.896  13.924  14.1990  0.00  0.00     0.000 S
ATOM     14   O  SGN B   1      30.731  13.981  12.8000  0.00  0.00     0.000 OA
ATOM     15   O  SGN B   1      30.247  14.889  15.0210  0.00  0.00     0.000 OA
ATOM     16   O  SGN B   1      32.406  13.926  14.5930  0.00  0.00     0.000 OA
ENDBRANCH 2 13
BRANCH 5 17
ATOM     17   C  SGN B   1      27.190   8.318  13.7170  0.00  0.00     0.000 C
ATOM     18   O  SGN B   1      26.254   8.032  12.6580  0.00  0.00     0.000 O
ATOM     19   S  SGN B   1      24.714   7.958  13.0850  0.00  0.00     0.000 S
ATOM     20   O  SGN B   1      24.028   7.436  11.9220  0.00  0.00     0.000 OA
ATOM     21   O  SGN B   1      24.704   7.058  14.2150  0.00  0.00     0.000 OA
ATOM     22   O  SGN B   1      24.348   9.318  13.4120  0.00  0.00     0.000 OA
ENDBRANCH 5 17
BRANCH 1 23
ATOM     23  O4  IDS B   2      27.859  12.369  12.6780  0.00  0.00     0.000 O
BRANCH 23 27
ATOM     24  C1  IDS B   2      25.316  15.369  14.0060  0.00  0.00     0.000 C
ATOM     25  C2  IDS B   2      24.861  13.924  14.3110  0.00  0.00     0.000 C
ATOM     26  C3  IDS B   2      25.989  12.930  14.0530  0.00  0.00     0.000 C
ATOM     27  C4  IDS B   2      26.575  13.026  12.6500  0.00  0.00     0.000 C
ATOM     28  C5  IDS B   2      26.621  14.499  12.1980  0.00  0.00     0.000 C
ATOM     29  O5  IDS B   2      26.572  15.374  13.3150  0.00  0.00     0.000 O
ATOM     30   O  IDS B   2      25.496  11.607  14.2230  0.00  0.00     0.000 O
ATOM     32  HD  IDS B   2      25.046  11.319  13.5410  0.00  0.00     0.000 HD
BRANCH 25 32
ATOM     32   O  IDS B   2      24.429  13.757  15.7210  0.00  0.00     0.000 O
ATOM     33   S  IDS B   2      22.837  13.638  16.1370  0.00  0.00     0.000 S
ATOM     34   O  IDS B   2      22.791  13.714  17.5880  0.00  0.00     0.000 OA
ATOM     35   O  IDS B   2      22.093  14.729  15.5230  0.00  0.00     0.000 OA
ATOM     36   O  IDS B   2      22.406  12.343  15.6630  0.00  0.00     0.000 OA
ENDBRANCH 25 32
BRANCH 28 37
ATOM     37   C  IDS B   2      27.788  14.937  11.2890  0.00  0.00     0.000 C
ATOM     38   O  IDS B   2      28.112  16.088  11.4670  0.00  0.00     0.000 OA
ATOM     39   O  IDS B   2      28.426  14.219  10.4810  0.00  0.00     0.000 OA
ENDBRANCH 28 37
BRANCH 24 40
ATOM     40  O4  SUS B   3      24.437  16.387  14.1090  0.00  0.00     0.000 O
BRANCH 40 44
ATOM     41  C1  SUS B   3      25.209  20.262  15.5020  0.00  0.00     0.000 C
ATOM     42  C2  SUS B   3      24.963  20.092  13.9890  0.00  0.00     0.000 C
ATOM     43  C3  SUS B   3      24.244  18.768  13.7410  0.00  0.00     0.000 C
ATOM     44  C4  SUS B   3      25.055  17.643  14.3660  0.00  0.00     0.000 C
ATOM     45  C5  SUS B   3      25.147  17.876  15.8600  0.00  0.00     0.000 C
ATOM     46  O5  SUS B   3      25.847  19.117  16.0800  0.00  0.00     0.000 O
BRANCH 42 49
ATOM     47   N  SUS B   3      24.818  20.653  12.6350  0.00  0.00     0.000 N
ATOM     49  HD  SUS B   3      25.237  20.241  11.9980  0.00  0.00     0.000 HD
ATOM     49   S  SUS B   3      25.207  22.205  12.5640  0.00  0.00     0.000 S
ATOM     50   O  SUS B   3      26.531  22.389  13.0130  0.00  0.00     0.000 OA
ATOM     51   O  SUS B   3      25.131  22.339  11.0210  0.00  0.00     0.000 OA
ATOM     52   O  SUS B   3      24.196  22.969  13.1800  0.00  0.00     0.000 OA
ENDBRANCH 42 49
BRANCH 43 53
ATOM     53   O  SUS B   3      24.149  18.568  12.2820  0.00  0.00     0.000 O
ATOM     54   S  SUS B   3      22.641  18.454  11.6380  0.00  0.00     0.000 S
ATOM     55   O  SUS B   3      22.039  19.778  11.7000  0.00  0.00     0.000 OA
ATOM     56   O  SUS B   3      22.871  17.977  10.2860  0.00  0.00     0.000 OA
ATOM     57   O  SUS B   3      21.906  17.497  12.4700  0.00  0.00     0.000 OA
ENDBRANCH 43 53
BRANCH 45 58
ATOM     58   C  SUS B   3      25.857  16.743  16.5670  0.00  0.00     0.000 C
ATOM     59   S  SUS B   3      25.772  15.300  18.6880  0.00  0.00     0.000 S
ATOM     60   O  SUS B   3      25.079  16.330  17.7040  0.00  0.00     0.000 O
ATOM     61   O  SUS B   3      26.692  16.092  19.4810  0.00  0.00     0.000 OA
ATOM     62   O  SUS B   3      24.635  14.846  19.4430  0.00  0.00     0.000 OA
ATOM     63   O  SUS B   3      26.375  14.323  17.8520  0.00  0.00     0.000 OA
ENDBRANCH 45 58
BRANCH 41 64
ATOM     64  O4  IDS B   4      24.108  20.701  16.1950  0.00  0.00     0.000 O
BRANCH 64 68
ATOM     65  C1  IDS B   4      22.092  22.343  18.7480  0.00  0.00     0.000 C
ATOM     66  C2  IDS B   4      23.042  23.165  17.8670  0.00  0.00     0.000 C
ATOM     67  C3  IDS B   4      24.433  22.572  17.7200  0.00  0.00     0.000 C
ATOM     68  C4  IDS B   4      24.417  21.063  17.5590  0.00  0.00     0.000 C
ATOM     69  C5  IDS B   4      23.431  20.485  18.5830  0.00  0.00     0.000 C
ATOM     70  O5  IDS B   4      22.122  20.994  18.3170  0.00  0.00     0.000 O
ATOM     71   O  IDS B   4      25.162  22.921  18.8780  0.00  0.00     0.000 O
ATOM     73  HD  IDS B   4      24.515  22.985  18.3060  0.00  0.00     0.000 HD
BRANCH 66 73
ATOM     73   O  IDS B   4      22.494  23.220  16.5050  0.00  0.00     0.000 O
ATOM     74   S  IDS B   4      21.748  24.578  16.0420  0.00  0.00     0.000 S
ATOM     75   O  IDS B   4      20.689  24.812  17.0010  0.00  0.00     0.000 OA
ATOM     76   O  IDS B   4      21.279  24.225  14.7250  0.00  0.00     0.000 OA
ATOM     77   O  IDS B   4      22.766  25.601  16.0550  0.00  0.00     0.000 OA
ENDBRANCH 66 73
BRANCH 69 78
ATOM     78   C  IDS B   4      23.463  18.967  18.7000  0.00  0.00     0.000 C
ATOM     79   O  IDS B   4      24.238  18.452  19.5050  0.00  0.00     0.000 OA
ATOM     80   O  IDS B   4      22.631  18.302  18.0550  0.00  0.00     0.000 OA
ENDBRANCH 69 78
BRANCH 65 81
ATOM     81  O4  SGN B   5      22.378  22.574  20.0600  0.00  0.00     0.000 O
BRANCH 81 85
ATOM     82  C1  SGN B   5      20.708  21.591  23.7860  0.00  0.00     0.000 C
ATOM     83  C2  SGN B   5      20.117  20.895  22.5500  0.00  0.00     0.000 C
ATOM     84  C3  SGN B   5      21.106  20.996  21.3820  0.00  0.00     0.000 C
ATOM     85  C4  SGN B   5      21.448  22.455  21.1390  0.00  0.00     0.000 C
ATOM     86  C5  SGN B   5      22.045  23.028  22.4210  0.00  0.00     0.000 C
ATOM     87  O5  SGN B   5      21.067  22.924  23.4730  0.00  0.00     0.000 O
ATOM     88   O  SGN B   5      20.546  20.409  20.2270  0.00  0.00     0.000 O
ATOM     90  HD  SGN B   5      21.138  20.040  20.7420  0.00  0.00     0.000 HD
BRANCH 83 92
ATOM     90   N  SGN B   5      18.849  20.683  23.2750  0.00  0.00     0.000 N
ATOM     92  HD  SGN B   5      18.287  21.322  23.1120  0.00  0.00     0.000 HD
ATOM     92   S  SGN B   5      18.221  19.213  23.2770  0.00  0.00     0.000 S
ATOM     93   O  SGN B   5      17.018  19.343  24.0430  0.00  0.00     0.000 OA
ATOM     94   O  SGN B   5      18.157  18.819  21.9110  0.00  0.00     0.000 OA
ATOM     95   O  SGN B   5      19.266  18.350  23.9480  0.00  0.00     0.000 OA
ENDBRANCH 83 92
BRANCH 86 96
ATOM     96   C  SGN B   5      22.448  24.485  22.3220  0.00  0.00     0.000 C
ATOM     97   O  SGN B   5      23.718  24.698  22.9430  0.00  0.00     0.000 O
ATOM     98   S  SGN B   5      24.810  25.480  22.0670  0.00  0.00     0.000 S
ATOM     99   O  SGN B   5      25.872  25.712  23.0160  0.00  0.00     0.000 OA
ATOM    100   O  SGN B   5      25.161  24.642  20.9770  0.00  0.00     0.000 OA
ATOM    101   O  SGN B   5      24.146  26.675  21.6580  0.00  0.00     0.000 OA
ENDBRANCH 86 96
BRANCH 82 102
ATOM    102  O4  IDS B   6      21.776  20.921  24.3040  0.00  0.00     0.000 O
BRANCH 102 106
ATOM    103  C1  IDS B   6      23.543  18.965  26.8160  0.00  0.00     0.000 C
ATOM    104  C2  IDS B   6      22.105  18.606  26.4090  0.00  0.00     0.000 C
ATOM    105  C3  IDS B   6      21.141  19.776  26.3580  0.00  0.00     0.000 C
ATOM    106  C4  IDS B   6      21.763  21.022  25.7510  0.00  0.00     0.000 C
ATOM    107  C5  IDS B   6      23.181  21.211  26.2970  0.00  0.00     0.000 C
ATOM    108  O5  IDS B   6      24.002  20.066  26.0560  0.00  0.00     0.000 O
ATOM    109   O  IDS B   6      20.686  20.032  27.6770  0.00  0.00     0.000 O
ATOM    111  HD  IDS B   6      21.305  19.695  28.1800  0.00  0.00     0.000 HD
BRANCH 104 111
ATOM    111   O  IDS B   6      22.116  18.052  25.0470  0.00  0.00     0.000 O
ATOM    112   S  IDS B   6      22.206  16.462  24.8820  0.00  0.00     0.000 S
ATOM    113   O  IDS B   6      23.440  16.093  25.5570  0.00  0.00     0.000 OA
ATOM    114   O  IDS B   6      20.993  15.867  25.4540  0.00  0.00     0.000 OA
ATOM    115   O  IDS B   6      22.278  16.381  23.4390  0.00  0.00     0.000 OA
ENDBRANCH 104 111
BRANCH 107 116
ATOM    116   C  IDS B   6      23.808  22.441  25.6550  0.00  0.00     0.000 C
ATOM    117   O  IDS B   6      23.314  23.506  25.9260  0.00  0.00     0.000 OA
ATOM    118   O  IDS B   6      24.760  22.347  24.8950  0.00  0.00     0.000 OA
ENDBRANCH 107 116
BRANCH 103 119
ATOM    119  O4  SGN B   7      23.491  19.015  28.1720  0.00  0.00     0.000 O
BRANCH 119 123
ATOM    120  C1  SGN B   7      26.374  18.845  31.1960  0.00  0.00     0.000 C
ATOM    121  C2  SGN B   7      25.754  20.218  30.8780  0.00  0.00     0.000 C
ATOM    122  C3  SGN B   7      24.466  20.051  30.0630  0.00  0.00     0.000 C
ATOM    123  C4  SGN B   7      24.742  19.202  28.8330  0.00  0.00     0.000 C
ATOM    124  C5  SGN B   7      25.364  17.860  29.2550  0.00  0.00     0.000 C
ATOM    125  O5  SGN B   7      26.574  18.065  30.0180  0.00  0.00     0.000 O
ATOM    126   O  SGN B   7      23.971  21.346  29.7020  0.00  0.00     0.000 O
ATOM    128  HD  SGN B   7      24.528  20.875  30.1690  0.00  0.00     0.000 HD
BRANCH 121 130
ATOM    128   N  SGN B   7      25.739  20.737  32.2480  0.00  0.00     0.000 N
ATOM    130  HD  SGN B   7      26.566  20.503  32.3540  0.00  0.00     0.000 HD
ATOM    130   S  SGN B   7      26.496  22.096  32.6610  0.00  0.00     0.000 S
ATOM    131   O  SGN B   7      26.067  23.065  31.7110  0.00  0.00     0.000 OA
ATOM    132   O  SGN B   7      26.295  22.315  34.0490  0.00  0.00     0.000 OA
ATOM    133   O  SGN B   7      27.988  21.633  32.5450  0.00  0.00     0.000 OA
ENDBRANCH 121 130
BRANCH 124 134
ATOM    134   C  SGN B   7      25.780  16.995  28.1010  0.00  0.00     0.000 C
ATOM    135   O  SGN B   7      26.991  17.531  27.5410  0.00  0.00     0.000 O
ATOM    136   S  SGN B   7      27.678  16.679  26.4140  0.00  0.00     0.000 S
ATOM    137   O  SGN B   7      28.798  17.457  25.9420  0.00  0.00     0.000 OA
ATOM    138   O  SGN B   7      26.657  16.490  25.4080  0.00  0.00     0.000 OA
ATOM    139   O  SGN B   7      28.056  15.467  27.1240  0.00  0.00     0.000 OA
ENDBRANCH 124 134
BRANCH 120 140
ATOM    140  O4  IDS B   8      25.892  17.890  31.9990  0.00  0.00     0.000 O
BRANCH 140 144
ATOM    141  C1  IDS B   8      25.002  15.493  34.5330  0.00  0.00     0.000 C
ATOM    142  C2  IDS B   8      25.976  15.114  33.3820  0.00  0.00     0.000 C
ATOM    143  C3  IDS B   8      25.450  15.512  31.9900  0.00  0.00     0.000 C
ATOM    144  C4  IDS B   8      24.843  16.914  31.9870  0.00  0.00     0.000 C
ATOM    145  C5  IDS B   8      23.934  17.101  33.2110  0.00  0.00     0.000 C
ATOM    146  O5  IDS B   8      24.635  16.863  34.4290  0.00  0.00     0.000 O
BRANCH 142 147
ATOM    147   O  IDS B   8      27.272  15.816  33.5780  0.00  0.00     0.000 O
ATOM    148   S  IDS B   8      28.647  15.224  32.9520  0.00  0.00     0.000 S
ATOM    149   O  IDS B   8      28.407  13.844  32.5950  0.00  0.00     0.000 OA
ATOM    150   O  IDS B   8      28.938  16.059  31.8010  0.00  0.00     0.000 OA
ATOM    151   O  IDS B   8      29.632  15.347  34.0090  0.00  0.00     0.000 OA
ENDBRANCH 142 147
BRANCH 145 152
ATOM    152   C  IDS B   8      23.380  18.507  33.3170  0.00  0.00     0.000 C
ATOM    153   O  IDS B   8      23.864  19.289  34.1270  0.00  0.00     0.000 OA
ATOM    154   O  IDS B   8      22.472  18.853  32.5820  0.00  0.00     0.000 OA
ENDBRANCH 145 152
ENDBRANCH 140 144
ENDBRANCH 120 140
ENDBRANCH 119 123
ENDBRANCH 103 119
ENDBRANCH 102 106
ENDBRANCH 82 102
ENDBRANCH 81 85
ENDBRANCH 65 81
ENDBRANCH 64 68
ENDBRANCH 41 64
ENDBRANCH 40 44
ENDBRANCH 24 40
ENDBRANCH 23 27
ENDBRANCH 1 23
TORSDOF 31
ENDMDL
MODEL 26
REMARK VINA RESULT:      -7.2     13.213     18.936
ROOT
ATOM      1  C1  SGN B   1      28.966   5.797  40.0640  0.00  0.00     0.000 C
ATOM      2  C2  SGN B   1      29.808   5.552  38.8010  0.00  0.00     0.000 C
ATOM      3  C3  SGN B   1      28.984   5.823  37.5380  0.00  0.00     0.000 C
ATOM      4  C4  SGN B   1      27.713   4.980  37.5480  0.00  0.00     0.000 C
ATOM      5  C5  SGN B   1      27.002   5.164  38.8870  0.00  0.00     0.000 C
ATOM      6  O5  SGN B   1      27.910   4.852  39.9610  0.00  0.00     0.000 O
ATOM      7   O  SGN B   1      29.753   5.552  36.3720  0.00  0.00     0.000 O
ATOM      9  HD  SGN B   1      29.737   4.777  36.7560  0.00  0.00     0.000 HD
ATOM      9   O  SGN B   1      26.869   5.387  36.4870  0.00  0.00     0.000 O
ATOM     11  HD  SGN B   1      26.854   4.612  36.8720  0.00  0.00     0.000 HD
ENDROOT
BRANCH 2 13
ATOM     11   N  SGN B   1      31.110   5.150  39.3660  0.00  0.00     0.000 N
ATOM     13  HD  SGN B   1      30.729   5.885  39.6190  0.00  0.00     0.000 HD
ATOM     13   S  SGN B   1      32.184   6.222  39.8990  0.00  0.00     0.000 S
ATOM     14   O  SGN B   1      31.664   7.529  39.7850  0.00  0.00     0.000 OA
ATOM     15   O  SGN B   1      32.682   5.774  41.1560  0.00  0.00     0.000 OA
ATOM     16   O  SGN B   1      33.302   5.962  38.8420  0.00  0.00     0.000 OA
ENDBRANCH 2 13
BRANCH 5 17
ATOM     17   C  SGN B   1      25.783   4.293  39.0610  0.00  0.00     0.000 C
ATOM     18   O  SGN B   1      25.960   3.023  38.4010  0.00  0.00     0.000 O
ATOM     19   S  SGN B   1      24.723   2.509  37.5280  0.00  0.00     0.000 S
ATOM     20   O  SGN B   1      25.053   1.143  37.1780  0.00  0.00     0.000 OA
ATOM     21   O  SGN B   1      23.591   2.621  38.4190  0.00  0.00     0.000 OA
ATOM     22   O  SGN B   1      24.666   3.401  36.3910  0.00  0.00     0.000 OA
ENDBRANCH 5 17
BRANCH 1 23
ATOM     23  O4  IDS B   2      28.641   6.793  40.9370  0.00  0.00     0.000 O
BRANCH 23 27
ATOM     24  C1  IDS B   2      25.609   9.252  39.5250  0.00  0.00     0.000 C
ATOM     25  C2  IDS B   2      27.047   9.726  39.2220  0.00  0.00     0.000 C
ATOM     26  C3  IDS B   2      28.059   8.621  39.5140  0.00  0.00     0.000 C
ATOM     27  C4  IDS B   2      27.962   8.067  40.9290  0.00  0.00     0.000 C
ATOM     28  C5  IDS B   2      26.486   8.005  41.3700  0.00  0.00     0.000 C
ATOM     29  O5  IDS B   2      25.619   8.013  40.2460  0.00  0.00     0.000 O
ATOM     30   O  IDS B   2      29.375   9.133  39.3420  0.00  0.00     0.000 O
ATOM     32  HD  IDS B   2      29.649   9.603  40.0160  0.00  0.00     0.000 HD
BRANCH 25 32
ATOM     32   O  IDS B   2      27.219  10.127  37.8040  0.00  0.00     0.000 O
ATOM     33   S  IDS B   2      27.621  11.669  37.3770  0.00  0.00     0.000 S
ATOM     34   O  IDS B   2      27.478  11.740  35.9310  0.00  0.00     0.000 OA
ATOM     35   O  IDS B   2      26.728  12.605  38.0460  0.00  0.00     0.000 OA
ATOM     36   O  IDS B   2      28.998  11.839  37.7780  0.00  0.00     0.000 OA
ENDBRANCH 25 32
BRANCH 28 37
ATOM     37   C  IDS B   2      26.060   6.852  42.3030  0.00  0.00     0.000 C
ATOM     38   O  IDS B   2      26.441   7.006  43.4400  0.00  0.00     0.000 OA
ATOM     39   O  IDS B   2      25.342   5.866  42.0060  0.00  0.00     0.000 OA
ENDBRANCH 28 37
BRANCH 24 40
ATOM     40  O4  SUS B   3      24.576  10.111  39.3950  0.00  0.00     0.000 O
BRANCH 40 44
ATOM     41  C1  SUS B   3      20.665   9.464  38.0420  0.00  0.00     0.000 C
ATOM     42  C2  SUS B   3      21.028   8.917  39.4370  0.00  0.00     0.000 C
ATOM     43  C3  SUS B   3      22.273   9.636  39.9510  0.00  0.00     0.000 C
ATOM     44  C4  SUS B   3      23.384   9.493  38.9230  0.00  0.00     0.000 C
ATOM     45  C5  SUS B   3      22.942  10.147  37.6290  0.00  0.00     0.000 C
ATOM     46  O5  SUS B   3      21.780   9.444  37.1440  0.00  0.00     0.000 O
BRANCH 42 49
ATOM     47   N  SUS B   3      19.884   8.008  39.2490  0.00  0.00     0.000 N
ATOM     49  HD  SUS B   3      19.259   8.278  38.7140  0.00  0.00     0.000 HD
ATOM     49   S  SUS B   3      19.202   7.579  40.6340  0.00  0.00     0.000 S
ATOM     50   O  SUS B   3      18.785   8.727  41.3390  0.00  0.00     0.000 OA
ATOM     51   O  SUS B   3      17.985   6.846  40.0140  0.00  0.00     0.000 OA
ATOM     52   O  SUS B   3      20.042   6.669  41.3060  0.00  0.00     0.000 OA
ENDBRANCH 42 49
BRANCH 43 53
ATOM     53   O  SUS B   3      22.677   8.997  41.2180  0.00  0.00     0.000 O
ATOM     54   S  SUS B   3      22.651   9.932  42.5710  0.00  0.00     0.000 S
ATOM     55   O  SUS B   3      21.255  10.177  42.9040  0.00  0.00     0.000 OA
ATOM     56   O  SUS B   3      23.359   9.139  43.5600  0.00  0.00     0.000 OA
ATOM     57   O  SUS B   3      23.342  11.178  42.2270  0.00  0.00     0.000 OA
ENDBRANCH 43 53
BRANCH 45 58
ATOM     58   C  SUS B   3      24.037  10.133  36.5850  0.00  0.00     0.000 C
ATOM     59   S  SUS B   3      24.944   8.769  34.6090  0.00  0.00     0.000 S
ATOM     60   O  SUS B   3      23.787   9.072  35.6480  0.00  0.00     0.000 O
ATOM     61   O  SUS B   3      25.933   8.013  35.3530  0.00  0.00     0.000 OA
ATOM     62   O  SUS B   3      24.237   7.966  33.6480  0.00  0.00     0.000 OA
ATOM     63   O  SUS B   3      25.376  10.039  34.1410  0.00  0.00     0.000 OA
ENDBRANCH 45 58
BRANCH 41 64
ATOM     64  O4  IDS B   4      19.990  10.659  38.0740  0.00  0.00     0.000 O
BRANCH 64 68
ATOM     65  C1  IDS B   4      16.942  12.251  36.8710  0.00  0.00     0.000 C
ATOM     66  C2  IDS B   4      17.122  10.733  36.7460  0.00  0.00     0.000 C
ATOM     67  C3  IDS B   4      18.474  10.303  36.2030  0.00  0.00     0.000 C
ATOM     68  C4  IDS B   4      19.621  11.127  36.7580  0.00  0.00     0.000 C
ATOM     69  C5  IDS B   4      19.207  12.604  36.7280  0.00  0.00     0.000 C
ATOM     70  O5  IDS B   4      18.058  12.787  37.5590  0.00  0.00     0.000 O
ATOM     71   O  IDS B   4      18.425  10.440  34.7980  0.00  0.00     0.000 O
ATOM     73  HD  IDS B   4      18.092  10.373  35.5940  0.00  0.00     0.000 HD
BRANCH 66 73
ATOM     73   O  IDS B   4      17.029  10.134  38.0840  0.00  0.00     0.000 O
ATOM     74   S  IDS B   4      15.580   9.618  38.5860  0.00  0.00     0.000 S
ATOM     75   O  IDS B   4      14.689  10.755  38.5000  0.00  0.00     0.000 OA
ATOM     76   O  IDS B   4      15.866   9.198  39.9340  0.00  0.00     0.000 OA
ATOM     77   O  IDS B   4      15.223   8.543  37.6910  0.00  0.00     0.000 OA
ENDBRANCH 66 73
BRANCH 69 78
ATOM     78   C  IDS B   4      20.331  13.580  37.0490  0.00  0.00     0.000 C
ATOM     79   O  IDS B   4      20.068  14.592  37.6960  0.00  0.00     0.000 OA
ATOM     80   O  IDS B   4      21.495  13.270  36.7380  0.00  0.00     0.000 OA
ENDBRANCH 69 78
BRANCH 65 81
ATOM     81  O4  SGN B   5      16.666  12.777  35.6450  0.00  0.00     0.000 O
BRANCH 81 85
ATOM     82  C1  SGN B   5      15.018  16.203  33.8610  0.00  0.00     0.000 C
ATOM     83  C2  SGN B   5      16.547  16.068  33.8300  0.00  0.00     0.000 C
ATOM     84  C3  SGN B   5      16.939  14.605  34.0830  0.00  0.00     0.000 C
ATOM     85  C4  SGN B   5      16.324  14.142  35.3920  0.00  0.00     0.000 C
ATOM     86  C5  SGN B   5      14.809  14.300  35.2930  0.00  0.00     0.000 C
ATOM     87  O5  SGN B   5      14.504  15.691  35.0760  0.00  0.00     0.000 O
ATOM     88   O  SGN B   5      18.344  14.484  34.1140  0.00  0.00     0.000 O
ATOM     90  HD  SGN B   5      17.836  14.268  33.4460  0.00  0.00     0.000 HD
BRANCH 83 92
ATOM     90   N  SGN B   5      16.729  16.780  32.5500  0.00  0.00     0.000 N
ATOM     92  HD  SGN B   5      15.981  16.836  32.1170  0.00  0.00     0.000 HD
ATOM     92   S  SGN B   5      17.613  18.111  32.5500  0.00  0.00     0.000 S
ATOM     93   O  SGN B   5      17.589  18.553  31.1880  0.00  0.00     0.000 OA
ATOM     94   O  SGN B   5      17.071  18.934  33.5760  0.00  0.00     0.000 OA
ATOM     95   O  SGN B   5      18.984  17.663  33.0070  0.00  0.00     0.000 OA
ENDBRANCH 83 92
BRANCH 86 96
ATOM     96   C  SGN B   5      14.057  13.862  36.5330  0.00  0.00     0.000 C
ATOM     97   O  SGN B   5      14.317  14.753  37.6200  0.00  0.00     0.000 O
ATOM     98   S  SGN B   5      13.030  15.327  38.3860  0.00  0.00     0.000 S
ATOM     99   O  SGN B   5      13.610  16.004  39.5200  0.00  0.00     0.000 OA
ATOM    100   O  SGN B   5      12.337  16.172  37.4810  0.00  0.00     0.000 OA
ATOM    101   O  SGN B   5      12.283  14.165  38.7430  0.00  0.00     0.000 OA
ENDBRANCH 86 96
BRANCH 82 102
ATOM    102  O4  IDS B   6      14.416  15.596  32.7980  0.00  0.00     0.000 O
BRANCH 102 106
ATOM    103  C1  IDS B   6      12.409  15.466  29.7640  0.00  0.00     0.000 C
ATOM    104  C2  IDS B   6      13.495  16.539  29.9420  0.00  0.00     0.000 C
ATOM    105  C3  IDS B   6      13.479  17.253  31.2800  0.00  0.00     0.000 C
ATOM    106  C4  IDS B   6      13.208  16.315  32.4420  0.00  0.00     0.000 C
ATOM    107  C5  IDS B   6      12.085  15.342  32.0710  0.00  0.00     0.000 C
ATOM    108  O5  IDS B   6      12.389  14.605  30.8860  0.00  0.00     0.000 O
ATOM    109   O  IDS B   6      12.501  18.278  31.2210  0.00  0.00     0.000 O
ATOM    111  HD  IDS B   6      11.964  18.018  30.5930  0.00  0.00     0.000 HD
BRANCH 104 111
ATOM    111   O  IDS B   6      14.817  15.900  29.8580  0.00  0.00     0.000 O
ATOM    112   S  IDS B   6      15.708  16.181  28.5590  0.00  0.00     0.000 S
ATOM    113   O  IDS B   6      14.888  15.727  27.4470  0.00  0.00     0.000 OA
ATOM    114   O  IDS B   6      16.046  17.609  28.5270  0.00  0.00     0.000 OA
ATOM    115   O  IDS B   6      16.830  15.316  28.8530  0.00  0.00     0.000 OA
ENDBRANCH 104 111
BRANCH 107 116
ATOM    116   C  IDS B   6      11.846  14.382  33.2300  0.00  0.00     0.000 C
ATOM    117   O  IDS B   6      12.207  13.244  33.0740  0.00  0.00     0.000 OA
ATOM    118   O  IDS B   6      11.305  14.753  34.2600  0.00  0.00     0.000 OA
ENDBRANCH 107 116
BRANCH 103 119
ATOM    119  O4  SGN B   7      11.311  16.178  29.4000  0.00  0.00     0.000 O
BRANCH 119 123
ATOM    120  C1  SGN B   7       8.108  15.672  26.7590  0.00  0.00     0.000 C
ATOM    121  C2  SGN B   7       8.036  14.947  28.1160  0.00  0.00     0.000 C
ATOM    122  C3  SGN B   7       9.052  15.541  29.0990  0.00  0.00     0.000 C
ATOM    123  C4  SGN B   7      10.436  15.536  28.4720  0.00  0.00     0.000 C
ATOM    124  C5  SGN B   7      10.402  16.276  27.1240  0.00  0.00     0.000 C
ATOM    125  O5  SGN B   7       9.433  15.683  26.2310  0.00  0.00     0.000 O
ATOM    126   O  SGN B   7       9.026  14.781  30.3120  0.00  0.00     0.000 O
ATOM    128  HD  SGN B   7       8.664  14.954  29.5450  0.00  0.00     0.000 HD
BRANCH 121 130
ATOM    128   N  SGN B   7       6.995  14.005  27.6950  0.00  0.00     0.000 N
ATOM    130  HD  SGN B   7       7.207  13.471  28.3430  0.00  0.00     0.000 HD
ATOM    130   S  SGN B   7       5.628  13.809  28.5230  0.00  0.00     0.000 S
ATOM    131   O  SGN B   7       5.121  15.124  28.7210  0.00  0.00     0.000 OA
ATOM    132   O  SGN B   7       4.843  12.829  27.8630  0.00  0.00     0.000 OA
ATOM    133   O  SGN B   7       6.174  13.084  29.7990  0.00  0.00     0.000 OA
ENDBRANCH 121 130
BRANCH 124 134
ATOM    134   C  SGN B   7      11.699  16.226  26.3710  0.00  0.00     0.000 C
ATOM    135   O  SGN B   7      11.494  16.801  25.0690  0.00  0.00     0.000 O
ATOM    136   S  SGN B   7      12.773  16.983  24.1760  0.00  0.00     0.000 S
ATOM    137   O  SGN B   7      12.311  17.470  22.8980  0.00  0.00     0.000 OA
ATOM    138   O  SGN B   7      13.370  15.669  24.0960  0.00  0.00     0.000 OA
ATOM    139   O  SGN B   7      13.549  17.952  24.9340  0.00  0.00     0.000 OA
ENDBRANCH 124 134
BRANCH 120 140
ATOM    140  O4  IDS B   8       7.763  16.935  26.4810  0.00  0.00     0.000 O
BRANCH 140 144
ATOM    141  C1  IDS B   8       7.466  20.495  26.9210  0.00  0.00     0.000 C
ATOM    142  C2  IDS B   8       7.356  19.528  28.1340  0.00  0.00     0.000 C
ATOM    143  C3  IDS B   8       6.393  18.353  27.8820  0.00  0.00     0.000 C
ATOM    144  C4  IDS B   8       6.581  17.745  26.4930  0.00  0.00     0.000 C
ATOM    145  C5  IDS B   8       6.694  18.857  25.4390  0.00  0.00     0.000 C
ATOM    146  O5  IDS B   8       7.755  19.761  25.7380  0.00  0.00     0.000 O
BRANCH 142 147
ATOM    147   O  IDS B   8       8.692  18.947  28.4280  0.00  0.00     0.000 O
ATOM    148   S  IDS B   8       9.637  19.570  29.5900  0.00  0.00     0.000 S
ATOM    149   O  IDS B   8       9.129  20.885  29.9100  0.00  0.00     0.000 OA
ATOM    150   O  IDS B   8       9.541  18.645  30.7040  0.00  0.00     0.000 OA
ATOM    151   O  IDS B   8      10.966  19.628  29.0110  0.00  0.00     0.000 OA
ENDBRANCH 142 147
BRANCH 145 152
ATOM    152   C  IDS B   8       6.981  18.320  24.0520  0.00  0.00     0.000 C
ATOM    153   O  IDS B   8       6.094  17.744  23.4310  0.00  0.00     0.000 OA
ATOM    154   O  IDS B   8       8.083  18.482  23.5600  0.00  0.00     0.000 OA
ENDBRANCH 145 152
ENDBRANCH 140 144
ENDBRANCH 120 140
ENDBRANCH 119 123
ENDBRANCH 103 119
ENDBRANCH 102 106
ENDBRANCH 82 102
ENDBRANCH 81 85
ENDBRANCH 65 81
ENDBRANCH 64 68
ENDBRANCH 41 64
ENDBRANCH 40 44
ENDBRANCH 24 40
ENDBRANCH 23 27
ENDBRANCH 1 23
TORSDOF 31
ENDMDL
MODEL 27
REMARK VINA RESULT:      -7.2      9.865     13.139
ROOT
ATOM      1  C1  SGN B   1      29.404  10.724  15.6210  0.00  0.00     0.000 C
ATOM      2  C2  SGN B   1      30.865  10.302  15.3930  0.00  0.00     0.000 C
ATOM      3  C3  SGN B   1      31.091   9.899  13.9320  0.00  0.00     0.000 C
ATOM      4  C4  SGN B   1      30.111   8.801  13.5310  0.00  0.00     0.000 C
ATOM      5  C5  SGN B   1      28.697   9.230  13.9150  0.00  0.00     0.000 C
ATOM      6  O5  SGN B   1      28.657   9.554  15.3190  0.00  0.00     0.000 O
ATOM      7   O  SGN B   1      32.433   9.466  13.7350  0.00  0.00     0.000 O
ATOM      9  HD  SGN B   1      32.146   8.892  14.3160  0.00  0.00     0.000 HD
ATOM      9   O  SGN B   1      30.193   8.585  12.1340  0.00  0.00     0.000 O
ATOM     11  HD  SGN B   1      29.907   8.011  12.7150  0.00  0.00     0.000 HD
ENDROOT
BRANCH 2 13
ATOM     11   N  SGN B   1      31.327  10.510  16.7780  0.00  0.00     0.000 N
ATOM     13  HD  SGN B   1      31.028  11.174  16.3100  0.00  0.00     0.000 HD
ATOM     13   S  SGN B   1      31.934  11.913  17.2800  0.00  0.00     0.000 S
ATOM     14   O  SGN B   1      31.896  12.860  16.2360  0.00  0.00     0.000 OA
ATOM     15   O  SGN B   1      31.348  12.233  18.5380  0.00  0.00     0.000 OA
ATOM     16   O  SGN B   1      33.393  11.437  17.5600  0.00  0.00     0.000 OA
ENDBRANCH 2 13
BRANCH 5 17
ATOM     17   C  SGN B   1      27.647   8.177  13.6670  0.00  0.00     0.000 C
ATOM     18   O  SGN B   1      26.436   8.767  13.1530  0.00  0.00     0.000 O
ATOM     19   S  SGN B   1      25.072   8.259  13.8140  0.00  0.00     0.000 S
ATOM     20   O  SGN B   1      24.023   8.810  12.9820  0.00  0.00     0.000 OA
ATOM     21   O  SGN B   1      25.164   6.819  13.7490  0.00  0.00     0.000 OA
ATOM     22   O  SGN B   1      25.083   8.789  15.1590  0.00  0.00     0.000 OA
ENDBRANCH 5 17
BRANCH 1 23
ATOM     23  O4  IDS B   2      28.609  11.831  15.5790  0.00  0.00     0.000 O
BRANCH 23 27
ATOM     24  C1  IDS B   2      26.233  15.056  14.4900  0.00  0.00     0.000 C
ATOM     25  C2  IDS B   2      25.473  13.798  14.9650  0.00  0.00     0.000 C
ATOM     26  C3  IDS B   2      26.425  12.797  15.6140  0.00  0.00     0.000 C
ATOM     27  C4  IDS B   2      27.601  12.413  14.7260  0.00  0.00     0.000 C
ATOM     28  C5  IDS B   2      28.077  13.641  13.9230  0.00  0.00     0.000 C
ATOM     29  O5  IDS B   2      27.650  14.847  14.5380  0.00  0.00     0.000 O
ATOM     30   O  IDS B   2      25.713  11.605  15.9220  0.00  0.00     0.000 O
ATOM     32  HD  IDS B   2      25.593  11.091  15.2360  0.00  0.00     0.000 HD
BRANCH 25 32
ATOM     32   O  IDS B   2      24.417  14.120  15.9560  0.00  0.00     0.000 O
ATOM     33   S  IDS B   2      22.816  13.883  15.6320  0.00  0.00     0.000 S
ATOM     34   O  IDS B   2      22.086  14.511  16.7220  0.00  0.00     0.000 OA
ATOM     35   O  IDS B   2      22.486  14.489  14.3510  0.00  0.00     0.000 OA
ATOM     36   O  IDS B   2      22.627  12.450  15.6290  0.00  0.00     0.000 OA
ENDBRANCH 25 32
BRANCH 28 37
ATOM     37   C  IDS B   2      29.584  13.760  13.6150  0.00  0.00     0.000 C
ATOM     38   O  IDS B   2      29.967  12.929  12.8250  0.00  0.00     0.000 OA
ATOM     39   O  IDS B   2      30.375  14.636  14.0430  0.00  0.00     0.000 OA
ENDBRANCH 28 37
BRANCH 24 40
ATOM     40  O4  SUS B   3      25.574  16.030  13.8290  0.00  0.00     0.000 O
BRANCH 40 44
ATOM     41  C1  SUS B   3      26.109  20.185  13.8800  0.00  0.00     0.000 C
ATOM     42  C2  SUS B   3      27.258  19.333  13.3040  0.00  0.00     0.000 C
ATOM     43  C3  SUS B   3      26.720  17.955  12.9220  0.00  0.00     0.000 C
ATOM     44  C4  SUS B   3      26.043  17.339  14.1360  0.00  0.00     0.000 C
ATOM     45  C5  SUS B   3      24.880  18.218  14.5490  0.00  0.00     0.000 C
ATOM     46  O5  SUS B   3      25.404  19.508  14.9260  0.00  0.00     0.000 O
BRANCH 42 49
ATOM     47   N  SUS B   3      27.845  20.210  12.2760  0.00  0.00     0.000 N
ATOM     49  HD  SUS B   3      27.810  19.926  11.4590  0.00  0.00     0.000 HD
ATOM     49   S  SUS B   3      29.363  20.609  12.5990  0.00  0.00     0.000 S
ATOM     50   O  SUS B   3      30.147  19.445  12.7330  0.00  0.00     0.000 OA
ATOM     51   O  SUS B   3      29.655  21.312  11.2490  0.00  0.00     0.000 OA
ATOM     52   O  SUS B   3      29.387  21.537  13.6590  0.00  0.00     0.000 OA
ENDBRANCH 42 49
BRANCH 43 53
ATOM     53   O  SUS B   3      27.864  17.120  12.5070  0.00  0.00     0.000 O
ATOM     54   S  SUS B   3      27.949  16.700  10.9210  0.00  0.00     0.000 S
ATOM     55   O  SUS B   3      28.292  17.900  10.1700  0.00  0.00     0.000 OA
ATOM     56   O  SUS B   3      28.973  15.672  10.8830  0.00  0.00     0.000 OA
ATOM     57   O  SUS B   3      26.619  16.205  10.5510  0.00  0.00     0.000 OA
ENDBRANCH 43 53
BRANCH 45 58
ATOM     58   C  SUS B   3      24.093  17.618  15.6920  0.00  0.00     0.000 C
ATOM     59   S  SUS B   3      23.980  17.524  18.2540  0.00  0.00     0.000 S
ATOM     60   O  SUS B   3      24.541  18.191  16.9320  0.00  0.00     0.000 O
ATOM     61   O  SUS B   3      24.752  16.308  18.4230  0.00  0.00     0.000 OA
ATOM     62   O  SUS B   3      24.312  18.532  19.2240  0.00  0.00     0.000 OA
ATOM     63   O  SUS B   3      22.591  17.335  18.0250  0.00  0.00     0.000 OA
ENDBRANCH 45 58
BRANCH 41 64
ATOM     64  O4  IDS B   4      25.297  20.739  12.9220  0.00  0.00     0.000 O
BRANCH 64 68
ATOM     65  C1  IDS B   4      22.825  22.963  11.4320  0.00  0.00     0.000 C
ATOM     66  C2  IDS B   4      24.013  23.541  12.2130  0.00  0.00     0.000 C
ATOM     67  C3  IDS B   4      24.278  22.861  13.5450  0.00  0.00     0.000 C
ATOM     68  C4  IDS B   4      24.115  21.354  13.4820  0.00  0.00     0.000 C
ATOM     69  C5  IDS B   4      22.834  21.045  12.6950  0.00  0.00     0.000 C
ATOM     70  O5  IDS B   4      22.964  21.556  11.3660  0.00  0.00     0.000 O
ATOM     71   O  IDS B   4      23.366  23.401  14.4800  0.00  0.00     0.000 O
ATOM     73  HD  IDS B   4      23.815  23.380  13.7400  0.00  0.00     0.000 HD
BRANCH 66 73
ATOM     73   O  IDS B   4      25.237  23.346  11.4240  0.00  0.00     0.000 O
ATOM     74   S  IDS B   4      25.964  24.658  10.8170  0.00  0.00     0.000 S
ATOM     75   O  IDS B   4      24.973  25.342  10.0150  0.00  0.00     0.000 OA
ATOM     76   O  IDS B   4      27.037  24.074  10.0520  0.00  0.00     0.000 OA
ATOM     77   O  IDS B   4      26.399  25.422  11.9620  0.00  0.00     0.000 OA
ENDBRANCH 66 73
BRANCH 69 78
ATOM     78   C  IDS B   4      22.412  19.583  12.7290  0.00  0.00     0.000 C
ATOM     79   O  IDS B   4      21.638  19.212  13.6100  0.00  0.00     0.000 OA
ATOM     80   O  IDS B   4      22.778  18.835  11.8040  0.00  0.00     0.000 OA
ENDBRANCH 69 78
BRANCH 65 81
ATOM     81  O4  SGN B   5      21.663  23.441  11.9570  0.00  0.00     0.000 O
BRANCH 81 85
ATOM     82  C1  SGN B   5      17.760  24.654  10.9910  0.00  0.00     0.000 C
ATOM     83  C2  SGN B   5      18.047  23.145  10.9670  0.00  0.00     0.000 C
ATOM     84  C3  SGN B   5      19.322  22.853  11.7710  0.00  0.00     0.000 C
ATOM     85  C4  SGN B   5      20.464  23.688  11.2180  0.00  0.00     0.000 C
ATOM     86  C5  SGN B   5      20.073  25.160  11.3150  0.00  0.00     0.000 C
ATOM     87  O5  SGN B   5      18.886  25.375  10.5290  0.00  0.00     0.000 O
ATOM     88   O  SGN B   5      19.625  21.477  11.7060  0.00  0.00     0.000 O
ATOM     90  HD  SGN B   5      19.253  21.878  12.3770  0.00  0.00     0.000 HD
BRANCH 83 92
ATOM     90   N  SGN B   5      16.591  22.990  11.1510  0.00  0.00     0.000 N
ATOM     92  HD  SGN B   5      16.191  23.757  11.1220  0.00  0.00     0.000 HD
ATOM     92   S  SGN B   5      15.856  21.813  10.3590  0.00  0.00     0.000 S
ATOM     93   O  SGN B   5      14.480  21.935  10.7390  0.00  0.00     0.000 OA
ATOM     94   O  SGN B   5      16.235  21.968   8.9960  0.00  0.00     0.000 OA
ATOM     95   O  SGN B   5      16.505  20.544  10.8660  0.00  0.00     0.000 OA
ENDBRANCH 83 92
BRANCH 86 96
ATOM     96   C  SGN B   5      21.131  26.118  10.8070  0.00  0.00     0.000 C
ATOM     97   O  SGN B   5      21.624  25.692   9.5340  0.00  0.00     0.000 O
ATOM     98   S  SGN B   5      21.638  26.801   8.3750  0.00  0.00     0.000 S
ATOM     99   O  SGN B   5      22.360  26.142   7.3140  0.00  0.00     0.000 OA
ATOM    100   O  SGN B   5      20.289  27.114   8.0690  0.00  0.00     0.000 OA
ATOM    101   O  SGN B   5      22.349  27.900   8.9450  0.00  0.00     0.000 OA
ENDBRANCH 86 96
BRANCH 82 102
ATOM    102  O4  IDS B   6      17.385  25.097  12.2240  0.00  0.00     0.000 O
BRANCH 102 106
ATOM    103  C1  IDS B   6      14.984  26.763  14.3960  0.00  0.00     0.000 C
ATOM    104  C2  IDS B   6      14.513  25.966  13.1690  0.00  0.00     0.000 C
ATOM    105  C3  IDS B   6      15.269  26.255  11.8870  0.00  0.00     0.000 C
ATOM    106  C4  IDS B   6      16.764  26.403  12.1080  0.00  0.00     0.000 C
ATOM    107  C5  IDS B   6      17.020  27.242  13.3630  0.00  0.00     0.000 C
ATOM    108  O5  IDS B   6      16.391  26.681  14.5160  0.00  0.00     0.000 O
ATOM    109   O  IDS B   6      14.726  27.431  11.3090  0.00  0.00     0.000 O
ATOM    111  HD  IDS B   6      14.359  27.841  11.9780  0.00  0.00     0.000 HD
BRANCH 104 111
ATOM    111   O  IDS B   6      14.714  24.531  13.4240  0.00  0.00     0.000 O
ATOM    112   S  IDS B   6      13.430  23.643  13.7810  0.00  0.00     0.000 S
ATOM    113   O  IDS B   6      12.874  24.266  14.9720  0.00  0.00     0.000 OA
ATOM    114   O  IDS B   6      12.534  23.634  12.6190  0.00  0.00     0.000 OA
ATOM    115   O  IDS B   6      14.084  22.377  14.0310  0.00  0.00     0.000 OA
ENDBRANCH 104 111
BRANCH 107 116
ATOM    116   C  IDS B   6      18.522  27.354  13.5960  0.00  0.00     0.000 C
ATOM    117   O  IDS B   6      19.119  28.145  12.9100  0.00  0.00     0.000 OA
ATOM    118   O  IDS B   6      19.088  26.667  14.4310  0.00  0.00     0.000 OA
ENDBRANCH 107 116
BRANCH 103 119
ATOM    119  O4  SGN B   7      14.354  27.959  14.2630  0.00  0.00     0.000 O
BRANCH 119 123
ATOM    120  C1  SGN B   7      12.673  30.808  16.8220  0.00  0.00     0.000 C
ATOM    121  C2  SGN B   7      14.210  30.737  16.7440  0.00  0.00     0.000 C
ATOM    122  C3  SGN B   7      14.650  29.954  15.5000  0.00  0.00     0.000 C
ATOM    123  C4  SGN B   7      13.970  28.595  15.4830  0.00  0.00     0.000 C
ATOM    124  C5  SGN B   7      12.446  28.772  15.5710  0.00  0.00     0.000 C
ATOM    125  O5  SGN B   7      12.077  29.513  16.7560  0.00  0.00     0.000 O
ATOM    126   O  SGN B   7      16.076  29.824  15.5120  0.00  0.00     0.000 O
ATOM    128  HD  SGN B   7      15.368  30.189  15.8520  0.00  0.00     0.000 HD
BRANCH 121 130
ATOM    128   N  SGN B   7      14.334  31.553  17.9550  0.00  0.00     0.000 N
ATOM    130  HD  SGN B   7      15.090  31.174  18.1410  0.00  0.00     0.000 HD
ATOM    130   S  SGN B   7      15.381  32.771  18.0680  0.00  0.00     0.000 S
ATOM    131   O  SGN B   7      15.161  33.559  16.9040  0.00  0.00     0.000 OA
ATOM    132   O  SGN B   7      15.258  33.347  19.3580  0.00  0.00     0.000 OA
ATOM    133   O  SGN B   7      16.731  31.977  18.1150  0.00  0.00     0.000 OA
ENDBRANCH 121 130
BRANCH 124 134
ATOM    134   C  SGN B   7      11.690  27.481  15.6770  0.00  0.00     0.000 C
ATOM    135   O  SGN B   7      10.622  27.651  16.6240  0.00  0.00     0.000 O
ATOM    136   S  SGN B   7       9.614  26.455  16.7660  0.00  0.00     0.000 S
ATOM    137   O  SGN B   7       8.709  26.810  17.8320  0.00  0.00     0.000 OA
ATOM    138   O  SGN B   7      10.432  25.305  17.0790  0.00  0.00     0.000 OA
ATOM    139   O  SGN B   7       8.992  26.412  15.4510  0.00  0.00     0.000 OA
ENDBRANCH 124 134
BRANCH 120 140
ATOM    140  O4  IDS B   8      11.837  31.464  16.0110  0.00  0.00     0.000 O
BRANCH 140 144
ATOM    141  C1  IDS B   8      10.447  32.710  12.9320  0.00  0.00     0.000 C
ATOM    142  C2  IDS B   8      11.986  32.604  13.1300  0.00  0.00     0.000 C
ATOM    143  C3  IDS B   8      12.467  33.211  14.4610  0.00  0.00     0.000 C
ATOM    144  C4  IDS B   8      11.564  32.818  15.6290  0.00  0.00     0.000 C
ATOM    145  C5  IDS B   8      10.088  32.966  15.2300  0.00  0.00     0.000 C
ATOM    146  O5  IDS B   8       9.774  32.193  14.0740  0.00  0.00     0.000 O
BRANCH 142 147
ATOM    147   O  IDS B   8      12.389  31.173  13.1280  0.00  0.00     0.000 O
ATOM    148   S  IDS B   8      12.982  30.473  11.7900  0.00  0.00     0.000 S
ATOM    149   O  IDS B   8      12.657  31.326  10.6690  0.00  0.00     0.000 OA
ATOM    150   O  IDS B   8      14.412  30.360  12.0130  0.00  0.00     0.000 OA
ATOM    151   O  IDS B   8      12.316  29.188  11.7040  0.00  0.00     0.000 OA
ENDBRANCH 142 147
BRANCH 145 152
ATOM    152   C  IDS B   8       9.140  32.496  16.3150  0.00  0.00     0.000 C
ATOM    153   O  IDS B   8       8.304  31.638  16.0570  0.00  0.00     0.000 OA
ATOM    154   O  IDS B   8       9.232  32.962  17.4370  0.00  0.00     0.000 OA
ENDBRANCH 145 152
ENDBRANCH 140 144
ENDBRANCH 120 140
ENDBRANCH 119 123
ENDBRANCH 103 119
ENDBRANCH 102 106
ENDBRANCH 82 102
ENDBRANCH 81 85
ENDBRANCH 65 81
ENDBRANCH 64 68
ENDBRANCH 41 64
ENDBRANCH 40 44
ENDBRANCH 24 40
ENDBRANCH 23 27
ENDBRANCH 1 23
TORSDOF 31
ENDMDL
MODEL 28
REMARK VINA RESULT:      -7.2      3.058      5.448
ROOT
ATOM      1  C1  SGN B   1      28.733  15.875  14.3210  0.00  0.00     0.000 C
ATOM      2  C2  SGN B   1      29.002  15.450  12.8680  0.00  0.00     0.000 C
ATOM      3  C3  SGN B   1      28.303  14.123  12.5520  0.00  0.00     0.000 C
ATOM      4  C4  SGN B   1      28.734  13.052  13.5480  0.00  0.00     0.000 C
ATOM      5  C5  SGN B   1      28.573  13.595  14.9660  0.00  0.00     0.000 C
ATOM      6  O5  SGN B   1      29.304  14.829  15.0950  0.00  0.00     0.000 O
ATOM      7   O  SGN B   1      28.590  13.711  11.2210  0.00  0.00     0.000 O
ATOM      9  HD  SGN B   1      29.381  13.726  11.5750  0.00  0.00     0.000 HD
ATOM      9   O  SGN B   1      27.933  11.897  13.3730  0.00  0.00     0.000 O
ATOM     11  HD  SGN B   1      28.724  11.912  13.7280  0.00  0.00     0.000 HD
ENDROOT
BRANCH 2 13
ATOM     11   N  SGN B   1      29.848  16.546  12.3580  0.00  0.00     0.000 N
ATOM     13  HD  SGN B   1      29.093  16.717  12.7460  0.00  0.00     0.000 HD
ATOM     13   S  SGN B   1      29.233  17.950  11.8690  0.00  0.00     0.000 S
ATOM     14   O  SGN B   1      27.835  17.960  12.0570  0.00  0.00     0.000 OA
ATOM     15   O  SGN B   1      30.021  19.002  12.4190  0.00  0.00     0.000 OA
ATOM     16   O  SGN B   1      29.602  17.841  10.3570  0.00  0.00     0.000 OA
ENDBRANCH 2 13
BRANCH 5 17
ATOM     17   C  SGN B   1      29.071  12.662  16.0420  0.00  0.00     0.000 C
ATOM     18   O  SGN B   1      30.358  13.086  16.5350  0.00  0.00     0.000 O
ATOM     19   S  SGN B   1      31.457  11.937  16.7070  0.00  0.00     0.000 S
ATOM     20   O  SGN B   1      32.548  12.565  17.4210  0.00  0.00     0.000 OA
ATOM     21   O  SGN B   1      30.780  10.913  17.4680  0.00  0.00     0.000 OA
ATOM     22   O  SGN B   1      31.800  11.538  15.3590  0.00  0.00     0.000 OA
ENDBRANCH 5 17
BRANCH 1 23
ATOM     23  O4  IDS B   2      27.841  16.594  15.0600  0.00  0.00     0.000 O
BRANCH 23 27
ATOM     24  C1  IDS B   2      24.347  17.397  17.1520  0.00  0.00     0.000 C
ATOM     25  C2  IDS B   2      24.333  16.110  16.2980  0.00  0.00     0.000 C
ATOM     26  C3  IDS B   2      25.738  15.756  15.8200  0.00  0.00     0.000 C
ATOM     27  C4  IDS B   2      26.429  16.890  15.0740  0.00  0.00     0.000 C
ATOM     28  C5  IDS B   2      26.067  18.243  15.7190  0.00  0.00     0.000 C
ATOM     29  O5  IDS B   2      25.612  18.064  17.0520  0.00  0.00     0.000 O
ATOM     30   O  IDS B   2      25.667  14.642  14.9370  0.00  0.00     0.000 O
ATOM     32  HD  IDS B   2      25.415  14.856  14.1370  0.00  0.00     0.000 HD
BRANCH 25 32
ATOM     32   O  IDS B   2      23.808  14.943  17.0500  0.00  0.00     0.000 O
ATOM     33   S  IDS B   2      22.518  14.067  16.5110  0.00  0.00     0.000 S
ATOM     34   O  IDS B   2      22.157  13.168  17.5950  0.00  0.00     0.000 OA
ATOM     35   O  IDS B   2      21.423  14.970  16.1820  0.00  0.00     0.000 OA
ATOM     36   O  IDS B   2      22.995  13.338  15.3580  0.00  0.00     0.000 OA
ENDBRANCH 25 32
BRANCH 28 37
ATOM     37   C  IDS B   2      27.139  19.352  15.7170  0.00  0.00     0.000 C
ATOM     38   O  IDS B   2      27.157  19.983  14.6860  0.00  0.00     0.000 OA
ATOM     39   O  IDS B   2      27.898  19.670  16.6650  0.00  0.00     0.000 OA
ENDBRANCH 28 37
BRANCH 24 40
ATOM     40  O4  SUS B   3      23.188  17.911  17.6130  0.00  0.00     0.000 O
BRANCH 40 44
ATOM     41  C1  SUS B   3      22.408  20.186  21.0420  0.00  0.00     0.000 C
ATOM     42  C2  SUS B   3      23.083  20.906  19.8570  0.00  0.00     0.000 C
ATOM     43  C3  SUS B   3      22.851  20.100  18.5810  0.00  0.00     0.000 C
ATOM     44  C4  SUS B   3      23.343  18.678  18.8020  0.00  0.00     0.000 C
ATOM     45  C5  SUS B   3      22.543  18.051  19.9260  0.00  0.00     0.000 C
ATOM     46  O5  SUS B   3      22.787  18.808  21.1290  0.00  0.00     0.000 O
BRANCH 42 49
ATOM     47   N  SUS B   3      23.753  21.839  20.7790  0.00  0.00     0.000 N
ATOM     49  HD  SUS B   3      23.475  21.839  21.5990  0.00  0.00     0.000 HD
ATOM     49   S  SUS B   3      23.738  23.350  20.2480  0.00  0.00     0.000 S
ATOM     50   O  SUS B   3      22.409  23.770  20.0320  0.00  0.00     0.000 OA
ATOM     51   O  SUS B   3      24.314  23.998  21.5330  0.00  0.00     0.000 OA
ATOM     52   O  SUS B   3      24.644  23.478  19.1770  0.00  0.00     0.000 OA
ENDBRANCH 42 49
BRANCH 43 53
ATOM     53   O  SUS B   3      23.624  20.735  17.4960  0.00  0.00     0.000 O
ATOM     54   S  SUS B   3      22.770  21.491  16.3120  0.00  0.00     0.000 S
ATOM     55   O  SUS B   3      22.202  22.701  16.8900  0.00  0.00     0.000 OA
ATOM     56   O  SUS B   3      23.755  21.744  15.2750  0.00  0.00     0.000 OA
ATOM     57   O  SUS B   3      21.720  20.558  15.8960  0.00  0.00     0.000 OA
ENDBRANCH 43 53
BRANCH 45 58
ATOM     58   C  SUS B   3      22.907  16.598  20.1390  0.00  0.00     0.000 C
ATOM     59   S  SUS B   3      24.722  15.082  21.1350  0.00  0.00     0.000 S
ATOM     60   O  SUS B   3      24.069  16.517  20.9810  0.00  0.00     0.000 O
ATOM     61   O  SUS B   3      25.472  14.873  19.9110  0.00  0.00     0.000 OA
ATOM     62   O  SUS B   3      25.570  15.296  22.2770  0.00  0.00     0.000 OA
ATOM     63   O  SUS B   3      23.636  14.191  21.3430  0.00  0.00     0.000 OA
ENDBRANCH 45 58
BRANCH 41 64
ATOM     64  O4  IDS B   4      21.054  20.402  21.1220  0.00  0.00     0.000 O
BRANCH 64 68
ATOM     65  C1  IDS B   4      18.131  20.926  23.2330  0.00  0.00     0.000 C
ATOM     66  C2  IDS B   4      19.539  21.187  23.7840  0.00  0.00     0.000 C
ATOM     67  C3  IDS B   4      20.545  20.089  23.4820  0.00  0.00     0.000 C
ATOM     68  C4  IDS B   4      20.406  19.533  22.0770  0.00  0.00     0.000 C
ATOM     69  C5  IDS B   4      18.914  19.317  21.7940  0.00  0.00     0.000 C
ATOM     70  O5  IDS B   4      18.235  20.573  21.8660  0.00  0.00     0.000 O
ATOM     71   O  IDS B   4      20.337  19.058  24.4260  0.00  0.00     0.000 O
ATOM     73  HD  IDS B   4      20.271  19.862  24.1100  0.00  0.00     0.000 HD
BRANCH 66 73
ATOM     73   O  IDS B   4      20.079  22.397  23.1500  0.00  0.00     0.000 O
ATOM     74   S  IDS B   4      21.099  23.312  24.0090  0.00  0.00     0.000 S
ATOM     75   O  IDS B   4      20.403  23.671  25.2260  0.00  0.00     0.000 OA
ATOM     76   O  IDS B   4      21.327  24.420  23.1150  0.00  0.00     0.000 OA
ATOM     77   O  IDS B   4      22.260  22.485  24.2370  0.00  0.00     0.000 OA
ENDBRANCH 66 73
BRANCH 69 78
ATOM     78   C  IDS B   4      18.621  18.559  20.5060  0.00  0.00     0.000 C
ATOM     79   O  IDS B   4      19.353  17.621  20.1940  0.00  0.00     0.000 OA
ATOM     80   O  IDS B   4      17.591  18.843  19.8680  0.00  0.00     0.000 OA
ENDBRANCH 69 78
BRANCH 65 81
ATOM     81  O4  SGN B   5      17.482  20.047  24.0460  0.00  0.00     0.000 O
BRANCH 81 85
ATOM     82  C1  SGN B   5      13.709  18.964  25.5390  0.00  0.00     0.000 C
ATOM     83  C2  SGN B   5      13.965  18.718  24.0440  0.00  0.00     0.000 C
ATOM     84  C3  SGN B   5      15.476  18.721  23.7750  0.00  0.00     0.000 C
ATOM     85  C4  SGN B   5      16.072  20.024  24.2770  0.00  0.00     0.000 C
ATOM     86  C5  SGN B   5      15.775  20.145  25.7690  0.00  0.00     0.000 C
ATOM     87  O5  SGN B   5      14.346  20.156  25.9560  0.00  0.00     0.000 O
ATOM     88   O  SGN B   5      15.718  18.552  22.3950  0.00  0.00     0.000 O
ATOM     90  HD  SGN B   5      15.791  17.934  22.9970  0.00  0.00     0.000 HD
BRANCH 83 92
ATOM     90   N  SGN B   5      12.495  18.597  24.0010  0.00  0.00     0.000 N
ATOM     92  HD  SGN B   5      12.118  19.376  24.0450  0.00  0.00     0.000 HD
ATOM     92   S  SGN B   5      11.854  17.594  22.9350  0.00  0.00     0.000 S
ATOM     93   O  SGN B   5      10.442  17.712  23.1410  0.00  0.00     0.000 OA
ATOM     94   O  SGN B   5      12.423  17.949  21.6800  0.00  0.00     0.000 OA
ATOM     95   O  SGN B   5      12.400  16.234  23.3100  0.00  0.00     0.000 OA
ENDBRANCH 83 92
BRANCH 86 96
ATOM     96   C  SGN B   5      16.324  21.402  26.4120  0.00  0.00     0.000 C
ATOM     97   O  SGN B   5      15.943  22.557  25.6610  0.00  0.00     0.000 O
ATOM     98   S  SGN B   5      15.270  23.750  26.4950  0.00  0.00     0.000 S
ATOM     99   O  SGN B   5      15.196  24.815  25.5230  0.00  0.00     0.000 OA
ATOM    100   O  SGN B   5      14.014  23.287  26.9640  0.00  0.00     0.000 OA
ATOM    101   O  SGN B   5      16.195  24.012  27.5500  0.00  0.00     0.000 OA
ENDBRANCH 86 96
BRANCH 82 102
ATOM    102  O4  IDS B   6      14.103  17.917  26.3180  0.00  0.00     0.000 O
BRANCH 102 106
ATOM    103  C1  IDS B   6      13.464  16.068  29.3880  0.00  0.00     0.000 C
ATOM    104  C2  IDS B   6      12.368  16.938  28.7530  0.00  0.00     0.000 C
ATOM    105  C3  IDS B   6      12.811  18.329  28.3400  0.00  0.00     0.000 C
ATOM    106  C4  IDS B   6      14.189  18.341  27.7020  0.00  0.00     0.000 C
ATOM    107  C5  IDS B   6      15.133  17.431  28.4930  0.00  0.00     0.000 C
ATOM    108  O5  IDS B   6      14.631  16.097  28.5890  0.00  0.00     0.000 O
ATOM    109   O  IDS B   6      12.780  19.160  29.4890  0.00  0.00     0.000 O
ATOM    111  HD  IDS B   6      12.844  18.605  30.1500  0.00  0.00     0.000 HD
BRANCH 104 111
ATOM    111   O  IDS B   6      11.904  16.295  27.5140  0.00  0.00     0.000 O
ATOM    112   S  IDS B   6      10.526  16.799  26.8750  0.00  0.00     0.000 S
ATOM    113   O  IDS B   6       9.538  16.588  27.9210  0.00  0.00     0.000 OA
ATOM    114   O  IDS B   6      10.690  18.197  26.4600  0.00  0.00     0.000 OA
ATOM    115   O  IDS B   6      10.424  15.866  25.7730  0.00  0.00     0.000 OA
ENDBRANCH 104 111
BRANCH 107 116
ATOM    116   C  IDS B   6      16.502  17.421  27.8240  0.00  0.00     0.000 C
ATOM    117   O  IDS B   6      17.281  18.271  28.1730  0.00  0.00     0.000 OA
ATOM    118   O  IDS B   6      16.786  16.597  26.9700  0.00  0.00     0.000 OA
ENDBRANCH 107 116
BRANCH 103 119
ATOM    119  O4  SGN B   7      13.485  16.474  30.6840  0.00  0.00     0.000 O
BRANCH 119 123
ATOM    120  C1  SGN B   7      14.580  14.823  34.3670  0.00  0.00     0.000 C
ATOM    121  C2  SGN B   7      15.702  15.105  33.3500  0.00  0.00     0.000 C
ATOM    122  C3  SGN B   7      15.206  16.056  32.2530  0.00  0.00     0.000 C
ATOM    123  C4  SGN B   7      13.935  15.503  31.6300  0.00  0.00     0.000 C
ATOM    124  C5  SGN B   7      12.885  15.250  32.7230  0.00  0.00     0.000 C
ATOM    125  O5  SGN B   7      13.393  14.350  33.7330  0.00  0.00     0.000 O
ATOM    126   O  SGN B   7      16.240  16.217  31.2750  0.00  0.00     0.000 O
ATOM    128  HD  SGN B   7      16.004  15.920  32.0540  0.00  0.00     0.000 HD
BRANCH 121 130
ATOM    128   N  SGN B   7      16.763  14.206  33.8100  0.00  0.00     0.000 N
ATOM    130  HD  SGN B   7      17.244  14.408  33.1190  0.00  0.00     0.000 HD
ATOM    130   S  SGN B   7      18.147  14.753  34.4240  0.00  0.00     0.000 S
ATOM    131   O  SGN B   7      17.766  15.695  35.4200  0.00  0.00     0.000 OA
ATOM    132   O  SGN B   7      18.957  13.638  34.7630  0.00  0.00     0.000 OA
ATOM    133   O  SGN B   7      18.811  15.346  33.1350  0.00  0.00     0.000 OA
ENDBRANCH 121 130
BRANCH 124 134
ATOM    134   C  SGN B   7      11.632  14.594  32.2210  0.00  0.00     0.000 C
ATOM    135   O  SGN B   7      10.667  15.618  31.9220  0.00  0.00     0.000 O
ATOM    136   S  SGN B   7       9.336  15.146  31.2360  0.00  0.00     0.000 S
ATOM    137   O  SGN B   7       8.495  16.315  31.1330  0.00  0.00     0.000 OA
ATOM    138   O  SGN B   7       8.793  14.137  32.1170  0.00  0.00     0.000 OA
ATOM    139   O  SGN B   7       9.805  14.639  29.9560  0.00  0.00     0.000 OA
ENDBRANCH 124 134
BRANCH 120 140
ATOM    140  O4  IDS B   8      14.026  15.673  35.2390  0.00  0.00     0.000 O
BRANCH 140 144
ATOM    141  C1  IDS B   8      12.694  18.804  36.4160  0.00  0.00     0.000 C
ATOM    142  C2  IDS B   8      13.909  18.766  35.4450  0.00  0.00     0.000 C
ATOM    143  C3  IDS B   8      15.008  17.784  35.8920  0.00  0.00     0.000 C
ATOM    144  C4  IDS B   8      14.428  16.454  36.3710  0.00  0.00     0.000 C
ATOM    145  C5  IDS B   8      13.227  16.702  37.2950  0.00  0.00     0.000 C
ATOM    146  O5  IDS B   8      12.222  17.484  36.6550  0.00  0.00     0.000 O
BRANCH 142 147
ATOM    147   O  IDS B   8      13.453  18.332  34.0980  0.00  0.00     0.000 O
ATOM    148   S  IDS B   8      13.018  19.417  32.9740  0.00  0.00     0.000 S
ATOM    149   O  IDS B   8      12.795  20.678  33.6440  0.00  0.00     0.000 OA
ATOM    150   O  IDS B   8      14.124  19.468  32.0360  0.00  0.00     0.000 OA
ATOM    151   O  IDS B   8      11.799  18.892  32.3880  0.00  0.00     0.000 OA
ENDBRANCH 142 147
BRANCH 145 152
ATOM    152   C  IDS B   8      12.547  15.418  37.7240  0.00  0.00     0.000 C
ATOM    153   O  IDS B   8      11.369  15.233  37.4370  0.00  0.00     0.000 OA
ATOM    154   O  IDS B   8      13.181  14.575  38.3320  0.00  0.00     0.000 OA
ENDBRANCH 145 152
ENDBRANCH 140 144
ENDBRANCH 120 140
ENDBRANCH 119 123
ENDBRANCH 103 119
ENDBRANCH 102 106
ENDBRANCH 82 102
ENDBRANCH 81 85
ENDBRANCH 65 81
ENDBRANCH 64 68
ENDBRANCH 41 64
ENDBRANCH 40 44
ENDBRANCH 24 40
ENDBRANCH 23 27
ENDBRANCH 1 23
TORSDOF 31
ENDMDL
MODEL 29
REMARK VINA RESULT:      -7.2      4.510      6.790
ROOT
ATOM      1  C1  SGN B   1      28.238  10.853  14.4120  0.00  0.00     0.000 C
ATOM      2  C2  SGN B   1      29.564  10.445  15.0750  0.00  0.00     0.000 C
ATOM      3  C3  SGN B   1      30.224   9.294  14.3080  0.00  0.00     0.000 C
ATOM      4  C4  SGN B   1      29.259   8.118  14.1910  0.00  0.00     0.000 C
ATOM      5  C5  SGN B   1      27.920   8.623  13.6600  0.00  0.00     0.000 C
ATOM      6  O5  SGN B   1      27.435   9.684  14.5050  0.00  0.00     0.000 O
ATOM      7   O  SGN B   1      31.428   8.891  14.9490  0.00  0.00     0.000 O
ATOM      9  HD  SGN B   1      30.839   8.736  15.5660  0.00  0.00     0.000 HD
ATOM      9   O  SGN B   1      29.801   7.151  13.3110  0.00  0.00     0.000 O
ATOM     11  HD  SGN B   1      29.213   6.996  13.9280  0.00  0.00     0.000 HD
ENDROOT
BRANCH 2 13
ATOM     11   N  SGN B   1      29.387  11.487  16.1050  0.00  0.00     0.000 N
ATOM     13  HD  SGN B   1      29.602  11.702  15.2940  0.00  0.00     0.000 HD
ATOM     13   S  SGN B   1      30.169  12.892  16.0500  0.00  0.00     0.000 S
ATOM     14   O  SGN B   1      30.961  12.961  14.8840  0.00  0.00     0.000 OA
ATOM     15   O  SGN B   1      29.241  13.935  16.3280  0.00  0.00     0.000 OA
ATOM     16   O  SGN B   1      31.050  12.707  17.3240  0.00  0.00     0.000 OA
ENDBRANCH 2 13
BRANCH 5 17
ATOM     17   C  SGN B   1      26.844   7.566  13.6040  0.00  0.00     0.000 C
ATOM     18   O  SGN B   1      25.866   7.880  12.5930  0.00  0.00     0.000 O
ATOM     19   S  SGN B   1      24.335   7.707  13.0210  0.00  0.00     0.000 S
ATOM     20   O  SGN B   1      23.583   7.849  11.7920  0.00  0.00     0.000 OA
ATOM     21   O  SGN B   1      24.274   6.379  13.5860  0.00  0.00     0.000 OA
ATOM     22   O  SGN B   1      24.088   8.765  13.9770  0.00  0.00     0.000 OA
ENDBRANCH 5 17
BRANCH 1 23
ATOM     23  O4  IDS B   2      27.753  11.700  13.4610  0.00  0.00     0.000 O
BRANCH 23 27
ATOM     24  C1  IDS B   2      25.768  15.121  14.7230  0.00  0.00     0.000 C
ATOM     25  C2  IDS B   2      24.938  13.819  14.7530  0.00  0.00     0.000 C
ATOM     26  C3  IDS B   2      25.832  12.596  14.5610  0.00  0.00     0.000 C
ATOM     27  C4  IDS B   2      26.688  12.661  13.3030  0.00  0.00     0.000 C
ATOM     28  C5  IDS B   2      27.165  14.108  13.0640  0.00  0.00     0.000 C
ATOM     29  O5  IDS B   2      27.102  14.867  14.2620  0.00  0.00     0.000 O
ATOM     30   O  IDS B   2      25.020  11.432  14.4680  0.00  0.00     0.000 O
ATOM     32  HD  IDS B   2      24.659  11.328  13.6880  0.00  0.00     0.000 HD
BRANCH 25 32
ATOM     32   O  IDS B   2      24.210  13.645  16.0340  0.00  0.00     0.000 O
ATOM     33   S  IDS B   2      22.566  13.757  16.1250  0.00  0.00     0.000 S
ATOM     34   O  IDS B   2      22.239  13.760  17.5420  0.00  0.00     0.000 OA
ATOM     35   O  IDS B   2      22.128  14.984  15.4750  0.00  0.00     0.000 OA
ATOM     36   O  IDS B   2      22.058  12.574  15.4690  0.00  0.00     0.000 OA
ENDBRANCH 25 32
BRANCH 28 37
ATOM     37   C  IDS B   2      28.557  14.313  12.4330  0.00  0.00     0.000 C
ATOM     38   O  IDS B   2      28.609  13.941  11.2840  0.00  0.00     0.000 OA
ATOM     39   O  IDS B   2      29.555  14.859  12.9640  0.00  0.00     0.000 OA
ENDBRANCH 28 37
BRANCH 24 40
ATOM     40  O4  SUS B   3      25.148  16.316  14.8090  0.00  0.00     0.000 O
BRANCH 40 44
ATOM     41  C1  SUS B   3      26.451  19.788  16.7570  0.00  0.00     0.000 C
ATOM     42  C2  SUS B   3      26.660  19.715  15.2310  0.00  0.00     0.000 C
ATOM     43  C3  SUS B   3      25.728  18.657  14.6450  0.00  0.00     0.000 C
ATOM     44  C4  SUS B   3      25.967  17.339  15.3660  0.00  0.00     0.000 C
ATOM     45  C5  SUS B   3      25.641  17.517  16.8340  0.00  0.00     0.000 C
ATOM     46  O5  SUS B   3      26.542  18.502  17.3790  0.00  0.00     0.000 O
BRANCH 42 49
ATOM     47   N  SUS B   3      26.548  21.125  14.8190  0.00  0.00     0.000 N
ATOM     49  HD  SUS B   3      25.892  21.323  14.2890  0.00  0.00     0.000 HD
ATOM     49   S  SUS B   3      27.900  21.687  14.1670  0.00  0.00     0.000 S
ATOM     50   O  SUS B   3      28.262  20.897  13.0580  0.00  0.00     0.000 OA
ATOM     51   O  SUS B   3      27.322  23.049  13.7030  0.00  0.00     0.000 OA
ATOM     52   O  SUS B   3      28.863  21.874  15.1790  0.00  0.00     0.000 OA
ENDBRANCH 42 49
BRANCH 43 53
ATOM     53   O  SUS B   3      26.048  18.511  13.2120  0.00  0.00     0.000 O
ATOM     54   S  SUS B   3      24.946  19.082  12.1350  0.00  0.00     0.000 S
ATOM     55   O  SUS B   3      24.982  20.536  12.2030  0.00  0.00     0.000 OA
ATOM     56   O  SUS B   3      25.387  18.543  10.8610  0.00  0.00     0.000 OA
ATOM     57   O  SUS B   3      23.643  18.563  12.5620  0.00  0.00     0.000 OA
ENDBRANCH 43 53
BRANCH 45 58
ATOM     58   C  SUS B   3      25.759  16.218  17.6020  0.00  0.00     0.000 C
ATOM     59   S  SUS B   3      24.846  14.982  19.6570  0.00  0.00     0.000 S
ATOM     60   O  SUS B   3      24.740  16.170  18.6160  0.00  0.00     0.000 O
ATOM     61   O  SUS B   3      25.888  15.382  20.5840  0.00  0.00     0.000 OA
ATOM     62   O  SUS B   3      23.534  15.024  20.2450  0.00  0.00     0.000 OA
ATOM     63   O  SUS B   3      25.130  13.824  18.8860  0.00  0.00     0.000 OA
ENDBRANCH 45 58
BRANCH 41 64
ATOM     64  O4  IDS B   4      25.348  20.517  17.1300  0.00  0.00     0.000 O
BRANCH 64 68
ATOM     65  C1  IDS B   4      23.425  22.772  19.2490  0.00  0.00     0.000 C
ATOM     66  C2  IDS B   4      24.923  23.014  19.0230  0.00  0.00     0.000 C
ATOM     67  C3  IDS B   4      25.787  21.773  19.1690  0.00  0.00     0.000 C
ATOM     68  C4  IDS B   4      25.152  20.536  18.5610  0.00  0.00     0.000 C
ATOM     69  C5  IDS B   4      23.675  20.506  18.9760  0.00  0.00     0.000 C
ATOM     70  O5  IDS B   4      23.018  21.667  18.4630  0.00  0.00     0.000 O
ATOM     71   O  IDS B   4      26.000  21.570  20.5510  0.00  0.00     0.000 O
ATOM     73  HD  IDS B   4      25.783  22.023  19.8460  0.00  0.00     0.000 HD
BRANCH 66 73
ATOM     73   O  IDS B   4      25.126  23.472  17.6420  0.00  0.00     0.000 O
ATOM     74   S  IDS B   4      25.681  24.974  17.4160  0.00  0.00     0.000 S
ATOM     75   O  IDS B   4      24.756  25.859  18.0900  0.00  0.00     0.000 OA
ATOM     76   O  IDS B   4      25.658  25.085  15.9790  0.00  0.00     0.000 OA
ATOM     77   O  IDS B   4      27.005  24.986  17.9900  0.00  0.00     0.000 OA
ENDBRANCH 66 73
BRANCH 69 78
ATOM     78   C  IDS B   4      22.950  19.213  18.6290  0.00  0.00     0.000 C
ATOM     79   O  IDS B   4      22.638  18.447  19.5400  0.00  0.00     0.000 OA
ATOM     80   O  IDS B   4      22.603  19.023  17.4490  0.00  0.00     0.000 OA
ENDBRANCH 69 78
BRANCH 65 81
ATOM     81  O4  SGN B   5      23.174  22.700  20.5850  0.00  0.00     0.000 O
BRANCH 81 85
ATOM     82  C1  SGN B   5      20.269  23.428  23.5310  0.00  0.00     0.000 C
ATOM     83  C2  SGN B   5      20.000  22.272  22.5550  0.00  0.00     0.000 C
ATOM     84  C3  SGN B   5      21.313  21.853  21.8800  0.00  0.00     0.000 C
ATOM     85  C4  SGN B   5      21.942  23.063  21.2130  0.00  0.00     0.000 C
ATOM     86  C5  SGN B   5      22.183  24.128  22.2800  0.00  0.00     0.000 C
ATOM     87  O5  SGN B   5      20.917  24.494  22.8620  0.00  0.00     0.000 O
ATOM     88   O  SGN B   5      21.064  20.830  20.9400  0.00  0.00     0.000 O
ATOM     90  HD  SGN B   5      21.394  20.715  21.7330  0.00  0.00     0.000 HD
BRANCH 83 92
ATOM     90   N  SGN B   5      18.576  22.413  22.9190  0.00  0.00     0.000 N
ATOM     92  HD  SGN B   5      18.187  23.009  22.4260  0.00  0.00     0.000 HD
ATOM     92   S  SGN B   5      17.729  21.080  23.1650  0.00  0.00     0.000 S
ATOM     93   O  SGN B   5      16.415  21.550  23.4870  0.00  0.00     0.000 OA
ATOM     94   O  SGN B   5      17.935  20.273  22.0120  0.00  0.00     0.000 OA
ATOM     95   O  SGN B   5      18.418  20.396  24.3250  0.00  0.00     0.000 OA
ENDBRANCH 83 92
BRANCH 86 96
ATOM     96   C  SGN B   5      22.822  25.398  21.7580  0.00  0.00     0.000 C
ATOM     97   O  SGN B   5      21.994  26.004  20.7630  0.00  0.00     0.000 O
ATOM     98   S  SGN B   5      21.672  27.562  20.9660  0.00  0.00     0.000 S
ATOM     99   O  SGN B   5      21.014  27.914  19.7310  0.00  0.00     0.000 OA
ATOM    100   O  SGN B   5      20.862  27.682  22.1250  0.00  0.00     0.000 OA
ATOM    101   O  SGN B   5      22.953  28.172  21.1170  0.00  0.00     0.000 OA
ENDBRANCH 86 96
BRANCH 82 102
ATOM    102  O4  IDS B   6      20.995  23.038  24.6170  0.00  0.00     0.000 O
BRANCH 102 106
ATOM    103  C1  IDS B   6      21.753  22.464  28.1310  0.00  0.00     0.000 C
ATOM    104  C2  IDS B   6      20.528  21.810  27.4750  0.00  0.00     0.000 C
ATOM    105  C3  IDS B   6      19.672  22.742  26.6400  0.00  0.00     0.000 C
ATOM    106  C4  IDS B   6      20.496  23.705  25.8040  0.00  0.00     0.000 C
ATOM    107  C5  IDS B   6      21.652  24.259  26.6440  0.00  0.00     0.000 C
ATOM    108  O5  IDS B   6      22.473  23.217  27.1730  0.00  0.00     0.000 O
ATOM    109   O  IDS B   6      18.805  23.447  27.5130  0.00  0.00     0.000 O
ATOM    111  HD  IDS B   6      19.208  23.412  28.2790  0.00  0.00     0.000 HD
BRANCH 104 111
ATOM    111   O  IDS B   6      20.983  20.764  26.5460  0.00  0.00     0.000 O
ATOM    112   S  IDS B   6      20.822  19.236  26.9960  0.00  0.00     0.000 S
ATOM    113   O  IDS B   6      21.579  19.137  28.2340  0.00  0.00     0.000 OA
ATOM    114   O  IDS B   6      19.391  18.938  27.1270  0.00  0.00     0.000 OA
ATOM    115   O  IDS B   6      21.457  18.591  25.8660  0.00  0.00     0.000 OA
ENDBRANCH 104 111
BRANCH 107 116
ATOM    116   C  IDS B   6      22.493  25.195  25.7870  0.00  0.00     0.000 C
ATOM    117   O  IDS B   6      21.978  26.230  25.4470  0.00  0.00     0.000 OA
ATOM    118   O  IDS B   6      23.631  24.902  25.4540  0.00  0.00     0.000 OA
ENDBRANCH 107 116
BRANCH 103 119
ATOM    119  O4  SGN B   7      21.247  23.044  29.2500  0.00  0.00     0.000 O
BRANCH 119 123
ATOM    120  C1  SGN B   7      22.611  23.906  33.1080  0.00  0.00     0.000 C
ATOM    121  C2  SGN B   7      23.131  24.785  31.9550  0.00  0.00     0.000 C
ATOM    122  C3  SGN B   7      22.252  24.613  30.7090  0.00  0.00     0.000 C
ATOM    123  C4  SGN B   7      22.143  23.138  30.3580  0.00  0.00     0.000 C
ATOM    124  C5  SGN B   7      21.624  22.349  31.5720  0.00  0.00     0.000 C
ATOM    125  O5  SGN B   7      22.481  22.540  32.7200  0.00  0.00     0.000 O
ATOM    126   O  SGN B   7      22.820  25.365  29.6310  0.00  0.00     0.000 O
ATOM    128  HD  SGN B   7      22.818  25.178  30.4770  0.00  0.00     0.000 HD
BRANCH 121 130
ATOM    128   N  SGN B   7      23.341  25.830  32.9610  0.00  0.00     0.000 N
ATOM    130  HD  SGN B   7      24.035  25.409  33.2630  0.00  0.00     0.000 HD
ATOM    130   S  SGN B   7      24.543  26.896  32.8530  0.00  0.00     0.000 S
ATOM    131   O  SGN B   7      24.456  27.424  31.5350  0.00  0.00     0.000 OA
ATOM    132   O  SGN B   7      24.475  27.759  33.9770  0.00  0.00     0.000 OA
ATOM    133   O  SGN B   7      25.770  25.967  33.1420  0.00  0.00     0.000 OA
ENDBRANCH 121 130
BRANCH 124 134
ATOM    134   C  SGN B   7      21.591  20.864  31.3610  0.00  0.00     0.000 C
ATOM    135   O  SGN B   7      22.269  20.230  32.4590  0.00  0.00     0.000 O
ATOM    136   S  SGN B   7      22.212  18.661  32.5050  0.00  0.00     0.000 S
ATOM    137   O  SGN B   7      23.038  18.257  33.6180  0.00  0.00     0.000 OA
ATOM    138   O  SGN B   7      22.731  18.226  31.2290  0.00  0.00     0.000 OA
ATOM    139   O  SGN B   7      20.793  18.406  32.6980  0.00  0.00     0.000 OA
ENDBRANCH 124 134
BRANCH 120 140
ATOM    140  O4  IDS B   8      21.470  24.038  33.7940  0.00  0.00     0.000 O
BRANCH 140 144
ATOM    141  C1  IDS B   8      18.189  24.714  35.1120  0.00  0.00     0.000 C
ATOM    142  C2  IDS B   8      19.209  25.864  34.8790  0.00  0.00     0.000 C
ATOM    143  C3  IDS B   8      20.603  25.562  35.4600  0.00  0.00     0.000 C
ATOM    144  C4  IDS B   8      21.050  24.132  35.1610  0.00  0.00     0.000 C
ATOM    145  C5  IDS B   8      19.900  23.150  35.4280  0.00  0.00     0.000 C
ATOM    146  O5  IDS B   8      18.739  23.479  34.6700  0.00  0.00     0.000 O
BRANCH 142 147
ATOM    147   O  IDS B   8      19.380  26.086  33.4190  0.00  0.00     0.000 O
ATOM    148   S  IDS B   8      19.624  27.575  32.8220  0.00  0.00     0.000 S
ATOM    149   O  IDS B   8      19.249  28.524  33.8470  0.00  0.00     0.000 OA
ATOM    150   O  IDS B   8      21.036  27.633  32.4920  0.00  0.00     0.000 OA
ATOM    151   O  IDS B   8      18.763  27.666  31.6590  0.00  0.00     0.000 OA
ENDBRANCH 142 147
BRANCH 145 152
ATOM    152   C  IDS B   8      20.251  21.724  35.0550  0.00  0.00     0.000 C
ATOM    153   O  IDS B   8      21.236  21.193  35.5560  0.00  0.00     0.000 OA
ATOM    154   O  IDS B   8      19.541  21.113  34.2770  0.00  0.00     0.000 OA
ENDBRANCH 145 152
ENDBRANCH 140 144
ENDBRANCH 120 140
ENDBRANCH 119 123
ENDBRANCH 103 119
ENDBRANCH 102 106
ENDBRANCH 82 102
ENDBRANCH 81 85
ENDBRANCH 65 81
ENDBRANCH 64 68
ENDBRANCH 41 64
ENDBRANCH 40 44
ENDBRANCH 24 40
ENDBRANCH 23 27
ENDBRANCH 1 23
TORSDOF 31
ENDMDL
MODEL 30
REMARK VINA RESULT:      -7.1      1.990      2.985
ROOT
ATOM      1  C1  SGN B   1      28.605  11.707  14.4240  0.00  0.00     0.000 C
ATOM      2  C2  SGN B   1      29.475  10.654  15.1300  0.00  0.00     0.000 C
ATOM      3  C3  SGN B   1      29.735   9.458  14.2080  0.00  0.00     0.000 C
ATOM      4  C4  SGN B   1      28.414   8.872  13.7200  0.00  0.00     0.000 C
ATOM      5  C5  SGN B   1      27.546   9.997  13.1600  0.00  0.00     0.000 C
ATOM      6  O5  SGN B   1      27.387  11.024  14.1580  0.00  0.00     0.000 O
ATOM      7   O  SGN B   1      30.502   8.466  14.8800  0.00  0.00     0.000 O
ATOM      9  HD  SGN B   1      29.791   8.502  15.3730  0.00  0.00     0.000 HD
ATOM      9   O  SGN B   1      28.670   7.907  12.7160  0.00  0.00     0.000 O
ATOM     11  HD  SGN B   1      27.958   7.944  13.2090  0.00  0.00     0.000 HD
ENDROOT
BRANCH 2 13
ATOM     11   N  SGN B   1      29.597  11.405  16.3940  0.00  0.00     0.000 N
ATOM     13  HD  SGN B   1      29.942  11.715  15.6620  0.00  0.00     0.000 HD
ATOM     13   S  SGN B   1      30.833  12.392  16.6900  0.00  0.00     0.000 S
ATOM     14   O  SGN B   1      31.691  12.445  15.5720  0.00  0.00     0.000 OA
ATOM     15   O  SGN B   1      30.320  13.604  17.2380  0.00  0.00     0.000 OA
ATOM     16   O  SGN B   1      31.479  11.594  17.8650  0.00  0.00     0.000 OA
ENDBRANCH 2 13
BRANCH 5 17
ATOM     17   C  SGN B   1      26.164   9.558  12.7440  0.00  0.00     0.000 C
ATOM     18   O  SGN B   1      25.331   9.318  13.8960  0.00  0.00     0.000 O
ATOM     19   S  SGN B   1      24.461   7.976  13.8640  0.00  0.00     0.000 S
ATOM     20   O  SGN B   1      23.560   8.088  14.9920  0.00  0.00     0.000 OA
ATOM     21   O  SGN B   1      23.794   8.018  12.5840  0.00  0.00     0.000 OA
ATOM     22   O  SGN B   1      25.420   6.901  13.9930  0.00  0.00     0.000 OA
ENDBRANCH 5 17
BRANCH 1 23
ATOM     23  O4  IDS B   2      28.723  12.813  13.6360  0.00  0.00     0.000 O
BRANCH 23 27
ATOM     24  C1  IDS B   2      26.783  16.212  15.0200  0.00  0.00     0.000 C
ATOM     25  C2  IDS B   2      25.915  15.239  14.1930  0.00  0.00     0.000 C
ATOM     26  C3  IDS B   2      26.629  13.905  13.9930  0.00  0.00     0.000 C
ATOM     27  C4  IDS B   2      28.016  14.044  13.3780  0.00  0.00     0.000 C
ATOM     28  C5  IDS B   2      28.711  15.306  13.9290  0.00  0.00     0.000 C
ATOM     29  O5  IDS B   2      28.122  15.717  15.1530  0.00  0.00     0.000 O
ATOM     30   O  IDS B   2      25.856  13.085  13.1250  0.00  0.00     0.000 O
ATOM     32  HD  IDS B   2      25.945  13.292  12.2890  0.00  0.00     0.000 HD
BRANCH 25 32
ATOM     32   O  IDS B   2      24.612  14.956  14.8440  0.00  0.00     0.000 O
ATOM     33   S  IDS B   2      23.202  15.611  14.2920  0.00  0.00     0.000 S
ATOM     34   O  IDS B   2      22.193  15.302  15.2930  0.00  0.00     0.000 OA
ATOM     35   O  IDS B   2      23.366  17.049  14.1300  0.00  0.00     0.000 OA
ATOM     36   O  IDS B   2      22.925  14.944  13.0420  0.00  0.00     0.000 OA
ENDBRANCH 25 32
BRANCH 28 37
ATOM     37   C  IDS B   2      30.242  15.261  14.1170  0.00  0.00     0.000 C
ATOM     38   O  IDS B   2      30.799  14.613  13.2630  0.00  0.00     0.000 OA
ATOM     39   O  IDS B   2      30.912  15.859  14.9930  0.00  0.00     0.000 OA
ENDBRANCH 28 37
BRANCH 24 40
ATOM     40  O4  SUS B   3      26.353  17.471  15.2470  0.00  0.00     0.000 O
BRANCH 40 44
ATOM     41  C1  SUS B   3      26.507  19.508  18.9040  0.00  0.00     0.000 C
ATOM     42  C2  SUS B   3      27.379  20.053  17.7560  0.00  0.00     0.000 C
ATOM     43  C3  SUS B   3      26.851  19.521  16.4260  0.00  0.00     0.000 C
ATOM     44  C4  SUS B   3      26.794  18.003  16.4910  0.00  0.00     0.000 C
ATOM     45  C5  SUS B   3      25.838  17.595  17.5940  0.00  0.00     0.000 C
ATOM     46  O5  SUS B   3      26.360  18.085  18.8460  0.00  0.00     0.000 O
BRANCH 42 49
ATOM     47   N  SUS B   3      27.407  21.499  18.0370  0.00  0.00     0.000 N
ATOM     49  HD  SUS B   3      27.043  22.016  17.4450  0.00  0.00     0.000 HD
ATOM     49   S  SUS B   3      28.885  22.043  18.3310  0.00  0.00     0.000 S
ATOM     50   O  SUS B   3      29.728  21.757  17.2380  0.00  0.00     0.000 OA
ATOM     51   O  SUS B   3      28.519  23.549  18.3600  0.00  0.00     0.000 OA
ATOM     52   O  SUS B   3      29.298  21.606  19.6050  0.00  0.00     0.000 OA
ENDBRANCH 42 49
BRANCH 43 53
ATOM     53   O  SUS B   3      27.785  19.943  15.3640  0.00  0.00     0.000 O
ATOM     54   S  SUS B   3      27.261  21.101  14.3210  0.00  0.00     0.000 S
ATOM     55   O  SUS B   3      27.210  22.357  15.0550  0.00  0.00     0.000 OA
ATOM     56   O  SUS B   3      28.246  21.085  13.2540  0.00  0.00     0.000 OA
ATOM     57   O  SUS B   3      25.926  20.689  13.8800  0.00  0.00     0.000 OA
ENDBRANCH 43 53
BRANCH 45 58
ATOM     58   C  SUS B   3      25.651  16.095  17.6560  0.00  0.00     0.000 C
ATOM     59   S  SUS B   3      23.937  14.284  18.2610  0.00  0.00     0.000 S
ATOM     60   O  SUS B   3      24.275  15.798  17.9450  0.00  0.00     0.000 O
ATOM     61   O  SUS B   3      24.372  14.076  19.6290  0.00  0.00     0.000 OA
ATOM     62   O  SUS B   3      22.505  14.295  18.1280  0.00  0.00     0.000 OA
ATOM     63   O  SUS B   3      24.632  13.527  17.2810  0.00  0.00     0.000 OA
ENDBRANCH 45 58
BRANCH 41 64
ATOM     64  O4  IDS B   4      25.326  20.188  19.0720  0.00  0.00     0.000 O
BRANCH 64 68
ATOM     65  C1  IDS B   4      22.502  21.482  20.9770  0.00  0.00     0.000 C
ATOM     66  C2  IDS B   4      23.899  21.426  21.6090  0.00  0.00     0.000 C
ATOM     67  C3  IDS B   4      24.628  20.109  21.4040  0.00  0.00     0.000 C
ATOM     68  C4  IDS B   4      24.438  19.540  20.0100  0.00  0.00     0.000 C
ATOM     69  C5  IDS B   4      22.955  19.672  19.6390  0.00  0.00     0.000 C
ATOM     70  O5  IDS B   4      22.593  21.054  19.6300  0.00  0.00     0.000 O
ATOM     71   O  IDS B   4      24.129  19.200  22.3630  0.00  0.00     0.000 O
ATOM     73  HD  IDS B   4      24.274  19.982  22.0200  0.00  0.00     0.000 HD
BRANCH 66 73
ATOM     73   O  IDS B   4      24.746  22.445  20.9730  0.00  0.00     0.000 O
ATOM     74   S  IDS B   4      25.103  23.773  21.8260  0.00  0.00     0.000 S
ATOM     75   O  IDS B   4      23.839  24.364  22.2120  0.00  0.00     0.000 OA
ATOM     76   O  IDS B   4      25.844  24.551  20.8650  0.00  0.00     0.000 OA
ATOM     77   O  IDS B   4      25.885  23.313  22.9480  0.00  0.00     0.000 OA
ENDBRANCH 66 73
BRANCH 69 78
ATOM     78   C  IDS B   4      22.560  18.947  18.3600  0.00  0.00     0.000 C
ATOM     79   O  IDS B   4      21.850  17.946  18.4420  0.00  0.00     0.000 OA
ATOM     80   O  IDS B   4      22.879  19.452  17.2670  0.00  0.00     0.000 OA
ENDBRANCH 69 78
BRANCH 65 81
ATOM     81  O4  SGN B   5      21.619  20.818  21.7740  0.00  0.00     0.000 O
BRANCH 81 85
ATOM     82  C1  SGN B   5      17.629  20.751  23.0830  0.00  0.00     0.000 C
ATOM     83  C2  SGN B   5      17.893  20.335  21.6280  0.00  0.00     0.000 C
ATOM     84  C3  SGN B   5      19.374  19.970  21.4590  0.00  0.00     0.000 C
ATOM     85  C4  SGN B   5      20.232  21.138  21.9120  0.00  0.00     0.000 C
ATOM     86  C5  SGN B   5      19.899  21.441  23.3700  0.00  0.00     0.000 C
ATOM     87  O5  SGN B   5      18.506  21.794  23.4620  0.00  0.00     0.000 O
ATOM     88   O  SGN B   5      19.637  19.642  20.1120  0.00  0.00     0.000 O
ATOM     90  HD  SGN B   5      19.534  19.072  20.7570  0.00  0.00     0.000 HD
BRANCH 83 92
ATOM     90   N  SGN B   5      16.779  19.371  21.5410  0.00  0.00     0.000 N
ATOM     92  HD  SGN B   5      16.494  19.153  22.3290  0.00  0.00     0.000 HD
ATOM     92   S  SGN B   5      15.634  19.641  20.4590  0.00  0.00     0.000 S
ATOM     93   O  SGN B   5      14.719  18.552  20.6310  0.00  0.00     0.000 OA
ATOM     94   O  SGN B   5      15.202  20.978  20.6800  0.00  0.00     0.000 OA
ATOM     95   O  SGN B   5      16.351  19.612  19.1260  0.00  0.00     0.000 OA
ENDBRANCH 83 92
BRANCH 86 96
ATOM     96   C  SGN B   5      20.695  22.585  23.9640  0.00  0.00     0.000 C
ATOM     97   O  SGN B   5      21.019  22.316  25.3300  0.00  0.00     0.000 O
ATOM     98   S  SGN B   5      22.561  22.489  25.7370  0.00  0.00     0.000 S
ATOM     99   O  SGN B   5      22.528  22.354  27.1730  0.00  0.00     0.000 OA
ATOM    100   O  SGN B   5      23.295  21.479  25.0630  0.00  0.00     0.000 OA
ATOM    101   O  SGN B   5      22.897  23.805  25.3000  0.00  0.00     0.000 OA
ENDBRANCH 86 96
BRANCH 82 102
ATOM    102  O4  IDS B   6      17.729  19.706  23.9530  0.00  0.00     0.000 O
BRANCH 102 106
ATOM    103  C1  IDS B   6      15.854  18.185  26.6780  0.00  0.00     0.000 C
ATOM    104  C2  IDS B   6      15.199  19.229  25.7600  0.00  0.00     0.000 C
ATOM    105  C3  IDS B   6      16.025  20.476  25.5130  0.00  0.00     0.000 C
ATOM    106  C4  IDS B   6      17.498  20.172  25.3070  0.00  0.00     0.000 C
ATOM    107  C5  IDS B   6      17.959  19.128  26.3290  0.00  0.00     0.000 C
ATOM    108  O5  IDS B   6      17.181  17.933  26.2560  0.00  0.00     0.000 O
ATOM    109   O  IDS B   6      15.840  21.353  26.6120  0.00  0.00     0.000 O
ATOM    111  HD  IDS B   6      15.591  20.830  27.2560  0.00  0.00     0.000 HD
BRANCH 104 111
ATOM    111   O  IDS B   6      14.988  18.633  24.4310  0.00  0.00     0.000 O
ATOM    112   S  IDS B   6      13.877  17.489  24.2870  0.00  0.00     0.000 S
ATOM    113   O  IDS B   6      14.299  16.450  25.2140  0.00  0.00     0.000 OA
ATOM    114   O  IDS B   6      12.565  18.076  24.5800  0.00  0.00     0.000 OA
ATOM    115   O  IDS B   6      14.073  17.149  22.8940  0.00  0.00     0.000 OA
ENDBRANCH 104 111
BRANCH 107 116
ATOM    116   C  IDS B   6      19.428  18.804  26.0900  0.00  0.00     0.000 C
ATOM    117   O  IDS B   6      20.232  19.611  26.4840  0.00  0.00     0.000 OA
ATOM    118   O  IDS B   6      19.768  17.780  25.5200  0.00  0.00     0.000 OA
ENDBRANCH 107 116
BRANCH 103 119
ATOM    119  O4  SGN B   7      15.584  18.642  27.9280  0.00  0.00     0.000 O
BRANCH 119 123
ATOM    120  C1  SGN B   7      15.129  16.961  31.7300  0.00  0.00     0.000 C
ATOM    121  C2  SGN B   7      16.562  17.248  31.2440  0.00  0.00     0.000 C
ATOM    122  C3  SGN B   7      16.542  18.208  30.0480  0.00  0.00     0.000 C
ATOM    123  C4  SGN B   7      15.623  17.663  28.9670  0.00  0.00     0.000 C
ATOM    124  C5  SGN B   7      14.225  17.405  29.5520  0.00  0.00     0.000 C
ATOM    125  O5  SGN B   7      14.291  16.496  30.6730  0.00  0.00     0.000 O
ATOM    126   O  SGN B   7      17.879  18.374  29.5610  0.00  0.00     0.000 O
ATOM    128  HD  SGN B   7      17.354  18.072  30.1800  0.00  0.00     0.000 HD
BRANCH 121 130
ATOM    128   N  SGN B   7      17.571  16.404  31.8900  0.00  0.00     0.000 N
ATOM    130  HD  SGN B   7      18.202  16.911  31.5820  0.00  0.00     0.000 HD
ATOM    130   S  SGN B   7      18.382  16.882  33.1970  0.00  0.00     0.000 S
ATOM    131   O  SGN B   7      17.387  17.331  34.1090  0.00  0.00     0.000 OA
ATOM    132   O  SGN B   7      19.280  15.848  33.5670  0.00  0.00     0.000 OA
ATOM    133   O  SGN B   7      19.293  17.992  32.5720  0.00  0.00     0.000 OA
ENDBRANCH 121 130
BRANCH 124 134
ATOM    134   C  SGN B   7      13.275  16.756  28.5890  0.00  0.00     0.000 C
ATOM    135   O  SGN B   7      13.337  15.332  28.7730  0.00  0.00     0.000 O
ATOM    136   S  SGN B   7      12.301  14.475  27.9620  0.00  0.00     0.000 S
ATOM    137   O  SGN B   7      12.622  13.093  28.2250  0.00  0.00     0.000 OA
ATOM    138   O  SGN B   7      12.501  14.848  26.5800  0.00  0.00     0.000 OA
ATOM    139   O  SGN B   7      11.030  14.906  28.5240  0.00  0.00     0.000 OA
ENDBRANCH 124 134
BRANCH 120 140
ATOM    140  O4  IDS B   8      14.275  17.807  32.3170  0.00  0.00     0.000 O
BRANCH 140 144
ATOM    141  C1  IDS B   8      12.323  20.563  33.5650  0.00  0.00     0.000 C
ATOM    142  C2  IDS B   8      13.834  20.431  33.9110  0.00  0.00     0.000 C
ATOM    143  C3  IDS B   8      14.219  19.024  34.4060  0.00  0.00     0.000 C
ATOM    144  C4  IDS B   8      13.576  17.924  33.5630  0.00  0.00     0.000 C
ATOM    145  C5  IDS B   8      12.096  18.248  33.3090  0.00  0.00     0.000 C
ATOM    146  O5  IDS B   8      11.934  19.518  32.6820  0.00  0.00     0.000 O
BRANCH 142 147
ATOM    147   O  IDS B   8      14.647  20.708  32.6980  0.00  0.00     0.000 O
ATOM    148   S  IDS B   8      16.050  21.516  32.7980  0.00  0.00     0.000 S
ATOM    149   O  IDS B   8      16.084  22.176  34.0840  0.00  0.00     0.000 OA
ATOM    150   O  IDS B   8      17.086  20.511  32.6560  0.00  0.00     0.000 OA
ATOM    151   O  IDS B   8      16.023  22.466  31.7020  0.00  0.00     0.000 OA
ENDBRANCH 142 147
BRANCH 145 152
ATOM    152   C  IDS B   8      11.428  17.242  32.3940  0.00  0.00     0.000 C
ATOM    153   O  IDS B   8      11.050  17.594  31.2820  0.00  0.00     0.000 OA
ATOM    154   O  IDS B   8      11.290  16.090  32.7640  0.00  0.00     0.000 OA
ENDBRANCH 145 152
ENDBRANCH 140 144
ENDBRANCH 120 140
ENDBRANCH 119 123
ENDBRANCH 103 119
ENDBRANCH 102 106
ENDBRANCH 82 102
ENDBRANCH 81 85
ENDBRANCH 65 81
ENDBRANCH 64 68
ENDBRANCH 41 64
ENDBRANCH 40 44
ENDBRANCH 24 40
ENDBRANCH 23 27
ENDBRANCH 1 23
TORSDOF 31
ENDMDL
MODEL 31
REMARK VINA RESULT:      -7.1      9.465     12.901
ROOT
ATOM      1  C1  SGN B   1      29.142  10.515  15.7430  0.00  0.00     0.000 C
ATOM      2  C2  SGN B   1      30.566  10.022  15.4400  0.00  0.00     0.000 C
ATOM      3  C3  SGN B   1      30.669   9.516  13.9970  0.00  0.00     0.000 C
ATOM      4  C4  SGN B   1      29.625   8.433  13.7430  0.00  0.00     0.000 C
ATOM      5  C5  SGN B   1      28.259   8.942  14.1990  0.00  0.00     0.000 C
ATOM      6  O5  SGN B   1      28.335   9.357  15.5760  0.00  0.00     0.000 O
ATOM      7   O  SGN B   1      31.977   9.019  13.7330  0.00  0.00     0.000 O
ATOM      9  HD  SGN B   1      31.715   8.496  14.3720  0.00  0.00     0.000 HD
ATOM      9   O  SGN B   1      29.595   8.123  12.3620  0.00  0.00     0.000 O
ATOM     11  HD  SGN B   1      29.333   7.600  13.0010  0.00  0.00     0.000 HD
ENDROOT
BRANCH 2 13
ATOM     11   N  SGN B   1      31.167  10.291  16.7600  0.00  0.00     0.000 N
ATOM     13  HD  SGN B   1      30.825  10.935  16.2930  0.00  0.00     0.000 HD
ATOM     13   S  SGN B   1      31.828  11.710  17.1300  0.00  0.00     0.000 S
ATOM     14   O  SGN B   1      31.688  12.608  16.0510  0.00  0.00     0.000 OA
ATOM     15   O  SGN B   1      31.373  12.095  18.4240  0.00  0.00     0.000 OA
ATOM     16   O  SGN B   1      33.306  11.235  17.2850  0.00  0.00     0.000 OA
ENDBRANCH 2 13
BRANCH 5 17
ATOM     17   C  SGN B   1      27.158   7.915  14.0990  0.00  0.00     0.000 C
ATOM     18   O  SGN B   1      26.471   8.018  12.8360  0.00  0.00     0.000 O
ATOM     19   S  SGN B   1      24.874   7.968  12.9000  0.00  0.00     0.000 S
ATOM     20   O  SGN B   1      24.447   7.851  11.5210  0.00  0.00     0.000 OA
ATOM     21   O  SGN B   1      24.590   6.795  13.6940  0.00  0.00     0.000 OA
ATOM     22   O  SGN B   1      24.481   9.211  13.5250  0.00  0.00     0.000 OA
ENDBRANCH 5 17
BRANCH 1 23
ATOM     23  O4  IDS B   2      28.384  11.647  15.6840  0.00  0.00     0.000 O
BRANCH 23 27
ATOM     24  C1  IDS B   2      25.865  14.798  14.7050  0.00  0.00     0.000 C
ATOM     25  C2  IDS B   2      25.173  13.550  15.2980  0.00  0.00     0.000 C
ATOM     26  C3  IDS B   2      26.199  12.588  15.8910  0.00  0.00     0.000 C
ATOM     27  C4  IDS B   2      27.290  12.183  14.9090  0.00  0.00     0.000 C
ATOM     28  C5  IDS B   2      27.668  13.383  14.0170  0.00  0.00     0.000 C
ATOM     29  O5  IDS B   2      27.284  14.607  14.6240  0.00  0.00     0.000 O
ATOM     30   O  IDS B   2      25.538  11.400  16.3120  0.00  0.00     0.000 O
ATOM     32  HD  IDS B   2      25.361  10.858  15.6600  0.00  0.00     0.000 HD
BRANCH 25 32
ATOM     32   O  IDS B   2      24.212  13.899  16.3730  0.00  0.00     0.000 O
ATOM     33   S  IDS B   2      22.598  13.581  16.2360  0.00  0.00     0.000 S
ATOM     34   O  IDS B   2      21.957  14.254  17.3540  0.00  0.00     0.000 OA
ATOM     35   O  IDS B   2      22.112  14.088  14.9600  0.00  0.00     0.000 OA
ATOM     36   O  IDS B   2      22.473  12.146  16.3420  0.00  0.00     0.000 OA
ENDBRANCH 25 32
BRANCH 28 37
ATOM     37   C  IDS B   2      29.137  13.508  13.5620  0.00  0.00     0.000 C
ATOM     38   O  IDS B   2      29.697  14.464  14.0450  0.00  0.00     0.000 OA
ATOM     39   O  IDS B   2      29.771  12.709  12.8300  0.00  0.00     0.000 OA
ENDBRANCH 28 37
BRANCH 24 40
ATOM     40  O4  SUS B   3      25.131  15.737  14.0730  0.00  0.00     0.000 O
BRANCH 40 44
ATOM     41  C1  SUS B   3      25.602  19.896  13.9180  0.00  0.00     0.000 C
ATOM     42  C2  SUS B   3      26.724  19.036  13.3030  0.00  0.00     0.000 C
ATOM     43  C3  SUS B   3      26.185  17.637  13.0150  0.00  0.00     0.000 C
ATOM     44  C4  SUS B   3      25.597  17.063  14.2950  0.00  0.00     0.000 C
ATOM     45  C5  SUS B   3      24.450  17.944  14.7450  0.00  0.00     0.000 C
ATOM     46  O5  SUS B   3      24.976  19.255  15.0350  0.00  0.00     0.000 O
BRANCH 42 49
ATOM     47   N  SUS B   3      27.222  19.899  12.2180  0.00  0.00     0.000 N
ATOM     49  HD  SUS B   3      27.122  19.602  11.4100  0.00  0.00     0.000 HD
ATOM     49   S  SUS B   3      28.759  20.309  12.4100  0.00  0.00     0.000 S
ATOM     50   O  SUS B   3      29.557  19.150  12.4990  0.00  0.00     0.000 OA
ATOM     51   O  SUS B   3      28.937  20.991  11.0300  0.00  0.00     0.000 OA
ATOM     52   O  SUS B   3      28.863  21.255  13.4500  0.00  0.00     0.000 OA
ENDBRANCH 42 49
BRANCH 43 53
ATOM     53   O  SUS B   3      27.312  16.800  12.5610  0.00  0.00     0.000 O
ATOM     54   S  SUS B   3      27.328  16.358  10.9770  0.00  0.00     0.000 S
ATOM     55   O  SUS B   3      27.633  17.548  10.1960  0.00  0.00     0.000 OA
ATOM     56   O  SUS B   3      28.354  15.333  10.9080  0.00  0.00     0.000 OA
ATOM     57   O  SUS B   3      25.986  15.853  10.6740  0.00  0.00     0.000 OA
ENDBRANCH 43 53
BRANCH 45 58
ATOM     58   C  SUS B   3      23.748  17.382  15.9620  0.00  0.00     0.000 C
ATOM     59   S  SUS B   3      23.762  17.444  18.5270  0.00  0.00     0.000 S
ATOM     60   O  SUS B   3      24.227  18.051  17.1400  0.00  0.00     0.000 O
ATOM     61   O  SUS B   3      24.599  16.277  18.7310  0.00  0.00     0.000 OA
ATOM     62   O  SUS B   3      24.091  18.526  19.4160  0.00  0.00     0.000 OA
ATOM     63   O  SUS B   3      22.375  17.179  18.3800  0.00  0.00     0.000 OA
ENDBRANCH 45 58
BRANCH 41 64
ATOM     64  O4  IDS B   4      24.720  20.399  12.9930  0.00  0.00     0.000 O
BRANCH 64 68
ATOM     65  C1  IDS B   4      22.513  22.739  11.2800  0.00  0.00     0.000 C
ATOM     66  C2  IDS B   4      24.002  23.066  11.4520  0.00  0.00     0.000 C
ATOM     67  C3  IDS B   4      24.540  22.824  12.8520  0.00  0.00     0.000 C
ATOM     68  C4  IDS B   4      23.999  21.553  13.4800  0.00  0.00     0.000 C
ATOM     69  C5  IDS B   4      22.491  21.491  13.2080  0.00  0.00     0.000 C
ATOM     70  O5  IDS B   4      22.269  21.443  11.7960  0.00  0.00     0.000 O
ATOM     71   O  IDS B   4      24.177  23.938  13.6400  0.00  0.00     0.000 O
ATOM     73  HD  IDS B   4      24.318  23.508  12.9020  0.00  0.00     0.000 HD
BRANCH 66 73
ATOM     73   O  IDS B   4      24.785  22.185  10.5740  0.00  0.00     0.000 O
ATOM     74   S  IDS B   4      25.822  22.873   9.5400  0.00  0.00     0.000 S
ATOM     75   O  IDS B   4      25.049  23.797   8.7380  0.00  0.00     0.000 OA
ATOM     76   O  IDS B   4      26.313  21.731   8.8110  0.00  0.00     0.000 OA
ATOM     77   O  IDS B   4      26.813  23.523  10.3640  0.00  0.00     0.000 OA
ENDBRANCH 66 73
BRANCH 69 78
ATOM     78   C  IDS B   4      21.760  20.387  13.9600  0.00  0.00     0.000 C
ATOM     79   O  IDS B   4      21.843  20.353  15.1870  0.00  0.00     0.000 OA
ATOM     80   O  IDS B   4      21.019  19.619  13.3190  0.00  0.00     0.000 OA
ENDBRANCH 69 78
BRANCH 65 81
ATOM     81  O4  SGN B   5      21.764  23.754  11.7920  0.00  0.00     0.000 O
BRANCH 81 85
ATOM     82  C1  SGN B   5      17.968  25.537  11.5610  0.00  0.00     0.000 C
ATOM     83  C2  SGN B   5      18.020  24.002  11.5470  0.00  0.00     0.000 C
ATOM     84  C3  SGN B   5      19.374  23.529  12.0950  0.00  0.00     0.000 C
ATOM     85  C4  SGN B   5      20.491  24.172  11.2930  0.00  0.00     0.000 C
ATOM     86  C5  SGN B   5      20.349  25.688  11.4020  0.00  0.00     0.000 C
ATOM     87  O5  SGN B   5      19.072  26.072  10.8560  0.00  0.00     0.000 O
ATOM     88   O  SGN B   5      19.451  22.121  12.0320  0.00  0.00     0.000 O
ATOM     90  HD  SGN B   5      19.285  22.584  12.7450  0.00  0.00     0.000 HD
BRANCH 83 92
ATOM     90   N  SGN B   5      16.690  23.893  12.1770  0.00  0.00     0.000 N
ATOM     92  HD  SGN B   5      16.417  24.664  12.4620  0.00  0.00     0.000 HD
ATOM     92   S  SGN B   5      15.579  23.012  11.4400  0.00  0.00     0.000 S
ATOM     93   O  SGN B   5      14.428  23.113  12.2850  0.00  0.00     0.000 OA
ATOM     94   O  SGN B   5      15.527  23.497  10.1030  0.00  0.00     0.000 OA
ATOM     95   O  SGN B   5      16.164  21.617  11.3920  0.00  0.00     0.000 OA
ENDBRANCH 83 92
BRANCH 86 96
ATOM     96   C  SGN B   5      21.412  26.466  10.6550  0.00  0.00     0.000 C
ATOM     97   O  SGN B   5      21.948  27.503  11.4800  0.00  0.00     0.000 O
ATOM     98   S  SGN B   5      23.547  27.563  11.5880  0.00  0.00     0.000 S
ATOM     99   O  SGN B   5      23.772  28.800  12.2970  0.00  0.00     0.000 OA
ATOM    100   O  SGN B   5      23.972  26.399  12.2790  0.00  0.00     0.000 OA
ATOM    101   O  SGN B   5      23.993  27.600  10.2330  0.00  0.00     0.000 OA
ENDBRANCH 86 96
BRANCH 82 102
ATOM    102  O4  IDS B   6      17.919  26.048  12.8240  0.00  0.00     0.000 O
BRANCH 102 106
ATOM    103  C1  IDS B   6      16.162  27.909  15.4140  0.00  0.00     0.000 C
ATOM    104  C2  IDS B   6      15.385  27.089  14.3710  0.00  0.00     0.000 C
ATOM    105  C3  IDS B   6      15.828  27.292  12.9350  0.00  0.00     0.000 C
ATOM    106  C4  IDS B   6      17.337  27.376  12.7930  0.00  0.00     0.000 C
ATOM    107  C5  IDS B   6      17.914  28.250  13.9110  0.00  0.00     0.000 C
ATOM    108  O5  IDS B   6      17.554  27.765  15.2050  0.00  0.00     0.000 O
ATOM    109   O  IDS B   6      15.209  28.469  12.4440  0.00  0.00     0.000 O
ATOM    111  HD  IDS B   6      15.025  28.922  13.1600  0.00  0.00     0.000 HD
BRANCH 104 111
ATOM    111   O  IDS B   6      15.586  25.657  14.6420  0.00  0.00     0.000 O
ATOM    112   S  IDS B   6      14.454  24.880  15.4650  0.00  0.00     0.000 S
ATOM    113   O  IDS B   6      14.363  25.596  16.7280  0.00  0.00     0.000 OA
ATOM    114   O  IDS B   6      13.220  24.880  14.6700  0.00  0.00     0.000 OA
ATOM    115   O  IDS B   6      15.089  23.584  15.5680  0.00  0.00     0.000 OA
ENDBRANCH 104 111
BRANCH 107 116
ATOM    116   C  IDS B   6      19.431  28.299  13.7810  0.00  0.00     0.000 C
ATOM    117   O  IDS B   6      20.059  27.534  14.4680  0.00  0.00     0.000 OA
ATOM    118   O  IDS B   6      19.978  29.084  13.0230  0.00  0.00     0.000 OA
ENDBRANCH 107 116
BRANCH 103 119
ATOM    119  O4  SGN B   7      15.564  29.128  15.3740  0.00  0.00     0.000 O
BRANCH 119 123
ATOM    120  C1  SGN B   7      14.651  32.155  18.1110  0.00  0.00     0.000 C
ATOM    121  C2  SGN B   7      16.122  32.000  17.6830  0.00  0.00     0.000 C
ATOM    122  C3  SGN B   7      16.226  31.149  16.4110  0.00  0.00     0.000 C
ATOM    123  C4  SGN B   7      15.503  29.828  16.6170  0.00  0.00     0.000 C
ATOM    124  C5  SGN B   7      14.050  30.090  17.0460  0.00  0.00     0.000 C
ATOM    125  O5  SGN B   7      14.000  30.893  18.2470  0.00  0.00     0.000 O
ATOM    126   O  SGN B   7      17.609  30.944  16.0990  0.00  0.00     0.000 O
ATOM    128  HD  SGN B   7      17.016  31.359  16.5750  0.00  0.00     0.000 HD
BRANCH 121 130
ATOM    128   N  SGN B   7      16.797  32.669  18.7990  0.00  0.00     0.000 N
ATOM    130  HD  SGN B   7      17.565  32.397  18.5060  0.00  0.00     0.000 HD
ATOM    130   S  SGN B   7      17.656  34.016  18.6010  0.00  0.00     0.000 S
ATOM    131   O  SGN B   7      16.805  34.897  17.8760  0.00  0.00     0.000 OA
ATOM    132   O  SGN B   7      18.180  34.401  19.8610  0.00  0.00     0.000 OA
ATOM    133   O  SGN B   7      18.888  33.451  17.8160  0.00  0.00     0.000 OA
ENDBRANCH 121 130
BRANCH 124 134
ATOM    134   C  SGN B   7      13.284  28.845  17.3860  0.00  0.00     0.000 C
ATOM    135   O  SGN B   7      12.488  29.102  18.5550  0.00  0.00     0.000 O
ATOM    136   S  SGN B   7      11.491  27.967  18.9870  0.00  0.00     0.000 S
ATOM    137   O  SGN B   7      10.891  28.403  20.2250  0.00  0.00     0.000 OA
ATOM    138   O  SGN B   7      12.308  26.785  19.1410  0.00  0.00     0.000 OA
ATOM    139   O  SGN B   7      10.567  27.919  17.8650  0.00  0.00     0.000 OA
ENDBRANCH 124 134
BRANCH 120 140
ATOM    140  O4  IDS B   8      13.677  32.825  17.4840  0.00  0.00     0.000 O
BRANCH 140 144
ATOM    141  C1  IDS B   8      11.616  34.031  14.7900  0.00  0.00     0.000 C
ATOM    142  C2  IDS B   8      13.148  33.845  14.6020  0.00  0.00     0.000 C
ATOM    143  C3  IDS B   8      13.976  34.473  15.7390  0.00  0.00     0.000 C
ATOM    144  C4  IDS B   8      13.379  34.177  17.1140  0.00  0.00     0.000 C
ATOM    145  C5  IDS B   8      11.859  34.394  17.0890  0.00  0.00     0.000 C
ATOM    146  O5  IDS B   8      11.229  33.598  16.0890  0.00  0.00     0.000 O
BRANCH 142 147
ATOM    147   O  IDS B   8      13.471  32.394  14.5730  0.00  0.00     0.000 O
ATOM    148   S  IDS B   8      13.736  31.626  13.1690  0.00  0.00     0.000 S
ATOM    149   O  IDS B   8      13.226  32.463  12.1070  0.00  0.00     0.000 OA
ATOM    150   O  IDS B   8      15.174  31.439  13.0960  0.00  0.00     0.000 OA
ATOM    151   O  IDS B   8      13.005  30.378  13.2730  0.00  0.00     0.000 OA
ENDBRANCH 142 147
BRANCH 145 152
ATOM    152   C  IDS B   8      11.195  34.021  18.3990  0.00  0.00     0.000 C
ATOM    153   O  IDS B   8      10.459  33.041  18.4460  0.00  0.00     0.000 OA
ATOM    154   O  IDS B   8      11.415  34.685  19.3960  0.00  0.00     0.000 OA
ENDBRANCH 145 152
ENDBRANCH 140 144
ENDBRANCH 120 140
ENDBRANCH 119 123
ENDBRANCH 103 119
ENDBRANCH 102 106
ENDBRANCH 82 102
ENDBRANCH 81 85
ENDBRANCH 65 81
ENDBRANCH 64 68
ENDBRANCH 41 64
ENDBRANCH 40 44
ENDBRANCH 24 40
ENDBRANCH 23 27
ENDBRANCH 1 23
TORSDOF 31
ENDMDL
MODEL 32
REMARK VINA RESULT:      -7.1      2.421      4.072
ROOT
ATOM      1  C1  SGN B   1      28.841  10.379  13.9400  0.00  0.00     0.000 C
ATOM      2  C2  SGN B   1      30.255  10.513  14.5290  0.00  0.00     0.000 C
ATOM      3  C3  SGN B   1      31.309  10.032  13.5260  0.00  0.00     0.000 C
ATOM      4  C4  SGN B   1      31.007   8.602  13.0900  0.00  0.00     0.000 C
ATOM      5  C5  SGN B   1      29.547   8.513  12.6510  0.00  0.00     0.000 C
ATOM      6  O5  SGN B   1      28.695   8.983  13.7130  0.00  0.00     0.000 O
ATOM      7   O  SGN B   1      32.612  10.117  14.0910  0.00  0.00     0.000 O
ATOM      9  HD  SGN B   1      32.222   9.561  14.6290  0.00  0.00     0.000 HD
ATOM      9   O  SGN B   1      31.861   8.247  12.0190  0.00  0.00     0.000 O
ATOM     11  HD  SGN B   1      31.472   7.691  12.5570  0.00  0.00     0.000 HD
ENDROOT
BRANCH 2 13
ATOM     11   N  SGN B   1      29.814  11.065  15.8240  0.00  0.00     0.000 N
ATOM     13  HD  SGN B   1      29.688  11.509  15.0910  0.00  0.00     0.000 HD
ATOM     13   S  SGN B   1      29.718  12.648  16.0960  0.00  0.00     0.000 S
ATOM     14   O  SGN B   1      30.058  13.363  14.9280  0.00  0.00     0.000 OA
ATOM     15   O  SGN B   1      28.480  12.919  16.7470  0.00  0.00     0.000 OA
ATOM     16   O  SGN B   1      30.839  12.757  17.1750  0.00  0.00     0.000 OA
ENDBRANCH 2 13
BRANCH 5 17
ATOM     17   C  SGN B   1      29.096   7.117  12.2980  0.00  0.00     0.000 C
ATOM     18   O  SGN B   1      29.761   6.138  13.1220  0.00  0.00     0.000 O
ATOM     19   S  SGN B   1      30.332   4.853  12.3620  0.00  0.00     0.000 S
ATOM     20   O  SGN B   1      30.727   3.939  13.4130  0.00  0.00     0.000 OA
ATOM     21   O  SGN B   1      29.215   4.382  11.5760  0.00  0.00     0.000 OA
ATOM     22   O  SGN B   1      31.442   5.343  11.5730  0.00  0.00     0.000 OA
ENDBRANCH 5 17
BRANCH 1 23
ATOM     23  O4  IDS B   2      27.932  11.086  13.2090  0.00  0.00     0.000 O
BRANCH 23 27
ATOM     24  C1  IDS B   2      25.390  13.681  15.2170  0.00  0.00     0.000 C
ATOM     25  C2  IDS B   2      24.999  12.187  15.2730  0.00  0.00     0.000 C
ATOM     26  C3  IDS B   2      26.139  11.305  14.7700  0.00  0.00     0.000 C
ATOM     27  C4  IDS B   2      26.629  11.682  13.3790  0.00  0.00     0.000 C
ATOM     28  C5  IDS B   2      26.602  13.214  13.2070  0.00  0.00     0.000 C
ATOM     29  O5  IDS B   2      26.598  13.866  14.4680  0.00  0.00     0.000 O
ATOM     30   O  IDS B   2      25.698   9.954  14.7190  0.00  0.00     0.000 O
ATOM     32  HD  IDS B   2      25.215   9.778  14.0220  0.00  0.00     0.000 HD
BRANCH 25 32
ATOM     32   O  IDS B   2      24.665  11.746  16.6500  0.00  0.00     0.000 O
ATOM     33   S  IDS B   2      23.239  10.994  17.0020  0.00  0.00     0.000 S
ATOM     34   O  IDS B   2      23.168  10.918  18.4520  0.00  0.00     0.000 OA
ATOM     35   O  IDS B   2      22.134  11.769  16.4550  0.00  0.00     0.000 OA
ATOM     36   O  IDS B   2      23.335   9.679  16.4100  0.00  0.00     0.000 OA
ENDBRANCH 25 32
BRANCH 28 37
ATOM     37   C  IDS B   2      27.694  13.861  12.3300  0.00  0.00     0.000 C
ATOM     38   O  IDS B   2      28.166  14.855  12.8280  0.00  0.00     0.000 OA
ATOM     39   O  IDS B   2      28.145  13.425  11.2420  0.00  0.00     0.000 OA
ENDBRANCH 28 37
BRANCH 24 40
ATOM     40  O4  SUS B   3      24.488  14.625  15.5580  0.00  0.00     0.000 O
BRANCH 40 44
ATOM     41  C1  SUS B   3      25.048  18.473  17.1160  0.00  0.00     0.000 C
ATOM     42  C2  SUS B   3      25.396  18.257  15.6300  0.00  0.00     0.000 C
ATOM     43  C3  SUS B   3      24.698  16.994  15.1280  0.00  0.00     0.000 C
ATOM     44  C4  SUS B   3      25.082  15.830  16.0280  0.00  0.00     0.000 C
ATOM     45  C5  SUS B   3      24.608  16.122  17.4370  0.00  0.00     0.000 C
ATOM     46  O5  SUS B   3      25.290  17.303  17.9060  0.00  0.00     0.000 O
BRANCH 42 49
ATOM     47   N  SUS B   3      26.601  18.788  14.9710  0.00  0.00     0.000 N
ATOM     49  HD  SUS B   3      27.332  18.780  15.4360  0.00  0.00     0.000 HD
ATOM     49   S  SUS B   3      26.391  20.270  14.4000  0.00  0.00     0.000 S
ATOM     50   O  SUS B   3      26.001  21.135  15.4430  0.00  0.00     0.000 OA
ATOM     51   O  SUS B   3      27.869  20.522  14.0060  0.00  0.00     0.000 OA
ATOM     52   O  SUS B   3      25.572  20.218  13.2550  0.00  0.00     0.000 OA
ENDBRANCH 42 49
BRANCH 43 53
ATOM     53   O  SUS B   3      25.159  16.736  13.7500  0.00  0.00     0.000 O
ATOM     54   S  SUS B   3      24.017  16.724  12.5680  0.00  0.00     0.000 S
ATOM     55   O  SUS B   3      23.571  18.097  12.3780  0.00  0.00     0.000 OA
ATOM     56   O  SUS B   3      24.708  16.168  11.4180  0.00  0.00     0.000 OA
ATOM     57   O  SUS B   3      22.926  15.874  13.0540  0.00  0.00     0.000 OA
ENDBRANCH 43 53
BRANCH 45 58
ATOM     58   C  SUS B   3      24.866  14.962  18.3740  0.00  0.00     0.000 C
ATOM     59   S  SUS B   3      24.539  14.199  20.8020  0.00  0.00     0.000 S
ATOM     60   O  SUS B   3      24.203  15.204  19.6260  0.00  0.00     0.000 O
ATOM     61   O  SUS B   3      25.838  14.615  21.2970  0.00  0.00     0.000 OA
ATOM     62   O  SUS B   3      23.473  14.495  21.7210  0.00  0.00     0.000 OA
ATOM     63   O  SUS B   3      24.497  12.905  20.2190  0.00  0.00     0.000 OA
ENDBRANCH 45 58
BRANCH 41 64
ATOM     64  O4  IDS B   4      23.816  19.043  17.3190  0.00  0.00     0.000 O
BRANCH 64 68
ATOM     65  C1  IDS B   4      21.304  21.018  19.0710  0.00  0.00     0.000 C
ATOM     66  C2  IDS B   4      22.760  21.498  19.0100  0.00  0.00     0.000 C
ATOM     67  C3  IDS B   4      23.789  20.425  19.3240  0.00  0.00     0.000 C
ATOM     68  C4  IDS B   4      23.442  19.080  18.7150  0.00  0.00     0.000 C
ATOM     69  C5  IDS B   4      21.949  18.817  18.9540  0.00  0.00     0.000 C
ATOM     70  O5  IDS B   4      21.182  19.834  18.3040  0.00  0.00     0.000 O
ATOM     71   O  IDS B   4      23.858  20.309  20.7300  0.00  0.00     0.000 O
ATOM     73  HD  IDS B   4      23.659  20.695  19.9810  0.00  0.00     0.000 HD
BRANCH 66 73
ATOM     73   O  IDS B   4      23.057  21.935  17.6390  0.00  0.00     0.000 O
ATOM     74   S  IDS B   4      22.954  23.516  17.3080  0.00  0.00     0.000 S
ATOM     75   O  IDS B   4      21.613  23.923  17.6680  0.00  0.00     0.000 OA
ATOM     76   O  IDS B   4      23.213  23.539  15.8900  0.00  0.00     0.000 OA
ATOM     77   O  IDS B   4      23.977  24.145  18.1090  0.00  0.00     0.000 OA
ENDBRANCH 66 73
BRANCH 69 78
ATOM     78   C  IDS B   4      21.492  17.410  18.5960  0.00  0.00     0.000 C
ATOM     79   O  IDS B   4      20.471  16.969  19.1210  0.00  0.00     0.000 OA
ATOM     80   O  IDS B   4      22.105  16.793  17.7060  0.00  0.00     0.000 OA
ENDBRANCH 69 78
BRANCH 65 81
ATOM     81  O4  SGN B   5      20.903  20.952  20.3710  0.00  0.00     0.000 O
BRANCH 81 85
ATOM     82  C1  SGN B   5      17.421  20.930  22.7180  0.00  0.00     0.000 C
ATOM     83  C2  SGN B   5      17.316  20.329  21.3080  0.00  0.00     0.000 C
ATOM     84  C3  SGN B   5      18.720  19.994  20.7870  0.00  0.00     0.000 C
ATOM     85  C4  SGN B   5      19.585  21.241  20.8420  0.00  0.00     0.000 C
ATOM     86  C5  SGN B   5      19.633  21.728  22.2880  0.00  0.00     0.000 C
ATOM     87  O5  SGN B   5      18.293  22.044  22.7130  0.00  0.00     0.000 O
ATOM     88   O  SGN B   5      18.637  19.495  19.4700  0.00  0.00     0.000 O
ATOM     90  HD  SGN B   5      18.749  19.016  20.1820  0.00  0.00     0.000 HD
BRANCH 83 92
ATOM     90   N  SGN B   5      15.915  20.255  21.7680  0.00  0.00     0.000 N
ATOM     92  HD  SGN B   5      15.630  21.033  22.0220  0.00  0.00     0.000 HD
ATOM     92   S  SGN B   5      14.881  19.408  20.8930  0.00  0.00     0.000 S
ATOM     93   O  SGN B   5      13.637  19.538  21.5900  0.00  0.00     0.000 OA
ATOM     94   O  SGN B   5      15.008  19.898  19.5630  0.00  0.00     0.000 OA
ATOM     95   O  SGN B   5      15.429  17.997  20.9090  0.00  0.00     0.000 OA
ENDBRANCH 83 92
BRANCH 86 96
ATOM     96   C  SGN B   5      20.477  22.968  22.4980  0.00  0.00     0.000 C
ATOM     97   O  SGN B   5      20.538  23.304  23.8860  0.00  0.00     0.000 O
ATOM     98   S  SGN B   5      22.004  23.548  24.4890  0.00  0.00     0.000 S
ATOM     99   O  SGN B   5      21.724  24.056  25.8110  0.00  0.00     0.000 OA
ATOM    100   O  SGN B   5      22.687  22.304  24.4660  0.00  0.00     0.000 OA
ATOM    101   O  SGN B   5      22.588  24.519  23.6220  0.00  0.00     0.000 OA
ENDBRANCH 86 96
BRANCH 82 102
ATOM    102  O4  IDS B   6      17.821  20.017  23.6480  0.00  0.00     0.000 O
BRANCH 102 106
ATOM    103  C1  IDS B   6      16.833  18.597  26.8520  0.00  0.00     0.000 C
ATOM    104  C2  IDS B   6      15.832  19.399  26.0050  0.00  0.00     0.000 C
ATOM    105  C3  IDS B   6      16.357  20.715  25.4640  0.00  0.00     0.000 C
ATOM    106  C4  IDS B   6      17.789  20.616  24.9680  0.00  0.00     0.000 C
ATOM    107  C5  IDS B   6      18.623  19.798  25.9580  0.00  0.00     0.000 C
ATOM    108  O5  IDS B   6      18.071  18.498  26.1740  0.00  0.00     0.000 O
ATOM    109   O  IDS B   6      16.244  21.690  26.4880  0.00  0.00     0.000 O
ATOM    111  HD  IDS B   6      16.227  21.224  27.2180  0.00  0.00     0.000 HD
BRANCH 104 111
ATOM    111   O  IDS B   6      15.467  18.610  24.8190  0.00  0.00     0.000 O
ATOM    112   S  IDS B   6      14.084  17.803  24.8470  0.00  0.00     0.000 S
ATOM    113   O  IDS B   6      14.201  16.916  25.9940  0.00  0.00     0.000 OA
ATOM    114   O  IDS B   6      12.984  18.771  24.9320  0.00  0.00     0.000 OA
ATOM    115   O  IDS B   6      14.180  17.129  23.5710  0.00  0.00     0.000 OA
ENDBRANCH 104 111
BRANCH 107 116
ATOM    116   C  IDS B   6      20.048  19.673  25.4340  0.00  0.00     0.000 C
ATOM    117   O  IDS B   6      20.906  20.246  26.0570  0.00  0.00     0.000 OA
ATOM    118   O  IDS B   6      20.301  19.031  24.4270  0.00  0.00     0.000 OA
ENDBRANCH 107 116
BRANCH 103 119
ATOM    119  O4  SGN B   7      16.743  19.168  28.0800  0.00  0.00     0.000 O
BRANCH 119 123
ATOM    120  C1  SGN B   7      17.499  17.878  31.9860  0.00  0.00     0.000 C
ATOM    121  C2  SGN B   7      18.581  18.729  31.2940  0.00  0.00     0.000 C
ATOM    122  C3  SGN B   7      18.000  19.443  30.0670  0.00  0.00     0.000 C
ATOM    123  C4  SGN B   7      17.334  18.430  29.1510  0.00  0.00     0.000 C
ATOM    124  C5  SGN B   7      16.280  17.631  29.9340  0.00  0.00     0.000 C
ATOM    125  O5  SGN B   7      16.870  16.975  31.0790  0.00  0.00     0.000 O
ATOM    126   O  SGN B   7      19.053  20.142  29.3930  0.00  0.00     0.000 O
ATOM    128  HD  SGN B   7      18.791  19.703  30.0920  0.00  0.00     0.000 HD
BRANCH 121 130
ATOM    128   N  SGN B   7      19.711  18.351  32.1460  0.00  0.00     0.000 N
ATOM    130  HD  SGN B   7      20.265  18.693  31.5760  0.00  0.00     0.000 HD
ATOM    130   S  SGN B   7      20.549  19.435  32.9930  0.00  0.00     0.000 S
ATOM    131   O  SGN B   7      19.572  20.195  33.6940  0.00  0.00     0.000 OA
ATOM    132   O  SGN B   7      21.572  18.754  33.7010  0.00  0.00     0.000 OA
ATOM    133   O  SGN B   7      21.297  20.178  31.8350  0.00  0.00     0.000 OA
ENDBRANCH 121 130
BRANCH 124 134
ATOM    134   C  SGN B   7      15.646  16.524  29.1440  0.00  0.00     0.000 C
ATOM    135   O  SGN B   7      15.071  15.577  30.0610  0.00  0.00     0.000 O
ATOM    136   S  SGN B   7      14.223  14.417  29.4280  0.00  0.00     0.000 S
ATOM    137   O  SGN B   7      13.845  13.549  30.5180  0.00  0.00     0.000 OA
ATOM    138   O  SGN B   7      15.105  13.778  28.4780  0.00  0.00     0.000 OA
ATOM    139   O  SGN B   7      13.109  15.134  28.8280  0.00  0.00     0.000 OA
ENDBRANCH 124 134
BRANCH 120 140
ATOM    140  O4  IDS B   8      16.414  18.303  32.6440  0.00  0.00     0.000 O
BRANCH 140 144
ATOM    141  C1  IDS B   8      15.262  18.596  36.0420  0.00  0.00     0.000 C
ATOM    142  C2  IDS B   8      16.156  17.402  35.6010  0.00  0.00     0.000 C
ATOM    143  C3  IDS B   8      15.661  16.721  34.3120  0.00  0.00     0.000 C
ATOM    144  C4  IDS B   8      15.245  17.739  33.2500  0.00  0.00     0.000 C
ATOM    145  C5  IDS B   8      14.392  18.848  33.8840  0.00  0.00     0.000 C
ATOM    146  O5  IDS B   8      15.079  19.494  34.9540  0.00  0.00     0.000 O
BRANCH 142 147
ATOM    147   O  IDS B   8      17.537  17.887  35.3400  0.00  0.00     0.000 O
ATOM    148   S  IDS B   8      18.828  17.007  35.7760  0.00  0.00     0.000 S
ATOM    149   O  IDS B   8      18.380  16.011  36.7230  0.00  0.00     0.000 OA
ATOM    150   O  IDS B   8      19.334  16.426  34.5460  0.00  0.00     0.000 OA
ATOM    151   O  IDS B   8      19.748  17.952  36.3790  0.00  0.00     0.000 OA
ENDBRANCH 142 147
BRANCH 145 152
ATOM    152   C  IDS B   8      14.031  19.941  32.9000  0.00  0.00     0.000 C
ATOM    153   O  IDS B   8      14.782  20.899  32.7580  0.00  0.00     0.000 OA
ATOM    154   O  IDS B   8      13.009  19.847  32.2440  0.00  0.00     0.000 OA
ENDBRANCH 145 152
ENDBRANCH 140 144
ENDBRANCH 120 140
ENDBRANCH 119 123
ENDBRANCH 103 119
ENDBRANCH 102 106
ENDBRANCH 82 102
ENDBRANCH 81 85
ENDBRANCH 65 81
ENDBRANCH 64 68
ENDBRANCH 41 64
ENDBRANCH 40 44
ENDBRANCH 24 40
ENDBRANCH 23 27
ENDBRANCH 1 23
TORSDOF 31
ENDMDL
MODEL 33
REMARK VINA RESULT:      -7.1      9.340     12.171
ROOT
ATOM      1  C1  SGN B   1      29.541  10.660  15.7210  0.00  0.00     0.000 C
ATOM      2  C2  SGN B   1      31.014  10.266  15.5250  0.00  0.00     0.000 C
ATOM      3  C3  SGN B   1      31.275   9.847  14.0740  0.00  0.00     0.000 C
ATOM      4  C4  SGN B   1      30.325   8.724  13.6710  0.00  0.00     0.000 C
ATOM      5  C5  SGN B   1      28.896   9.128  14.0240  0.00  0.00     0.000 C
ATOM      6  O5  SGN B   1      28.824   9.470  15.4220  0.00  0.00     0.000 O
ATOM      7   O  SGN B   1      32.628   9.440  13.9070  0.00  0.00     0.000 O
ATOM      9  HD  SGN B   1      32.344   8.868  14.4910  0.00  0.00     0.000 HD
ATOM      9   O  SGN B   1      30.437   8.490  12.2790  0.00  0.00     0.000 O
ATOM     11  HD  SGN B   1      30.152   7.918  12.8640  0.00  0.00     0.000 HD
ENDROOT
BRANCH 2 13
ATOM     11   N  SGN B   1      31.528  10.482  16.8900  0.00  0.00     0.000 N
ATOM     13  HD  SGN B   1      31.137  11.124  16.4610  0.00  0.00     0.000 HD
ATOM     13   S  SGN B   1      32.016  11.925  17.4070  0.00  0.00     0.000 S
ATOM     14   O  SGN B   1      31.823  12.892  16.3990  0.00  0.00     0.000 OA
ATOM     15   O  SGN B   1      31.470  12.147  18.7040  0.00  0.00     0.000 OA
ATOM     16   O  SGN B   1      33.529  11.595  17.5950  0.00  0.00     0.000 OA
ENDBRANCH 2 13
BRANCH 5 17
ATOM     17   C  SGN B   1      27.872   8.049  13.7720  0.00  0.00     0.000 C
ATOM     18   O  SGN B   1      26.712   8.586  13.1060  0.00  0.00     0.000 O
ATOM     19   S  SGN B   1      25.295   8.123  13.6840  0.00  0.00     0.000 S
ATOM     20   O  SGN B   1      24.324   8.595  12.7200  0.00  0.00     0.000 OA
ATOM     21   O  SGN B   1      25.393   6.683  13.7480  0.00  0.00     0.000 OA
ATOM     22   O  SGN B   1      25.187   8.763  14.9770  0.00  0.00     0.000 OA
ENDBRANCH 5 17
BRANCH 1 23
ATOM     23  O4  IDS B   2      28.724  11.750  15.6490  0.00  0.00     0.000 O
BRANCH 23 27
ATOM     24  C1  IDS B   2      25.962  14.707  14.7210  0.00  0.00     0.000 C
ATOM     25  C2  IDS B   2      25.370  13.390  15.2720  0.00  0.00     0.000 C
ATOM     26  C3  IDS B   2      26.466  12.500  15.8520  0.00  0.00     0.000 C
ATOM     27  C4  IDS B   2      27.598  12.214  14.8750  0.00  0.00     0.000 C
ATOM     28  C5  IDS B   2      27.885  13.466  14.0200  0.00  0.00     0.000 C
ATOM     29  O5  IDS B   2      27.393  14.637  14.6550  0.00  0.00     0.000 O
ATOM     30   O  IDS B   2      25.901  11.250  16.2320  0.00  0.00     0.000 O
ATOM     32  HD  IDS B   2      25.778  10.714  15.5640  0.00  0.00     0.000 HD
BRANCH 25 32
ATOM     32   O  IDS B   2      24.371  13.628  16.3420  0.00  0.00     0.000 O
ATOM     33   S  IDS B   2      22.845  13.005  16.2650  0.00  0.00     0.000 S
ATOM     34   O  IDS B   2      22.100  13.623  17.3500  0.00  0.00     0.000 OA
ATOM     35   O  IDS B   2      22.259  13.321  14.9700  0.00  0.00     0.000 OA
ATOM     36   O  IDS B   2      22.993  11.583  16.4700  0.00  0.00     0.000 OA
ENDBRANCH 25 32
BRANCH 28 37
ATOM     37   C  IDS B   2      29.343  13.724  13.5880  0.00  0.00     0.000 C
ATOM     38   O  IDS B   2      29.805  14.727  14.0790  0.00  0.00     0.000 OA
ATOM     39   O  IDS B   2      30.059  12.988  12.8660  0.00  0.00     0.000 OA
ENDBRANCH 28 37
BRANCH 24 40
ATOM     40  O4  SUS B   3      25.159  15.599  14.1050  0.00  0.00     0.000 O
BRANCH 40 44
ATOM     41  C1  SUS B   3      25.280  19.786  14.0760  0.00  0.00     0.000 C
ATOM     42  C2  SUS B   3      26.486  19.042  13.4690  0.00  0.00     0.000 C
ATOM     43  C3  SUS B   3      26.075  17.611  13.1290  0.00  0.00     0.000 C
ATOM     44  C4  SUS B   3      25.506  16.952  14.3760  0.00  0.00     0.000 C
ATOM     45  C5  SUS B   3      24.277  17.720  14.8180  0.00  0.00     0.000 C
ATOM     46  O5  SUS B   3      24.683  19.062  15.1580  0.00  0.00     0.000 O
BRANCH 42 49
ATOM     47   N  SUS B   3      27.361  20.175  13.8170  0.00  0.00     0.000 N
ATOM     49  HD  SUS B   3      26.967  20.914  14.0390  0.00  0.00     0.000 HD
ATOM     49   S  SUS B   3      28.428  20.507  12.6690  0.00  0.00     0.000 S
ATOM     50   O  SUS B   3      27.760  20.777  11.4570  0.00  0.00     0.000 OA
ATOM     51   O  SUS B   3      28.968  21.815  13.2990  0.00  0.00     0.000 OA
ATOM     52   O  SUS B   3      29.425  19.511  12.6560  0.00  0.00     0.000 OA
ENDBRANCH 42 49
BRANCH 43 53
ATOM     53   O  SUS B   3      27.281  16.885  12.6830  0.00  0.00     0.000 O
ATOM     54   S  SUS B   3      27.326  16.399  11.1140  0.00  0.00     0.000 S
ATOM     55   O  SUS B   3      27.493  17.591  10.2930  0.00  0.00     0.000 OA
ATOM     56   O  SUS B   3      28.456  15.488  11.0600  0.00  0.00     0.000 OA
ATOM     57   O  SUS B   3      26.043  15.745  10.8450  0.00  0.00     0.000 OA
ENDBRANCH 43 53
BRANCH 45 58
ATOM     58   C  SUS B   3      23.595  17.065  15.9990  0.00  0.00     0.000 C
ATOM     59   S  SUS B   3      23.486  17.104  18.5620  0.00  0.00     0.000 S
ATOM     60   O  SUS B   3      23.936  17.776  17.2010  0.00  0.00     0.000 O
ATOM     61   O  SUS B   3      24.449  16.044  18.7980  0.00  0.00     0.000 OA
ATOM     62   O  SUS B   3      23.642  18.209  19.4700  0.00  0.00     0.000 OA
ATOM     63   O  SUS B   3      22.149  16.675  18.3510  0.00  0.00     0.000 OA
ENDBRANCH 45 58
BRANCH 41 64
ATOM     64  O4  IDS B   4      24.382  20.240  13.1410  0.00  0.00     0.000 O
BRANCH 64 68
ATOM     65  C1  IDS B   4      22.271  23.019  12.0940  0.00  0.00     0.000 C
ATOM     66  C2  IDS B   4      23.402  23.246  13.1060  0.00  0.00     0.000 C
ATOM     67  C3  IDS B   4      23.461  22.217  14.2230  0.00  0.00     0.000 C
ATOM     68  C4  IDS B   4      23.194  20.805  13.7380  0.00  0.00     0.000 C
ATOM     69  C5  IDS B   4      21.992  20.846  12.7840  0.00  0.00     0.000 C
ATOM     70  O5  IDS B   4      22.311  21.671  11.6610  0.00  0.00     0.000 O
ATOM     71   O  IDS B   4      22.491  22.584  15.1830  0.00  0.00     0.000 O
ATOM     73  HD  IDS B   4      23.019  22.711  14.5080  0.00  0.00     0.000 HD
BRANCH 66 73
ATOM     73   O  IDS B   4      24.690  23.140  12.4080  0.00  0.00     0.000 O
ATOM     74   S  IDS B   4      25.610  24.467  12.3080  0.00  0.00     0.000 S
ATOM     75   O  IDS B   4      24.796  25.483  11.6750  0.00  0.00     0.000 OA
ATOM     76   O  IDS B   4      26.708  24.006  11.4970  0.00  0.00     0.000 OA
ATOM     77   O  IDS B   4      25.970  24.790  13.6680  0.00  0.00     0.000 OA
ENDBRANCH 66 73
BRANCH 69 78
ATOM     78   C  IDS B   4      21.460  19.478  12.3820  0.00  0.00     0.000 C
ATOM     79   O  IDS B   4      21.720  18.510  13.0950  0.00  0.00     0.000 OA
ATOM     80   O  IDS B   4      20.693  19.400  11.4050  0.00  0.00     0.000 OA
ENDBRANCH 69 78
BRANCH 65 81
ATOM     81  O4  SGN B   5      21.095  23.459  12.6220  0.00  0.00     0.000 O
BRANCH 81 85
ATOM     82  C1  SGN B   5      17.457  25.338  11.6900  0.00  0.00     0.000 C
ATOM     83  C2  SGN B   5      17.654  23.904  11.1760  0.00  0.00     0.000 C
ATOM     84  C3  SGN B   5      18.777  23.223  11.9700  0.00  0.00     0.000 C
ATOM     85  C4  SGN B   5      20.036  24.068  11.8810  0.00  0.00     0.000 C
ATOM     86  C5  SGN B   5      19.724  25.454  12.4400  0.00  0.00     0.000 C
ATOM     87  O5  SGN B   5      18.680  26.048  11.6450  0.00  0.00     0.000 O
ATOM     88   O  SGN B   5      19.003  21.925  11.4640  0.00  0.00     0.000 O
ATOM     90  HD  SGN B   5      18.561  22.114  12.1850  0.00  0.00     0.000 HD
BRANCH 83 92
ATOM     90   N  SGN B   5      16.310  24.236  10.6630  0.00  0.00     0.000 N
ATOM     92  HD  SGN B   5      16.307  25.013  10.2810  0.00  0.00     0.000 HD
ATOM     92   S  SGN B   5      15.499  23.098   9.8870  0.00  0.00     0.000 S
ATOM     93   O  SGN B   5      14.266  23.728   9.5220  0.00  0.00     0.000 OA
ATOM     94   O  SGN B   5      16.380  22.616   8.8790  0.00  0.00     0.000 OA
ATOM     95   O  SGN B   5      15.325  21.990  10.9030  0.00  0.00     0.000 OA
ENDBRANCH 83 92
BRANCH 86 96
ATOM     96   C  SGN B   5      20.900  26.408  12.4260  0.00  0.00     0.000 C
ATOM     97   O  SGN B   5      21.569  26.362  11.1630  0.00  0.00     0.000 O
ATOM     98   S  SGN B   5      21.830  27.775  10.4510  0.00  0.00     0.000 S
ATOM     99   O  SGN B   5      22.677  27.419   9.3380  0.00  0.00     0.000 OA
ATOM    100   O  SGN B   5      20.567  28.309  10.0860  0.00  0.00     0.000 OA
ATOM    101   O  SGN B   5      22.497  28.554  11.4430  0.00  0.00     0.000 OA
ENDBRANCH 86 96
BRANCH 82 102
ATOM    102  O4  IDS B   6      16.932  25.376  12.9480  0.00  0.00     0.000 O
BRANCH 102 106
ATOM    103  C1  IDS B   6      14.395  26.280  15.3980  0.00  0.00     0.000 C
ATOM    104  C2  IDS B   6      13.995  25.792  13.9960  0.00  0.00     0.000 C
ATOM    105  C3  IDS B   6      14.746  26.444  12.8510  0.00  0.00     0.000 C
ATOM    106  C4  IDS B   6      16.224  26.626  13.1460  0.00  0.00     0.000 C
ATOM    107  C5  IDS B   6      16.407  27.133  14.5800  0.00  0.00     0.000 C
ATOM    108  O5  IDS B   6      15.803  26.260  15.5350  0.00  0.00     0.000 O
ATOM    109   O  IDS B   6      14.131  27.691  12.5730  0.00  0.00     0.000 O
ATOM    111  HD  IDS B   6      13.728  27.894  13.3120  0.00  0.00     0.000 HD
BRANCH 104 111
ATOM    111   O  IDS B   6      14.291  24.356  13.8870  0.00  0.00     0.000 O
ATOM    112   S  IDS B   6      13.068  23.352  13.6450  0.00  0.00     0.000 S
ATOM    113   O  IDS B   6      12.184  23.572  14.7790  0.00  0.00     0.000 OA
ATOM    114   O  IDS B   6      12.473  23.651  12.3370  0.00  0.00     0.000 OA
ATOM    115   O  IDS B   6      13.784  22.095  13.6930  0.00  0.00     0.000 OA
ENDBRANCH 104 111
BRANCH 107 116
ATOM    116   C  IDS B   6      17.893  27.278  14.8780  0.00  0.00     0.000 C
ATOM    117   O  IDS B   6      18.383  26.451  15.6040  0.00  0.00     0.000 OA
ATOM    118   O  IDS B   6      18.550  28.194  14.4090  0.00  0.00     0.000 OA
ENDBRANCH 107 116
BRANCH 103 119
ATOM    119  O4  SGN B   7      13.686  27.428  15.5530  0.00  0.00     0.000 O
BRANCH 119 123
ATOM    120  C1  SGN B   7      11.668  29.348  18.6720  0.00  0.00     0.000 C
ATOM    121  C2  SGN B   7      13.201  29.488  18.6210  0.00  0.00     0.000 C
ATOM    122  C3  SGN B   7      13.732  29.088  17.2390  0.00  0.00     0.000 C
ATOM    123  C4  SGN B   7      13.229  27.700  16.8780  0.00  0.00     0.000 C
ATOM    124  C5  SGN B   7      11.695  27.661  16.9650  0.00  0.00     0.000 C
ATOM    125  O5  SGN B   7      11.239  28.044  18.2820  0.00  0.00     0.000 O
ATOM    126   O  SGN B   7      15.163  29.136  17.2580  0.00  0.00     0.000 O
ATOM    128  HD  SGN B   7      14.416  29.318  17.6550  0.00  0.00     0.000 HD
BRANCH 121 130
ATOM    128   N  SGN B   7      13.226  29.995  19.9950  0.00  0.00     0.000 N
ATOM    130  HD  SGN B   7      14.026  29.681  20.1040  0.00  0.00     0.000 HD
ATOM    130   S  SGN B   7      14.110  31.272  20.4240  0.00  0.00     0.000 S
ATOM    131   O  SGN B   7      13.784  32.284  19.4790  0.00  0.00     0.000 OA
ATOM    132   O  SGN B   7      13.922  31.498  21.8120  0.00  0.00     0.000 OA
ATOM    133   O  SGN B   7      15.550  30.666  20.3140  0.00  0.00     0.000 OA
ENDBRANCH 121 130
BRANCH 124 134
ATOM    134   C  SGN B   7      11.108  26.299  16.7370  0.00  0.00     0.000 C
ATOM    135   O  SGN B   7       9.725  26.325  17.1310  0.00  0.00     0.000 O
ATOM    136   S  SGN B   7       8.887  25.031  16.8270  0.00  0.00     0.000 S
ATOM    137   O  SGN B   7       7.580  25.251  17.3990  0.00  0.00     0.000 OA
ATOM    138   O  SGN B   7       9.609  23.954  17.4660  0.00  0.00     0.000 OA
ATOM    139   O  SGN B   7       8.898  24.985  15.3740  0.00  0.00     0.000 OA
ENDBRANCH 124 134
BRANCH 120 140
ATOM    140  O4  IDS B   8      10.753  30.072  18.0190  0.00  0.00     0.000 O
BRANCH 140 144
ATOM    141  C1  IDS B   8       9.216  31.846  15.2890  0.00  0.00     0.000 C
ATOM    142  C2  IDS B   8      10.756  31.889  15.5040  0.00  0.00     0.000 C
ATOM    143  C3  IDS B   8      11.153  32.208  16.9570  0.00  0.00     0.000 C
ATOM    144  C4  IDS B   8      10.308  31.433  17.9660  0.00  0.00     0.000 C
ATOM    145  C5  IDS B   8       8.825  31.489  17.5680  0.00  0.00     0.000 C
ATOM    146  O5  IDS B   8       8.614  30.988  16.2500  0.00  0.00     0.000 O
BRANCH 142 147
ATOM    147   O  IDS B   8      11.339  30.563  15.1690  0.00  0.00     0.000 O
ATOM    148   S  IDS B   8      12.019  30.290  13.7220  0.00  0.00     0.000 S
ATOM    149   O  IDS B   8      11.589  31.343  12.8300  0.00  0.00     0.000 OA
ATOM    150   O  IDS B   8      13.451  30.304  13.9590  0.00  0.00     0.000 OA
ATOM    151   O  IDS B   8      11.524  28.991  13.3070  0.00  0.00     0.000 OA
ENDBRANCH 142 147
BRANCH 145 152
ATOM    152   C  IDS B   8       7.945  30.655  18.4770  0.00  0.00     0.000 C
ATOM    153   O  IDS B   8       7.208  29.805  17.9900  0.00  0.00     0.000 OA
ATOM    154   O  IDS B   8       7.994  30.823  19.6820  0.00  0.00     0.000 OA
ENDBRANCH 145 152
ENDBRANCH 140 144
ENDBRANCH 120 140
ENDBRANCH 119 123
ENDBRANCH 103 119
ENDBRANCH 102 106
ENDBRANCH 82 102
ENDBRANCH 81 85
ENDBRANCH 65 81
ENDBRANCH 64 68
ENDBRANCH 41 64
ENDBRANCH 40 44
ENDBRANCH 24 40
ENDBRANCH 23 27
ENDBRANCH 1 23
TORSDOF 31
ENDMDL
MODEL 34
REMARK VINA RESULT:      -7.1      7.418     20.392
ROOT
ATOM      1  C1  SGN B   1      27.112  16.309  33.1770  0.00  0.00     0.000 C
ATOM      2  C2  SGN B   1      27.530  15.177  34.1310  0.00  0.00     0.000 C
ATOM      3  C3  SGN B   1      26.299  14.440  34.6690  0.00  0.00     0.000 C
ATOM      4  C4  SGN B   1      25.345  15.426  35.3370  0.00  0.00     0.000 C
ATOM      5  C5  SGN B   1      25.088  16.593  34.3860  0.00  0.00     0.000 C
ATOM      6  O5  SGN B   1      26.343  17.181  33.9940  0.00  0.00     0.000 O
ATOM      7   O  SGN B   1      26.687  13.423  35.5860  0.00  0.00     0.000 O
ATOM      9  HD  SGN B   1      26.986  14.136  35.9770  0.00  0.00     0.000 HD
ATOM      9   O  SGN B   1      24.130  14.769  35.6450  0.00  0.00     0.000 O
ATOM     11  HD  SGN B   1      24.429  15.482  36.0350  0.00  0.00     0.000 HD
ENDROOT
BRANCH 2 13
ATOM     11   N  SGN B   1      29.001  15.288  34.1130  0.00  0.00     0.000 N
ATOM     13  HD  SGN B   1      28.556  15.217  33.3730  0.00  0.00     0.000 HD
ATOM     13   S  SGN B   1      29.897  14.648  32.9400  0.00  0.00     0.000 S
ATOM     14   O  SGN B   1      29.068  14.049  31.9680  0.00  0.00     0.000 OA
ATOM     15   O  SGN B   1      30.866  15.611  32.5370  0.00  0.00     0.000 OA
ATOM     16   O  SGN B   1      30.642  13.573  33.7900  0.00  0.00     0.000 OA
ENDBRANCH 2 13
BRANCH 5 17
ATOM     17   C  SGN B   1      24.242  17.692  34.9780  0.00  0.00     0.000 C
ATOM     18   O  SGN B   1      23.330  18.225  33.9970  0.00  0.00     0.000 O
ATOM     19   S  SGN B   1      23.223  19.820  33.9320  0.00  0.00     0.000 S
ATOM     20   O  SGN B   1      22.099  20.085  33.0600  0.00  0.00     0.000 OA
ATOM     21   O  SGN B   1      22.998  20.214  35.3030  0.00  0.00     0.000 OA
ATOM     22   O  SGN B   1      24.491  20.262  33.3940  0.00  0.00     0.000 OA
ENDBRANCH 5 17
BRANCH 1 23
ATOM     23  O4  IDS B   2      26.859  16.534  31.8560  0.00  0.00     0.000 O
BRANCH 23 27
ATOM     24  C1  IDS B   2      27.031  17.757  27.8930  0.00  0.00     0.000 C
ATOM     25  C2  IDS B   2      28.343  17.906  28.6950  0.00  0.00     0.000 C
ATOM     26  C3  IDS B   2      28.257  17.163  30.0250  0.00  0.00     0.000 C
ATOM     27  C4  IDS B   2      27.059  17.570  30.8720  0.00  0.00     0.000 C
ATOM     28  C5  IDS B   2      25.839  17.834  29.9670  0.00  0.00     0.000 C
ATOM     29  O5  IDS B   2      25.993  17.196  28.7080  0.00  0.00     0.000 O
ATOM     30   O  IDS B   2      29.430  17.426  30.7850  0.00  0.00     0.000 O
ATOM     32  HD  IDS B   2      29.415  18.197  31.1800  0.00  0.00     0.000 HD
BRANCH 25 32
ATOM     32   O  IDS B   2      29.514  17.372  27.9580  0.00  0.00     0.000 O
ATOM     33   S  IDS B   2      29.801  15.751  27.8320  0.00  0.00     0.000 S
ATOM     34   O  IDS B   2      31.127  15.618  27.2510  0.00  0.00     0.000 OA
ATOM     35   O  IDS B   2      29.735  15.144  29.1540  0.00  0.00     0.000 OA
ATOM     36   O  IDS B   2      28.783  15.243  26.9420  0.00  0.00     0.000 OA
ENDBRANCH 25 32
BRANCH 28 37
ATOM     37   C  IDS B   2      24.442  17.485  30.5210  0.00  0.00     0.000 C
ATOM     38   O  IDS B   2      23.737  18.457  30.6590  0.00  0.00     0.000 OA
ATOM     39   O  IDS B   2      23.990  16.338  30.7590  0.00  0.00     0.000 OA
ENDBRANCH 28 37
BRANCH 24 40
ATOM     40  O4  SUS B   3      26.885  18.400  26.7160  0.00  0.00     0.000 O
BRANCH 40 44
ATOM     41  C1  SUS B   3      26.264  16.885  22.8600  0.00  0.00     0.000 C
ATOM     42  C2  SUS B   3      25.178  16.595  23.9150  0.00  0.00     0.000 C
ATOM     43  C3  SUS B   3      25.316  17.588  25.0660  0.00  0.00     0.000 C
ATOM     44  C4  SUS B   3      26.736  17.520  25.6060  0.00  0.00     0.000 C
ATOM     45  C5  SUS B   3      27.699  17.914  24.5050  0.00  0.00     0.000 C
ATOM     46  O5  SUS B   3      27.574  16.956  23.4340  0.00  0.00     0.000 O
BRANCH 42 49
ATOM     47   N  SUS B   3      24.202  15.577  24.3420  0.00  0.00     0.000 N
ATOM     49  HD  SUS B   3      24.523  14.869  24.7230  0.00  0.00     0.000 HD
ATOM     49   S  SUS B   3      23.236  15.110  23.1530  0.00  0.00     0.000 S
ATOM     50   O  SUS B   3      24.002  14.610  22.0810  0.00  0.00     0.000 OA
ATOM     51   O  SUS B   3      22.552  13.951  23.9230  0.00  0.00     0.000 OA
ATOM     52   O  SUS B   3      22.311  16.135  22.8730  0.00  0.00     0.000 OA
ENDBRANCH 42 49
BRANCH 43 53
ATOM     53   O  SUS B   3      24.359  17.199  26.1200  0.00  0.00     0.000 O
ATOM     54   S  SUS B   3      23.128  18.241  26.4360  0.00  0.00     0.000 S
ATOM     55   O  SUS B   3      22.213  18.192  25.3050  0.00  0.00     0.000 OA
ATOM     56   O  SUS B   3      22.555  17.744  27.6750  0.00  0.00     0.000 OA
ATOM     57   O  SUS B   3      23.733  19.570  26.5720  0.00  0.00     0.000 OA
ENDBRANCH 43 53
BRANCH 45 58
ATOM     58   C  SUS B   3      29.129  17.967  24.9950  0.00  0.00     0.000 C
ATOM     59   S  SUS B   3      31.234  19.435  24.9680  0.00  0.00     0.000 S
ATOM     60   O  SUS B   3      29.679  19.266  24.7200  0.00  0.00     0.000 O
ATOM     61   O  SUS B   3      31.871  18.814  23.8220  0.00  0.00     0.000 OA
ATOM     62   O  SUS B   3      31.353  20.868  24.9600  0.00  0.00     0.000 OA
ATOM     63   O  SUS B   3      31.489  18.810  26.2170  0.00  0.00     0.000 OA
ENDBRANCH 45 58
BRANCH 41 64
ATOM     64  O4  IDS B   4      25.959  17.932  22.0260  0.00  0.00     0.000 O
BRANCH 64 68
ATOM     65  C1  IDS B   4      25.445  18.852  18.5380  0.00  0.00     0.000 C
ATOM     66  C2  IDS B   4      25.480  17.375  18.9500  0.00  0.00     0.000 C
ATOM     67  C3  IDS B   4      26.629  17.008  19.8750  0.00  0.00     0.000 C
ATOM     68  C4  IDS B   4      26.894  18.063  20.9320  0.00  0.00     0.000 C
ATOM     69  C5  IDS B   4      26.853  19.440  20.2540  0.00  0.00     0.000 C
ATOM     70  O5  IDS B   4      25.552  19.653  19.7010  0.00  0.00     0.000 O
ATOM     71   O  IDS B   4      27.778  16.839  19.0700  0.00  0.00     0.000 O
ATOM     73  HD  IDS B   4      26.928  16.901  19.2270  0.00  0.00     0.000 HD
BRANCH 66 73
ATOM     73   O  IDS B   4      24.257  17.064  19.7030  0.00  0.00     0.000 O
ATOM     74   S  IDS B   4      23.104  16.210  18.9570  0.00  0.00     0.000 S
ATOM     75   O  IDS B   4      22.763  16.942  17.7570  0.00  0.00     0.000 OA
ATOM     76   O  IDS B   4      22.060  16.191  19.9510  0.00  0.00     0.000 OA
ATOM     77   O  IDS B   4      23.692  14.919  18.6910  0.00  0.00     0.000 OA
ENDBRANCH 66 73
BRANCH 69 78
ATOM     78   C  IDS B   4      27.317  20.590  21.1370  0.00  0.00     0.000 C
ATOM     79   O  IDS B   4      26.685  21.646  21.1120  0.00  0.00     0.000 OA
ATOM     80   O  IDS B   4      28.253  20.391  21.9320  0.00  0.00     0.000 OA
ENDBRANCH 69 78
BRANCH 65 81
ATOM     81  O4  SGN B   5      26.363  19.070  17.5560  0.00  0.00     0.000 O
BRANCH 81 85
ATOM     82  C1  SGN B   5      27.282  21.853  14.5480  0.00  0.00     0.000 C
ATOM     83  C2  SGN B   5      28.201  21.826  15.7780  0.00  0.00     0.000 C
ATOM     84  C3  SGN B   5      28.023  20.496  16.5230  0.00  0.00     0.000 C
ATOM     85  C4  SGN B   5      26.557  20.309  16.8690  0.00  0.00     0.000 C
ATOM     86  C5  SGN B   5      25.751  20.330  15.5730  0.00  0.00     0.000 C
ATOM     87  O5  SGN B   5      25.943  21.605  14.9310  0.00  0.00     0.000 O
ATOM     88   O  SGN B   5      28.822  20.487  17.6860  0.00  0.00     0.000 O
ATOM     90  HD  SGN B   5      29.013  20.085  16.9430  0.00  0.00     0.000 HD
BRANCH 83 92
ATOM     90   N  SGN B   5      29.419  22.233  15.0500  0.00  0.00     0.000 N
ATOM     92  HD  SGN B   5      29.317  22.137  14.1950  0.00  0.00     0.000 HD
ATOM     92   S  SGN B   5      30.146  23.584  15.4960  0.00  0.00     0.000 S
ATOM     93   O  SGN B   5      31.264  23.696  14.6090  0.00  0.00     0.000 OA
ATOM     94   O  SGN B   5      29.134  24.585  15.4970  0.00  0.00     0.000 OA
ATOM     95   O  SGN B   5      30.547  23.348  16.9360  0.00  0.00     0.000 OA
ENDBRANCH 83 92
BRANCH 86 96
ATOM     96   C  SGN B   5      24.261  20.140  15.7650  0.00  0.00     0.000 C
ATOM     97   O  SGN B   5      23.653  21.356  16.2080  0.00  0.00     0.000 O
ATOM     98   S  SGN B   5      22.367  21.844  15.3830  0.00  0.00     0.000 S
ATOM     99   O  SGN B   5      21.879  22.946  16.1780  0.00  0.00     0.000 OA
ATOM    100   O  SGN B   5      22.806  22.202  14.0820  0.00  0.00     0.000 OA
ATOM    101   O  SGN B   5      21.495  20.715  15.3860  0.00  0.00     0.000 OA
ENDBRANCH 86 96
BRANCH 82 102
ATOM    102  O4  IDS B   6      27.671  20.973  13.5830  0.00  0.00     0.000 O
BRANCH 102 106
ATOM    103  C1  IDS B   6      28.860  20.017  10.2770  0.00  0.00     0.000 C
ATOM    104  C2  IDS B   6      29.502  21.190  11.0340  0.00  0.00     0.000 C
ATOM    105  C3  IDS B   6      28.523  22.174  11.6440  0.00  0.00     0.000 C
ATOM    106  C4  IDS B   6      27.322  21.492  12.2750  0.00  0.00     0.000 C
ATOM    107  C5  IDS B   6      26.823  20.371  11.3590  0.00  0.00     0.000 C
ATOM    108  O5  IDS B   6      27.851  19.422  11.0700  0.00  0.00     0.000 O
ATOM    109   O  IDS B   6      28.114  23.076  10.6290  0.00  0.00     0.000 O
ATOM    111  HD  IDS B   6      28.258  22.642   9.8930  0.00  0.00     0.000 HD
BRANCH 104 111
ATOM    111   O  IDS B   6      30.278  20.662  12.1670  0.00  0.00     0.000 O
ATOM    112   S  IDS B   6      31.875  20.683  12.0610  0.00  0.00     0.000 S
ATOM    113   O  IDS B   6      32.173  19.900  10.8720  0.00  0.00     0.000 OA
ATOM    114   O  IDS B   6      32.317  22.081  12.0010  0.00  0.00     0.000 OA
ATOM    115   O  IDS B   6      32.200  20.014  13.3020  0.00  0.00     0.000 OA
ENDBRANCH 104 111
BRANCH 107 116
ATOM    116   C  IDS B   6      25.641  19.670  12.0170  0.00  0.00     0.000 C
ATOM    117   O  IDS B   6      25.820  18.537  12.3850  0.00  0.00     0.000 OA
ATOM    118   O  IDS B   6      24.566  20.231  12.1530  0.00  0.00     0.000 OA
ENDBRANCH 107 116
BRANCH 103 119
ATOM    119  O4  SGN B   7      28.582  20.538   9.0540  0.00  0.00     0.000 O
BRANCH 119 123
ATOM    120  C1  SGN B   7      28.224  19.080   5.1510  0.00  0.00     0.000 C
ATOM    121  C2  SGN B   7      27.019  18.898   6.0930  0.00  0.00     0.000 C
ATOM    122  C3  SGN B   7      27.148  19.817   7.3150  0.00  0.00     0.000 C
ATOM    123  C4  SGN B   7      28.494  19.595   7.9850  0.00  0.00     0.000 C
ATOM    124  C5  SGN B   7      29.626  19.793   6.9630  0.00  0.00     0.000 C
ATOM    125  O5  SGN B   7      29.465  18.908   5.8320  0.00  0.00     0.000 O
ATOM    126   O  SGN B   7      26.067  19.550   8.2150  0.00  0.00     0.000 O
ATOM    128  HD  SGN B   7      26.420  19.430   7.4330  0.00  0.00     0.000 HD
BRANCH 121 130
ATOM    128   N  SGN B   7      25.990  19.073   5.0660  0.00  0.00     0.000 N
ATOM    130  HD  SGN B   7      26.377  18.480   4.5670  0.00  0.00     0.000 HD
ATOM    130   S  SGN B   7      24.852  17.968   4.7920  0.00  0.00     0.000 S
ATOM    131   O  SGN B   7      24.297  17.679   6.0710  0.00  0.00     0.000 OA
ATOM    132   O  SGN B   7      24.023  18.432   3.7390  0.00  0.00     0.000 OA
ATOM    133   O  SGN B   7      25.714  16.831   4.1450  0.00  0.00     0.000 OA
ENDBRANCH 121 130
BRANCH 124 134
ATOM    134   C  SGN B   7      30.991  19.483   7.5020  0.00  0.00     0.000 C
ATOM    135   O  SGN B   7      31.643  18.572   6.6000  0.00  0.00     0.000 O
ATOM    136   S  SGN B   7      33.147  18.241   6.9060  0.00  0.00     0.000 S
ATOM    137   O  SGN B   7      33.547  17.242   5.9440  0.00  0.00     0.000 OA
ATOM    138   O  SGN B   7      33.158  17.750   8.2660  0.00  0.00     0.000 OA
ATOM    139   O  SGN B   7      33.795  19.530   6.7260  0.00  0.00     0.000 OA
ENDBRANCH 124 134
BRANCH 120 140
ATOM    140  O4  IDS B   8      28.537  20.152   4.4140  0.00  0.00     0.000 O
BRANCH 140 144
ATOM    141  C1  IDS B   8      29.818  22.581   2.0860  0.00  0.00     0.000 C
ATOM    142  C2  IDS B   8      29.866  22.840   3.6180  0.00  0.00     0.000 C
ATOM    143  C3  IDS B   8      28.522  22.569   4.3190  0.00  0.00     0.000 C
ATOM    144  C4  IDS B   8      27.870  21.277   3.8280  0.00  0.00     0.000 C
ATOM    145  C5  IDS B   8      27.944  21.195   2.2960  0.00  0.00     0.000 C
ATOM    146  O5  IDS B   8      29.287  21.287   1.8280  0.00  0.00     0.000 O
BRANCH 142 147
ATOM    147   O  IDS B   8      30.875  21.942   4.2410  0.00  0.00     0.000 O
ATOM    148   S  IDS B   8      32.274  22.529   4.8160  0.00  0.00     0.000 S
ATOM    149   O  IDS B   8      32.455  23.852   4.2620  0.00  0.00     0.000 OA
ATOM    150   O  IDS B   8      32.124  22.540   6.2590  0.00  0.00     0.000 OA
ATOM    151   O  IDS B   8      33.293  21.605   4.3560  0.00  0.00     0.000 OA
ENDBRANCH 142 147
BRANCH 145 152
ATOM    152   C  IDS B   8      27.401  19.888   1.7550  0.00  0.00     0.000 C
ATOM    153   O  IDS B   8      26.203  19.648   1.8450  0.00  0.00     0.000 OA
ATOM    154   O  IDS B   8      28.158  19.099   1.2170  0.00  0.00     0.000 OA
ENDBRANCH 145 152
ENDBRANCH 140 144
ENDBRANCH 120 140
ENDBRANCH 119 123
ENDBRANCH 103 119
ENDBRANCH 102 106
ENDBRANCH 82 102
ENDBRANCH 81 85
ENDBRANCH 65 81
ENDBRANCH 64 68
ENDBRANCH 41 64
ENDBRANCH 40 44
ENDBRANCH 24 40
ENDBRANCH 23 27
ENDBRANCH 1 23
TORSDOF 31
ENDMDL
MODEL 35
REMARK VINA RESULT:      -7.1      5.336      9.002
ROOT
ATOM      1  C1  SGN B   1      34.417  19.674   8.7290  0.00  0.00     0.000 C
ATOM      2  C2  SGN B   1      35.744  20.062   8.0560  0.00  0.00     0.000 C
ATOM      3  C3  SGN B   1      35.536  21.224   7.0780  0.00  0.00     0.000 C
ATOM      4  C4  SGN B   1      34.462  20.866   6.0570  0.00  0.00     0.000 C
ATOM      5  C5  SGN B   1      33.225  20.355   6.7920  0.00  0.00     0.000 C
ATOM      6  O5  SGN B   1      33.593  19.257   7.6490  0.00  0.00     0.000 O
ATOM      7   O  SGN B   1      36.757  21.551   6.4240  0.00  0.00     0.000 O
ATOM      9  HD  SGN B   1      36.638  20.731   6.1740  0.00  0.00     0.000 HD
ATOM      9   O  SGN B   1      34.137  22.013   5.2930  0.00  0.00     0.000 O
ATOM     11  HD  SGN B   1      34.018  21.193   5.0430  0.00  0.00     0.000 HD
ENDROOT
BRANCH 2 13
ATOM     11   N  SGN B   1      36.703  19.121   8.6640  0.00  0.00     0.000 N
ATOM     13  HD  SGN B   1      36.186  19.605   9.1630  0.00  0.00     0.000 HD
ATOM     13   S  SGN B   1      37.338  19.363  10.1230  0.00  0.00     0.000 S
ATOM     14   O  SGN B   1      36.803  20.535  10.6970  0.00  0.00     0.000 OA
ATOM     15   O  SGN B   1      37.280  18.139  10.8480  0.00  0.00     0.000 OA
ATOM     16   O  SGN B   1      38.822  19.571   9.6880  0.00  0.00     0.000 OA
ENDBRANCH 2 13
BRANCH 5 17
ATOM     17   C  SGN B   1      32.127  19.865   5.8800  0.00  0.00     0.000 C
ATOM     18   O  SGN B   1      32.677  19.227   4.7100  0.00  0.00     0.000 O
ATOM     19   S  SGN B   1      32.012  19.632   3.3130  0.00  0.00     0.000 S
ATOM     20   O  SGN B   1      32.564  18.703   2.3510  0.00  0.00     0.000 OA
ATOM     21   O  SGN B   1      30.595  19.461   3.5350  0.00  0.00     0.000 OA
ATOM     22   O  SGN B   1      32.410  21.005   3.0890  0.00  0.00     0.000 OA
ENDBRANCH 5 17
BRANCH 1 23
ATOM     23  O4  IDS B   2      33.664  19.975   9.8250  0.00  0.00     0.000 O
BRANCH 23 27
ATOM     24  C1  IDS B   2      31.212  19.745  13.1660  0.00  0.00     0.000 C
ATOM     25  C2  IDS B   2      32.648  20.248  13.4270  0.00  0.00     0.000 C
ATOM     26  C3  IDS B   2      33.358  20.576  12.1160  0.00  0.00     0.000 C
ATOM     27  C4  IDS B   2      33.364  19.421  11.1240  0.00  0.00     0.000 C
ATOM     28  C5  IDS B   2      32.027  18.656  11.1970  0.00  0.00     0.000 C
ATOM     29  O5  IDS B   2      31.012  19.463  11.7750  0.00  0.00     0.000 O
ATOM     30   O  IDS B   2      34.713  20.915  12.3890  0.00  0.00     0.000 O
ATOM     32  HD  IDS B   2      35.217  20.224  12.5240  0.00  0.00     0.000 HD
BRANCH 25 32
ATOM     32   O  IDS B   2      32.671  21.471  14.2670  0.00  0.00     0.000 O
ATOM     33   S  IDS B   2      33.455  21.518  15.7180  0.00  0.00     0.000 S
ATOM     34   O  IDS B   2      33.075  22.775  16.3430  0.00  0.00     0.000 OA
ATOM     35   O  IDS B   2      33.047  20.377  16.5250  0.00  0.00     0.000 OA
ATOM     36   O  IDS B   2      34.864  21.493  15.4010  0.00  0.00     0.000 OA
ENDBRANCH 25 32
BRANCH 28 37
ATOM     37   C  IDS B   2      31.476  18.042   9.8940  0.00  0.00     0.000 C
ATOM     38   O  IDS B   2      31.844  16.904   9.7210  0.00  0.00     0.000 OA
ATOM     39   O  IDS B   2      30.675  18.575   9.0870  0.00  0.00     0.000 OA
ENDBRANCH 28 37
BRANCH 24 40
ATOM     40  O4  SUS B   3      30.443  19.339  14.1990  0.00  0.00     0.000 O
BRANCH 40 44
ATOM     41  C1  SUS B   3      26.287  19.479  14.7000  0.00  0.00     0.000 C
ATOM     42  C2  SUS B   3      26.848  18.387  13.7660  0.00  0.00     0.000 C
ATOM     43  C3  SUS B   3      28.329  18.175  14.0740  0.00  0.00     0.000 C
ATOM     44  C4  SUS B   3      29.049  19.510  13.9670  0.00  0.00     0.000 C
ATOM     45  C5  SUS B   3      28.470  20.463  14.9930  0.00  0.00     0.000 C
ATOM     46  O5  SUS B   3      27.078  20.671  14.6780  0.00  0.00     0.000 O
BRANCH 42 49
ATOM     47   N  SUS B   3      25.581  18.395  13.0160  0.00  0.00     0.000 N
ATOM     49  HD  SUS B   3      24.908  18.785  13.3970  0.00  0.00     0.000 HD
ATOM     49   S  SUS B   3      25.118  16.928  12.5700  0.00  0.00     0.000 S
ATOM     50   O  SUS B   3      24.992  16.099  13.7030  0.00  0.00     0.000 OA
ATOM     51   O  SUS B   3      23.722  17.335  12.0330  0.00  0.00     0.000 OA
ATOM     52   O  SUS B   3      25.942  16.477  11.5200  0.00  0.00     0.000 OA
ENDBRANCH 42 49
BRANCH 43 53
ATOM     53   O  SUS B   3      28.870  17.232  13.0760  0.00  0.00     0.000 O
ATOM     54   S  SUS B   3      29.342  15.755  13.6200  0.00  0.00     0.000 S
ATOM     55   O  SUS B   3      28.139  15.012  13.9670  0.00  0.00     0.000 OA
ATOM     56   O  SUS B   3      30.079  15.188  12.5040  0.00  0.00     0.000 OA
ATOM     57   O  SUS B   3      30.177  15.995  14.8010  0.00  0.00     0.000 OA
ENDBRANCH 43 53
BRANCH 45 58
ATOM     58   C  SUS B   3      29.205  21.785  15.0170  0.00  0.00     0.000 C
ATOM     59   S  SUS B   3      29.472  23.986  13.7240  0.00  0.00     0.000 S
ATOM     60   O  SUS B   3      28.678  22.641  13.9890  0.00  0.00     0.000 O
ATOM     61   O  SUS B   3      30.630  23.595  12.9420  0.00  0.00     0.000 OA
ATOM     62   O  SUS B   3      28.504  24.721  12.9550  0.00  0.00     0.000 OA
ATOM     63   O  SUS B   3      29.758  24.518  15.0090  0.00  0.00     0.000 OA
ENDBRANCH 45 58
BRANCH 41 64
ATOM     64  O4  IDS B   4      25.986  19.026  15.9610  0.00  0.00     0.000 O
BRANCH 64 68
ATOM     65  C1  IDS B   4      23.911  18.251  18.8540  0.00  0.00     0.000 C
ATOM     66  C2  IDS B   4      23.438  17.880  17.4430  0.00  0.00     0.000 C
ATOM     67  C3  IDS B   4      23.594  18.989  16.4170  0.00  0.00     0.000 C
ATOM     68  C4  IDS B   4      24.895  19.755  16.5680  0.00  0.00     0.000 C
ATOM     69  C5  IDS B   4      25.109  20.042  18.0600  0.00  0.00     0.000 C
ATOM     70  O5  IDS B   4      25.212  18.805  18.7680  0.00  0.00     0.000 O
ATOM     71   O  IDS B   4      22.501  19.869  16.5810  0.00  0.00     0.000 O
ATOM     73  HD  IDS B   4      22.933  19.124  16.6730  0.00  0.00     0.000 HD
BRANCH 66 73
ATOM     73   O  IDS B   4      24.260  16.769  16.9460  0.00  0.00     0.000 O
ATOM     74   S  IDS B   4      23.611  15.287  16.9440  0.00  0.00     0.000 S
ATOM     75   O  IDS B   4      23.202  15.017  18.3060  0.00  0.00     0.000 OA
ATOM     76   O  IDS B   4      24.717  14.480  16.4930  0.00  0.00     0.000 OA
ATOM     77   O  IDS B   4      22.506  15.351  16.0180  0.00  0.00     0.000 OA
ENDBRANCH 66 73
BRANCH 69 78
ATOM     78   C  IDS B   4      26.260  20.993  18.3590  0.00  0.00     0.000 C
ATOM     79   O  IDS B   4      27.413  20.573  18.2690  0.00  0.00     0.000 OA
ATOM     80   O  IDS B   4      26.001  22.191  18.5810  0.00  0.00     0.000 OA
ENDBRANCH 69 78
BRANCH 65 81
ATOM     81  O4  SGN B   5      22.960  19.011  19.4660  0.00  0.00     0.000 O
BRANCH 81 85
ATOM     82  C1  SGN B   5      21.424  19.874  23.2780  0.00  0.00     0.000 C
ATOM     83  C2  SGN B   5      22.344  20.927  22.6410  0.00  0.00     0.000 C
ATOM     84  C3  SGN B   5      22.428  20.688  21.1270  0.00  0.00     0.000 C
ATOM     85  C4  SGN B   5      22.884  19.262  20.8710  0.00  0.00     0.000 C
ATOM     86  C5  SGN B   5      21.885  18.313  21.5270  0.00  0.00     0.000 C
ATOM     87  O5  SGN B   5      21.865  18.572  22.9440  0.00  0.00     0.000 O
ATOM     88   O  SGN B   5      23.316  21.616  20.5440  0.00  0.00     0.000 O
ATOM     90  HD  SGN B   5      22.451  21.666  20.5230  0.00  0.00     0.000 HD
BRANCH 83 92
ATOM     90   N  SGN B   5      22.295  21.455  24.0190  0.00  0.00     0.000 N
ATOM     92  HD  SGN B   5      22.708  20.929  24.5680  0.00  0.00     0.000 HD
ATOM     92   S  SGN B   5      22.574  23.014  24.2360  0.00  0.00     0.000 S
ATOM     93   O  SGN B   5      22.462  23.200  25.6510  0.00  0.00     0.000 OA
ATOM     94   O  SGN B   5      23.807  23.281  23.5770  0.00  0.00     0.000 OA
ATOM     95   O  SGN B   5      21.484  23.713  23.4540  0.00  0.00     0.000 OA
ENDBRANCH 83 92
BRANCH 86 96
ATOM     96   C  SGN B   5      22.209  16.845  21.3410  0.00  0.00     0.000 C
ATOM     97   O  SGN B   5      23.432  16.513  22.0030  0.00  0.00     0.000 O
ATOM     98   S  SGN B   5      23.383  15.243  22.9820  0.00  0.00     0.000 S
ATOM     99   O  SGN B   5      24.772  15.049  23.3210  0.00  0.00     0.000 OA
ATOM    100   O  SGN B   5      22.547  15.582  24.0770  0.00  0.00     0.000 OA
ATOM    101   O  SGN B   5      22.846  14.195  22.1760  0.00  0.00     0.000 OA
ENDBRANCH 86 96
BRANCH 82 102
ATOM    102  O4  IDS B   6      20.117  20.038  22.9260  0.00  0.00     0.000 O
BRANCH 102 106
ATOM    103  C1  IDS B   6      16.777  19.948  24.3730  0.00  0.00     0.000 C
ATOM    104  C2  IDS B   6      18.022  20.007  25.2730  0.00  0.00     0.000 C
ATOM    105  C3  IDS B   6      19.125  19.031  24.9090  0.00  0.00     0.000 C
ATOM    106  C4  IDS B   6      19.335  18.916  23.4090  0.00  0.00     0.000 C
ATOM    107  C5  IDS B   6      17.979  18.852  22.7000  0.00  0.00     0.000 C
ATOM    108  O5  IDS B   6      17.161  19.981  23.0120  0.00  0.00     0.000 O
ATOM    109   O  IDS B   6      18.800  17.769  25.4700  0.00  0.00     0.000 O
ATOM    111  HD  IDS B   6      17.941  17.802  25.5740  0.00  0.00     0.000 HD
BRANCH 104 111
ATOM    111   O  IDS B   6      18.632  21.341  25.1610  0.00  0.00     0.000 O
ATOM    112   S  IDS B   6      18.720  22.241  26.4810  0.00  0.00     0.000 S
ATOM    113   O  IDS B   6      17.340  22.382  26.9210  0.00  0.00     0.000 OA
ATOM    114   O  IDS B   6      19.603  21.572  27.4420  0.00  0.00     0.000 OA
ATOM    115   O  IDS B   6      19.279  23.446  25.9060  0.00  0.00     0.000 OA
ENDBRANCH 104 111
BRANCH 107 116
ATOM    116   C  IDS B   6      18.201  18.774  21.1950  0.00  0.00     0.000 C
ATOM    117   O  IDS B   6      17.964  19.770  20.5600  0.00  0.00     0.000 OA
ATOM    118   O  IDS B   6      18.590  17.747  20.6630  0.00  0.00     0.000 OA
ENDBRANCH 107 116
BRANCH 103 119
ATOM    119  O4  SGN B   7      16.063  18.911  24.8810  0.00  0.00     0.000 O
BRANCH 119 123
ATOM    120  C1  SGN B   7      12.020  18.022  25.4780  0.00  0.00     0.000 C
ATOM    121  C2  SGN B   7      12.597  17.806  24.0660  0.00  0.00     0.000 C
ATOM    122  C3  SGN B   7      14.131  17.784  24.1090  0.00  0.00     0.000 C
ATOM    123  C4  SGN B   7      14.643  19.038  24.7990  0.00  0.00     0.000 C
ATOM    124  C5  SGN B   7      14.006  19.166  26.1920  0.00  0.00     0.000 C
ATOM    125  O5  SGN B   7      12.563  19.184  26.1030  0.00  0.00     0.000 O
ATOM    126   O  SGN B   7      14.633  17.681  22.7720  0.00  0.00     0.000 O
ATOM    128  HD  SGN B   7      13.952  17.648  23.3070  0.00  0.00     0.000 HD
BRANCH 121 130
ATOM    128   N  SGN B   7      11.376  17.840  23.2580  0.00  0.00     0.000 N
ATOM    130  HD  SGN B   7      11.848  17.833  22.5320  0.00  0.00     0.000 HD
ATOM    130   S  SGN B   7      10.849  16.556  22.4430  0.00  0.00     0.000 S
ATOM    131   O  SGN B   7      10.843  15.492  23.3880  0.00  0.00     0.000 OA
ATOM    132   O  SGN B   7       9.657  16.917  21.7620  0.00  0.00     0.000 OA
ATOM    133   O  SGN B   7      11.936  16.470  21.3180  0.00  0.00     0.000 OA
ENDBRANCH 121 130
BRANCH 124 134
ATOM    134   C  SGN B   7      14.361  20.436  26.9080  0.00  0.00     0.000 C
ATOM    135   O  SGN B   7      13.146  21.117  27.2620  0.00  0.00     0.000 O
ATOM    136   S  SGN B   7      13.298  22.399  28.1580  0.00  0.00     0.000 S
ATOM    137   O  SGN B   7      11.975  22.960  28.2920  0.00  0.00     0.000 OA
ATOM    138   O  SGN B   7      14.206  23.260  27.4340  0.00  0.00     0.000 OA
ATOM    139   O  SGN B   7      13.839  21.855  29.3940  0.00  0.00     0.000 OA
ENDBRANCH 124 134
BRANCH 120 140
ATOM    140  O4  IDS B   8      12.061  17.186  26.5210  0.00  0.00     0.000 O
BRANCH 140 144
ATOM    141  C1  IDS B   8      12.843  15.222  29.4350  0.00  0.00     0.000 C
ATOM    142  C2  IDS B   8      13.752  15.178  28.1740  0.00  0.00     0.000 C
ATOM    143  C3  IDS B   8      12.962  14.968  26.8680  0.00  0.00     0.000 C
ATOM    144  C4  IDS B   8      11.702  15.830  26.8160  0.00  0.00     0.000 C
ATOM    145  C5  IDS B   8      10.958  15.762  28.1590  0.00  0.00     0.000 C
ATOM    146  O5  IDS B   8      11.792  16.161  29.2440  0.00  0.00     0.000 O
BRANCH 142 147
ATOM    147   O  IDS B   8      14.483  16.466  28.0440  0.00  0.00     0.000 O
ATOM    148   S  IDS B   8      16.084  16.547  28.2920  0.00  0.00     0.000 S
ATOM    149   O  IDS B   8      16.481  15.345  28.9900  0.00  0.00     0.000 OA
ATOM    150   O  IDS B   8      16.675  16.650  26.9710  0.00  0.00     0.000 OA
ATOM    151   O  IDS B   8      16.285  17.734  29.1000  0.00  0.00     0.000 OA
ENDBRANCH 142 147
BRANCH 145 152
ATOM    152   C  IDS B   8       9.750  16.676  28.2030  0.00  0.00     0.000 C
ATOM    153   O  IDS B   8       8.810  16.473  27.4430  0.00  0.00     0.000 OA
ATOM    154   O  IDS B   8       9.716  17.590  29.0070  0.00  0.00     0.000 OA
ENDBRANCH 145 152
ENDBRANCH 140 144
ENDBRANCH 120 140
ENDBRANCH 119 123
ENDBRANCH 103 119
ENDBRANCH 102 106
ENDBRANCH 82 102
ENDBRANCH 81 85
ENDBRANCH 65 81
ENDBRANCH 64 68
ENDBRANCH 41 64
ENDBRANCH 40 44
ENDBRANCH 24 40
ENDBRANCH 23 27
ENDBRANCH 1 23
TORSDOF 31
ENDMDL
MODEL 36
REMARK VINA RESULT:      -7.1      3.128      5.997
ROOT
ATOM      1  C1  SGN B   1      28.629  16.492  14.0630  0.00  0.00     0.000 C
ATOM      2  C2  SGN B   1      28.797  15.951  12.6330  0.00  0.00     0.000 C
ATOM      3  C3  SGN B   1      28.262  14.519  12.5280  0.00  0.00     0.000 C
ATOM      4  C4  SGN B   1      28.943  13.626  13.5590  0.00  0.00     0.000 C
ATOM      5  C5  SGN B   1      28.861  14.293  14.9300  0.00  0.00     0.000 C
ATOM      6  O5  SGN B   1      29.422  15.618  14.8560  0.00  0.00     0.000 O
ATOM      7   O  SGN B   1      28.459  14.007  11.2160  0.00  0.00     0.000 O
ATOM      9  HD  SGN B   1      29.273  14.161  11.4680  0.00  0.00     0.000 HD
ATOM      9   O  SGN B   1      28.299  12.366  13.5890  0.00  0.00     0.000 O
ATOM     11  HD  SGN B   1      29.112  12.520  13.8420  0.00  0.00     0.000 HD
ENDROOT
BRANCH 2 13
ATOM     11   N  SGN B   1      29.425  17.101  11.9560  0.00  0.00     0.000 N
ATOM     13  HD  SGN B   1      28.680  17.198  12.3860  0.00  0.00     0.000 HD
ATOM     13   S  SGN B   1      28.566  18.338  11.3880  0.00  0.00     0.000 S
ATOM     14   O  SGN B   1      27.200  18.158  11.6870  0.00  0.00     0.000 OA
ATOM     15   O  SGN B   1      29.213  19.548  11.7710  0.00  0.00     0.000 OA
ATOM     16   O  SGN B   1      28.848  18.127   9.8690  0.00  0.00     0.000 OA
ENDBRANCH 2 13
BRANCH 5 17
ATOM     17   C  SGN B   1      29.599  13.553  16.0190  0.00  0.00     0.000 C
ATOM     18   O  SGN B   1      30.677  12.770  15.4690  0.00  0.00     0.000 O
ATOM     19   S  SGN B   1      30.810  11.275  16.0210  0.00  0.00     0.000 S
ATOM     20   O  SGN B   1      32.076  10.796  15.5060  0.00  0.00     0.000 OA
ATOM     21   O  SGN B   1      30.790  11.427  17.4570  0.00  0.00     0.000 OA
ATOM     22   O  SGN B   1      29.664  10.572  15.4880  0.00  0.00     0.000 OA
ENDBRANCH 5 17
BRANCH 1 23
ATOM     23  O4  IDS B   2      27.730  17.165  14.8360  0.00  0.00     0.000 O
BRANCH 23 27
ATOM     24  C1  IDS B   2      24.317  17.595  17.1590  0.00  0.00     0.000 C
ATOM     25  C2  IDS B   2      24.361  16.337  16.2640  0.00  0.00     0.000 C
ATOM     26  C3  IDS B   2      25.759  16.123  15.6910  0.00  0.00     0.000 C
ATOM     27  C4  IDS B   2      26.301  17.334  14.9440  0.00  0.00     0.000 C
ATOM     28  C5  IDS B   2      25.864  18.631  15.6550  0.00  0.00     0.000 C
ATOM     29  O5  IDS B   2      25.511  18.374  17.0060  0.00  0.00     0.000 O
ATOM     30   O  IDS B   2      25.729  15.033  14.7770  0.00  0.00     0.000 O
ATOM     32  HD  IDS B   2      25.411  15.247  14.0000  0.00  0.00     0.000 HD
BRANCH 25 32
ATOM     32   O  IDS B   2      23.987  15.108  17.0060  0.00  0.00     0.000 O
ATOM     33   S  IDS B   2      22.737  14.144  16.5230  0.00  0.00     0.000 S
ATOM     34   O  IDS B   2      22.529  13.184  17.5950  0.00  0.00     0.000 OA
ATOM     35   O  IDS B   2      21.553  14.962  16.3030  0.00  0.00     0.000 OA
ATOM     36   O  IDS B   2      23.190  13.494  15.3150  0.00  0.00     0.000 OA
ENDBRANCH 25 32
BRANCH 28 37
ATOM     37   C  IDS B   2      26.834  19.830  15.6260  0.00  0.00     0.000 C
ATOM     38   O  IDS B   2      26.853  20.391  14.5560  0.00  0.00     0.000 OA
ATOM     39   O  IDS B   2      27.509  20.278  16.5850  0.00  0.00     0.000 OA
ENDBRANCH 28 37
BRANCH 24 40
ATOM     40  O4  SUS B   3      23.149  17.992  17.7050  0.00  0.00     0.000 O
BRANCH 40 44
ATOM     41  C1  SUS B   3      22.388  20.179  21.1950  0.00  0.00     0.000 C
ATOM     42  C2  SUS B   3      23.057  20.929  20.0260  0.00  0.00     0.000 C
ATOM     43  C3  SUS B   3      22.819  20.155  18.7310  0.00  0.00     0.000 C
ATOM     44  C4  SUS B   3      23.310  18.728  18.9130  0.00  0.00     0.000 C
ATOM     45  C5  SUS B   3      22.516  18.074  20.0240  0.00  0.00     0.000 C
ATOM     46  O5  SUS B   3      22.768  18.800  21.2450  0.00  0.00     0.000 O
BRANCH 42 49
ATOM     47   N  SUS B   3      23.951  22.027  19.6210  0.00  0.00     0.000 N
ATOM     49  HD  SUS B   3      24.800  21.855  19.6200  0.00  0.00     0.000 HD
ATOM     49   S  SUS B   3      23.715  23.362  20.4750  0.00  0.00     0.000 S
ATOM     50   O  SUS B   3      23.889  23.091  21.8470  0.00  0.00     0.000 OA
ATOM     51   O  SUS B   3      24.928  24.149  19.9160  0.00  0.00     0.000 OA
ATOM     52   O  SUS B   3      22.505  23.963  20.0770  0.00  0.00     0.000 OA
ENDBRANCH 42 49
BRANCH 43 53
ATOM     53   O  SUS B   3      23.585  20.817  17.6580  0.00  0.00     0.000 O
ATOM     54   S  SUS B   3      22.725  21.532  16.4530  0.00  0.00     0.000 S
ATOM     55   O  SUS B   3      22.094  22.719  17.0120  0.00  0.00     0.000 OA
ATOM     56   O  SUS B   3      23.719  21.821  15.4350  0.00  0.00     0.000 OA
ATOM     57   O  SUS B   3      21.724  20.553  16.0210  0.00  0.00     0.000 OA
ENDBRANCH 43 53
BRANCH 45 58
ATOM     58   C  SUS B   3      22.880  16.616  20.1990  0.00  0.00     0.000 C
ATOM     59   S  SUS B   3      24.678  15.073  21.1860  0.00  0.00     0.000 S
ATOM     60   O  SUS B   3      24.024  16.510  21.0630  0.00  0.00     0.000 O
ATOM     61   O  SUS B   3      25.456  14.906  19.9730  0.00  0.00     0.000 OA
ATOM     62   O  SUS B   3      25.499  15.252  22.3530  0.00  0.00     0.000 OA
ATOM     63   O  SUS B   3      23.591  14.172  21.3400  0.00  0.00     0.000 OA
ENDBRANCH 45 58
BRANCH 41 64
ATOM     64  O4  IDS B   4      21.035  20.394  21.2880  0.00  0.00     0.000 O
BRANCH 64 68
ATOM     65  C1  IDS B   4      18.186  20.940  23.4930  0.00  0.00     0.000 C
ATOM     66  C2  IDS B   4      19.614  21.161  24.0070  0.00  0.00     0.000 C
ATOM     67  C3  IDS B   4      20.587  20.048  23.6560  0.00  0.00     0.000 C
ATOM     68  C4  IDS B   4      20.397  19.521  22.2460  0.00  0.00     0.000 C
ATOM     69  C5  IDS B   4      18.892  19.342  22.0030  0.00  0.00     0.000 C
ATOM     70  O5  IDS B   4      18.243  20.610  22.1170  0.00  0.00     0.000 O
ATOM     71   O  IDS B   4      20.385  19.005  24.5870  0.00  0.00     0.000 O
ATOM     73  HD  IDS B   4      20.327  19.816  24.2880  0.00  0.00     0.000 HD
BRANCH 66 73
ATOM     73   O  IDS B   4      20.161  22.371  23.3780  0.00  0.00     0.000 O
ATOM     74   S  IDS B   4      20.703  23.550  24.3450  0.00  0.00     0.000 S
ATOM     75   O  IDS B   4      19.601  23.908  25.2120  0.00  0.00     0.000 OA
ATOM     76   O  IDS B   4      21.059  24.573  23.3950  0.00  0.00     0.000 OA
ATOM     77   O  IDS B   4      21.825  22.981  25.0540  0.00  0.00     0.000 OA
ENDBRANCH 66 73
BRANCH 69 78
ATOM     78   C  IDS B   4      18.546  18.613  20.7120  0.00  0.00     0.000 C
ATOM     79   O  IDS B   4      19.281  17.701  20.3330  0.00  0.00     0.000 OA
ATOM     80   O  IDS B   4      17.477  18.890  20.1390  0.00  0.00     0.000 OA
ENDBRANCH 69 78
BRANCH 65 81
ATOM     81  O4  SGN B   5      17.542  20.060  24.3090  0.00  0.00     0.000 O
BRANCH 81 85
ATOM     82  C1  SGN B   5      13.797  19.048  25.9170  0.00  0.00     0.000 C
ATOM     83  C2  SGN B   5      13.991  18.828  24.4090  0.00  0.00     0.000 C
ATOM     84  C3  SGN B   5      15.491  18.796  24.0840  0.00  0.00     0.000 C
ATOM     85  C4  SGN B   5      16.141  20.071  24.5900  0.00  0.00     0.000 C
ATOM     86  C5  SGN B   5      15.902  20.167  26.0950  0.00  0.00     0.000 C
ATOM     87  O5  SGN B   5      14.482  20.213  26.3350  0.00  0.00     0.000 O
ATOM     88   O  SGN B   5      15.677  18.651  22.6930  0.00  0.00     0.000 O
ATOM     90  HD  SGN B   5      15.755  18.018  23.2790  0.00  0.00     0.000 HD
BRANCH 83 92
ATOM     90   N  SGN B   5      12.533  18.621  24.5110  0.00  0.00     0.000 N
ATOM     92  HD  SGN B   5      12.131  19.353  24.7420  0.00  0.00     0.000 HD
ATOM     92   S  SGN B   5      11.810  17.788  23.3550  0.00  0.00     0.000 S
ATOM     93   O  SGN B   5      10.431  17.774  23.7380  0.00  0.00     0.000 OA
ATOM     94   O  SGN B   5      12.204  18.401  22.1330  0.00  0.00     0.000 OA
ATOM     95   O  SGN B   5      12.457  16.421  23.4040  0.00  0.00     0.000 OA
ENDBRANCH 83 92
BRANCH 86 96
ATOM     96   C  SGN B   5      16.509  21.393  26.7440  0.00  0.00     0.000 C
ATOM     97   O  SGN B   5      15.494  22.196  27.3510  0.00  0.00     0.000 O
ATOM     98   S  SGN B   5      15.747  22.622  28.8760  0.00  0.00     0.000 S
ATOM     99   O  SGN B   5      14.684  23.565  29.1240  0.00  0.00     0.000 OA
ATOM    100   O  SGN B   5      15.689  21.443  29.6630  0.00  0.00     0.000 OA
ATOM    101   O  SGN B   5      17.043  23.220  28.8660  0.00  0.00     0.000 OA
ENDBRANCH 86 96
BRANCH 82 102
ATOM    102  O4  IDS B   6      14.189  17.974  26.6580  0.00  0.00     0.000 O
BRANCH 102 106
ATOM    103  C1  IDS B   6      13.741  15.984  29.6740  0.00  0.00     0.000 C
ATOM    104  C2  IDS B   6      12.582  16.813  29.1000  0.00  0.00     0.000 C
ATOM    105  C3  IDS B   6      12.934  18.240  28.7280  0.00  0.00     0.000 C
ATOM    106  C4  IDS B   6      14.291  18.353  28.0550  0.00  0.00     0.000 C
ATOM    107  C5  IDS B   6      15.306  17.470  28.7860  0.00  0.00     0.000 C
ATOM    108  O5  IDS B   6      14.882  16.107  28.8460  0.00  0.00     0.000 O
ATOM    109   O  IDS B   6      12.891  19.028  29.9070  0.00  0.00     0.000 O
ATOM    111  HD  IDS B   6      13.004  18.454  30.5450  0.00  0.00     0.000 HD
BRANCH 104 111
ATOM    111   O  IDS B   6      12.119  16.189  27.8520  0.00  0.00     0.000 O
ATOM    112   S  IDS B   6      10.694  16.632  27.2720  0.00  0.00     0.000 S
ATOM    113   O  IDS B   6       9.753  16.322  28.3370  0.00  0.00     0.000 OA
ATOM    114   O  IDS B   6      10.761  18.052  26.9080  0.00  0.00     0.000 OA
ATOM    115   O  IDS B   6      10.614  15.735  26.1390  0.00  0.00     0.000 OA
ENDBRANCH 104 111
BRANCH 107 116
ATOM    116   C  IDS B   6      16.653  17.561  28.0810  0.00  0.00     0.000 C
ATOM    117   O  IDS B   6      16.812  16.852  27.1200  0.00  0.00     0.000 OA
ATOM    118   O  IDS B   6      17.530  18.311  28.4810  0.00  0.00     0.000 OA
ENDBRANCH 107 116
BRANCH 103 119
ATOM    119  O4  SGN B   7      13.777  16.345  30.9830  0.00  0.00     0.000 O
BRANCH 119 123
ATOM    120  C1  SGN B   7      15.021  14.606  34.5780  0.00  0.00     0.000 C
ATOM    121  C2  SGN B   7      16.102  14.924  33.5270  0.00  0.00     0.000 C
ATOM    122  C3  SGN B   7      15.559  15.900  32.4750  0.00  0.00     0.000 C
ATOM    123  C4  SGN B   7      14.269  15.353  31.8850  0.00  0.00     0.000 C
ATOM    124  C5  SGN B   7      13.262  15.063  33.0100  0.00  0.00     0.000 C
ATOM    125  O5  SGN B   7      13.814  14.141  33.9760  0.00  0.00     0.000 O
ATOM    126   O  SGN B   7      16.554  16.095  31.4640  0.00  0.00     0.000 O
ATOM    128  HD  SGN B   7      16.349  15.776  32.2420  0.00  0.00     0.000 HD
BRANCH 121 130
ATOM    128   N  SGN B   7      17.161  14.022  33.9870  0.00  0.00     0.000 N
ATOM    130  HD  SGN B   7      17.611  14.170  33.2620  0.00  0.00     0.000 HD
ATOM    130   S  SGN B   7      18.589  14.564  34.4990  0.00  0.00     0.000 S
ATOM    131   O  SGN B   7      18.284  15.573  35.4540  0.00  0.00     0.000 OA
ATOM    132   O  SGN B   7      19.385  13.448  34.8640  0.00  0.00     0.000 OA
ATOM    133   O  SGN B   7      19.201  15.061  33.1460  0.00  0.00     0.000 OA
ENDBRANCH 121 130
BRANCH 124 134
ATOM    134   C  SGN B   7      11.996  14.411  32.5380  0.00  0.00     0.000 C
ATOM    135   O  SGN B   7      10.981  15.421  32.4090  0.00  0.00     0.000 O
ATOM    136   S  SGN B   7       9.617  14.966  31.7770  0.00  0.00     0.000 S
ATOM    137   O  SGN B   7       8.736  16.107  31.8480  0.00  0.00     0.000 OA
ATOM    138   O  SGN B   7       9.173  13.859  32.5940  0.00  0.00     0.000 OA
ATOM    139   O  SGN B   7      10.005  14.600  30.4240  0.00  0.00     0.000 OA
ENDBRANCH 124 134
BRANCH 120 140
ATOM    140  O4  IDS B   8      14.495  15.429  35.4920  0.00  0.00     0.000 O
BRANCH 140 144
ATOM    141  C1  IDS B   8      14.725  15.962  39.0450  0.00  0.00     0.000 C
ATOM    142  C2  IDS B   8      14.804  14.530  38.4440  0.00  0.00     0.000 C
ATOM    143  C3  IDS B   8      13.681  14.236  37.4320  0.00  0.00     0.000 C
ATOM    144  C4  IDS B   8      13.453  15.405  36.4750  0.00  0.00     0.000 C
ATOM    145  C5  IDS B   8      13.431  16.730  37.2530  0.00  0.00     0.000 C
ATOM    146  O5  IDS B   8      14.629  16.922  38.0000  0.00  0.00     0.000 O
BRANCH 142 147
ATOM    147   O  IDS B   8      16.096  14.363  37.7280  0.00  0.00     0.000 O
ATOM    148   S  IDS B   8      16.922  12.969  37.8060  0.00  0.00     0.000 S
ATOM    149   O  IDS B   8      16.398  12.211  38.9190  0.00  0.00     0.000 OA
ATOM    150   O  IDS B   8      16.700  12.317  36.5280  0.00  0.00     0.000 OA
ATOM    151   O  IDS B   8      18.304  13.355  38.0160  0.00  0.00     0.000 OA
ENDBRANCH 142 147
BRANCH 145 152
ATOM    152   C  IDS B   8      13.306  17.937  36.3460  0.00  0.00     0.000 C
ATOM    153   O  IDS B   8      12.623  17.862  35.3300  0.00  0.00     0.000 OA
ATOM    154   O  IDS B   8      13.869  18.975  36.6450  0.00  0.00     0.000 OA
ENDBRANCH 145 152
ENDBRANCH 140 144
ENDBRANCH 120 140
ENDBRANCH 119 123
ENDBRANCH 103 119
ENDBRANCH 102 106
ENDBRANCH 82 102
ENDBRANCH 81 85
ENDBRANCH 65 81
ENDBRANCH 64 68
ENDBRANCH 41 64
ENDBRANCH 40 44
ENDBRANCH 24 40
ENDBRANCH 23 27
ENDBRANCH 1 23
TORSDOF 31
ENDMDL
MODEL 37
REMARK VINA RESULT:      -7.1      3.335      5.056
ROOT
ATOM      1  C1  SGN B   1      28.830  10.332  13.8690  0.00  0.00     0.000 C
ATOM      2  C2  SGN B   1      30.224  10.475  14.5040  0.00  0.00     0.000 C
ATOM      3  C3  SGN B   1      31.312  10.003  13.5340  0.00  0.00     0.000 C
ATOM      4  C4  SGN B   1      31.034   8.572  13.0860  0.00  0.00     0.000 C
ATOM      5  C5  SGN B   1      29.589   8.474  12.6000  0.00  0.00     0.000 C
ATOM      6  O5  SGN B   1      28.701   8.936  13.6360  0.00  0.00     0.000 O
ATOM      7   O  SGN B   1      32.596  10.095  14.1400  0.00  0.00     0.000 O
ATOM      9  HD  SGN B   1      32.194   9.536  14.6640  0.00  0.00     0.000 HD
ATOM      9   O  SGN B   1      31.924   8.224  12.0420  0.00  0.00     0.000 O
ATOM     11  HD  SGN B   1      31.522   7.665  12.5660  0.00  0.00     0.000 HD
ENDROOT
BRANCH 2 13
ATOM     11   N  SGN B   1      29.748  11.021  15.7890  0.00  0.00     0.000 N
ATOM     13  HD  SGN B   1      29.630  11.462  15.0530  0.00  0.00     0.000 HD
ATOM     13   S  SGN B   1      29.623  12.603  16.0570  0.00  0.00     0.000 S
ATOM     14   O  SGN B   1      29.976  13.322  14.8950  0.00  0.00     0.000 OA
ATOM     15   O  SGN B   1      28.368  12.856  16.6820  0.00  0.00     0.000 OA
ATOM     16   O  SGN B   1      30.720  12.730  17.1580  0.00  0.00     0.000 OA
ENDBRANCH 2 13
BRANCH 5 17
ATOM     17   C  SGN B   1      29.159   7.075  12.2310  0.00  0.00     0.000 C
ATOM     18   O  SGN B   1      29.775   6.102  13.0980  0.00  0.00     0.000 O
ATOM     19   S  SGN B   1      30.389   4.812  12.3800  0.00  0.00     0.000 S
ATOM     20   O  SGN B   1      30.722   3.905  13.4580  0.00  0.00     0.000 OA
ATOM     21   O  SGN B   1      29.319   4.337  11.5330  0.00  0.00     0.000 OA
ATOM     22   O  SGN B   1      31.542   5.297  11.6540  0.00  0.00     0.000 OA
ENDBRANCH 5 17
BRANCH 1 23
ATOM     23  O4  IDS B   2      27.941  11.035  13.1120  0.00  0.00     0.000 O
BRANCH 23 27
ATOM     24  C1  IDS B   2      25.392  13.725  14.9830  0.00  0.00     0.000 C
ATOM     25  C2  IDS B   2      25.000  12.237  15.1090  0.00  0.00     0.000 C
ATOM     26  C3  IDS B   2      26.141  11.331  14.6530  0.00  0.00     0.000 C
ATOM     27  C4  IDS B   2      26.637  11.639  13.2470  0.00  0.00     0.000 C
ATOM     28  C5  IDS B   2      26.612  13.162  13.0020  0.00  0.00     0.000 C
ATOM     29  O5  IDS B   2      26.604  13.874  14.2300  0.00  0.00     0.000 O
ATOM     30   O  IDS B   2      25.699   9.979  14.6660  0.00  0.00     0.000 O
ATOM     32  HD  IDS B   2      25.218   9.770  13.9760  0.00  0.00     0.000 HD
BRANCH 25 32
ATOM     32   O  IDS B   2      24.660  11.862  16.5040  0.00  0.00     0.000 O
ATOM     33   S  IDS B   2      23.213  11.170  16.8920  0.00  0.00     0.000 S
ATOM     34   O  IDS B   2      23.148  11.156  18.3450  0.00  0.00     0.000 OA
ATOM     35   O  IDS B   2      22.131  11.957  16.3190  0.00  0.00     0.000 OA
ATOM     36   O  IDS B   2      23.265   9.830  16.3550  0.00  0.00     0.000 OA
ENDBRANCH 25 32
BRANCH 28 37
ATOM     37   C  IDS B   2      27.708  13.764  12.0990  0.00  0.00     0.000 C
ATOM     38   O  IDS B   2      27.403  14.844  11.6510  0.00  0.00     0.000 OA
ATOM     39   O  IDS B   2      28.842  13.281  11.8630  0.00  0.00     0.000 OA
ENDBRANCH 28 37
BRANCH 24 40
ATOM     40  O4  SUS B   3      24.491  14.686  15.2740  0.00  0.00     0.000 O
BRANCH 40 44
ATOM     41  C1  SUS B   3      25.056  18.553  16.7790  0.00  0.00     0.000 C
ATOM     42  C2  SUS B   3      25.298  18.342  15.2710  0.00  0.00     0.000 C
ATOM     43  C3  SUS B   3      24.601  17.058  14.8260  0.00  0.00     0.000 C
ATOM     44  C4  SUS B   3      25.084  15.909  15.6960  0.00  0.00     0.000 C
ATOM     45  C5  SUS B   3      24.708  16.193  17.1360  0.00  0.00     0.000 C
ATOM     46  O5  SUS B   3      25.389  17.394  17.5510  0.00  0.00     0.000 O
BRANCH 42 49
ATOM     47   N  SUS B   3      24.920  19.648  14.7050  0.00  0.00     0.000 N
ATOM     49  HD  SUS B   3      24.239  19.656  14.1700  0.00  0.00     0.000 HD
ATOM     49   S  SUS B   3      26.141  20.378  13.9680  0.00  0.00     0.000 S
ATOM     50   O  SUS B   3      26.650  19.549  12.9480  0.00  0.00     0.000 OA
ATOM     51   O  SUS B   3      25.315  21.543  13.3640  0.00  0.00     0.000 OA
ATOM     52   O  SUS B   3      27.049  20.858  14.9320  0.00  0.00     0.000 OA
ENDBRANCH 42 49
BRANCH 43 53
ATOM     53   O  SUS B   3      24.965  16.808  13.4180  0.00  0.00     0.000 O
ATOM     54   S  SUS B   3      23.802  17.068  12.2850  0.00  0.00     0.000 S
ATOM     55   O  SUS B   3      23.601  18.507  12.1890  0.00  0.00     0.000 OA
ATOM     56   O  SUS B   3      24.346  16.471  11.0790  0.00  0.00     0.000 OA
ATOM     57   O  SUS B   3      22.593  16.394  12.7690  0.00  0.00     0.000 OA
ENDBRANCH 43 53
BRANCH 45 58
ATOM     58   C  SUS B   3      25.068  15.044  18.0530  0.00  0.00     0.000 C
ATOM     59   S  SUS B   3      24.682  14.137  20.4220  0.00  0.00     0.000 S
ATOM     60   O  SUS B   3      24.285  15.132  19.2560  0.00  0.00     0.000 O
ATOM     61   O  SUS B   3      25.864  14.718  21.0310  0.00  0.00     0.000 OA
ATOM     62   O  SUS B   3      23.519  14.233  21.2630  0.00  0.00     0.000 OA
ATOM     63   O  SUS B   3      24.878  12.877  19.7970  0.00  0.00     0.000 OA
ENDBRANCH 45 58
BRANCH 41 64
ATOM     64  O4  IDS B   4      23.827  19.090  17.0730  0.00  0.00     0.000 O
BRANCH 64 68
ATOM     65  C1  IDS B   4      21.353  21.188  18.7320  0.00  0.00     0.000 C
ATOM     66  C2  IDS B   4      22.646  21.805  18.1840  0.00  0.00     0.000 C
ATOM     67  C3  IDS B   4      23.907  21.034  18.5360  0.00  0.00     0.000 C
ATOM     68  C4  IDS B   4      23.725  19.531  18.4450  0.00  0.00     0.000 C
ATOM     69  C5  IDS B   4      22.386  19.171  19.1040  0.00  0.00     0.000 C
ATOM     70  O5  IDS B   4      21.324  19.813  18.3940  0.00  0.00     0.000 O
ATOM     71   O  IDS B   4      24.263  21.393  19.8560  0.00  0.00     0.000 O
ATOM     73  HD  IDS B   4      23.854  21.484  19.0980  0.00  0.00     0.000 HD
BRANCH 66 73
ATOM     73   O  IDS B   4      22.585  21.805  16.7160  0.00  0.00     0.000 O
ATOM     74   S  IDS B   4      22.572  23.235  15.9580  0.00  0.00     0.000 S
ATOM     75   O  IDS B   4      21.446  23.971  16.4920  0.00  0.00     0.000 OA
ATOM     76   O  IDS B   4      22.415  22.839  14.5810  0.00  0.00     0.000 OA
ATOM     77   O  IDS B   4      23.847  23.842  16.2600  0.00  0.00     0.000 OA
ENDBRANCH 66 73
BRANCH 69 78
ATOM     78   C  IDS B   4      22.157  17.678  19.2900  0.00  0.00     0.000 C
ATOM     79   O  IDS B   4      21.716  17.025  18.3450  0.00  0.00     0.000 OA
ATOM     80   O  IDS B   4      22.523  17.147  20.3550  0.00  0.00     0.000 OA
ENDBRANCH 69 78
BRANCH 65 81
ATOM     81  O4  SGN B   5      21.227  21.498  20.0520  0.00  0.00     0.000 O
BRANCH 81 85
ATOM     82  C1  SGN B   5      18.185  21.309  22.9420  0.00  0.00     0.000 C
ATOM     83  C2  SGN B   5      17.887  20.680  21.5730  0.00  0.00     0.000 C
ATOM     84  C3  SGN B   5      19.204  20.420  20.8290  0.00  0.00     0.000 C
ATOM     85  C4  SGN B   5      19.989  21.717  20.7320  0.00  0.00     0.000 C
ATOM     86  C5  SGN B   5      20.243  22.230  22.1470  0.00  0.00     0.000 C
ATOM     87  O5  SGN B   5      18.975  22.473  22.7860  0.00  0.00     0.000 O
ATOM     88   O  SGN B   5      18.936  19.895  19.5470  0.00  0.00     0.000 O
ATOM     90  HD  SGN B   5      19.193  19.435  20.2350  0.00  0.00     0.000 HD
BRANCH 83 92
ATOM     90   N  SGN B   5      17.003  19.598  22.0490  0.00  0.00     0.000 N
ATOM     92  HD  SGN B   5      17.121  19.450  22.8940  0.00  0.00     0.000 HD
ATOM     92   S  SGN B   5      15.478  19.609  21.5720  0.00  0.00     0.000 S
ATOM     93   O  SGN B   5      14.901  18.458  22.2000  0.00  0.00     0.000 OA
ATOM     94   O  SGN B   5      14.987  20.909  21.8770  0.00  0.00     0.000 OA
ATOM     95   O  SGN B   5      15.546  19.495  20.0640  0.00  0.00     0.000 OA
ENDBRANCH 83 92
BRANCH 86 96
ATOM     96   C  SGN B   5      21.033  23.521  22.2070  0.00  0.00     0.000 C
ATOM     97   O  SGN B   5      20.467  24.496  21.3280  0.00  0.00     0.000 O
ATOM     98   S  SGN B   5      20.172  25.937  21.9670  0.00  0.00     0.000 S
ATOM     99   O  SGN B   5      19.814  26.729  20.8150  0.00  0.00     0.000 OA
ATOM    100   O  SGN B   5      19.134  25.776  22.9210  0.00  0.00     0.000 OA
ATOM    101   O  SGN B   5      21.413  26.325  22.5560  0.00  0.00     0.000 OA
ENDBRANCH 86 96
BRANCH 82 102
ATOM    102  O4  IDS B   6      18.788  20.438  23.7990  0.00  0.00     0.000 O
BRANCH 102 106
ATOM    103  C1  IDS B   6      18.785  19.712  27.3670  0.00  0.00     0.000 C
ATOM    104  C2  IDS B   6      17.738  20.656  26.7570  0.00  0.00     0.000 C
ATOM    105  C3  IDS B   6      18.292  21.709  25.8160  0.00  0.00     0.000 C
ATOM    106  C4  IDS B   6      19.379  21.167  24.9050  0.00  0.00     0.000 C
ATOM    107  C5  IDS B   6      20.326  20.269  25.7060  0.00  0.00     0.000 C
ATOM    108  O5  IDS B   6      19.629  19.203  26.3520  0.00  0.00     0.000 O
ATOM    109   O  IDS B   6      18.781  22.786  26.5990  0.00  0.00     0.000 O
ATOM    111  HD  IDS B   6      18.937  22.428  27.3720  0.00  0.00     0.000 HD
BRANCH 104 111
ATOM    111   O  IDS B   6      16.797  19.868  25.9460  0.00  0.00     0.000 O
ATOM    112   S  IDS B   6      15.280  20.371  25.8510  0.00  0.00     0.000 S
ATOM    113   O  IDS B   6      14.816  20.397  27.2300  0.00  0.00     0.000 OA
ATOM    114   O  IDS B   6      15.264  21.673  25.1740  0.00  0.00     0.000 OA
ATOM    115   O  IDS B   6      14.724  19.291  25.0650  0.00  0.00     0.000 OA
ENDBRANCH 104 111
BRANCH 107 116
ATOM    116   C  IDS B   6      21.390  19.702  24.7760  0.00  0.00     0.000 C
ATOM    117   O  IDS B   6      21.337  18.521  24.5470  0.00  0.00     0.000 OA
ATOM    118   O  IDS B   6      22.259  20.414  24.2960  0.00  0.00     0.000 OA
ENDBRANCH 107 116
BRANCH 103 119
ATOM    119  O4  SGN B   7      19.285  20.420  28.4130  0.00  0.00     0.000 O
BRANCH 119 123
ATOM    120  C1  SGN B   7      20.655  19.544  32.2660  0.00  0.00     0.000 C
ATOM    121  C2  SGN B   7      21.663  19.429  31.1070  0.00  0.00     0.000 C
ATOM    122  C3  SGN B   7      21.137  20.155  29.8620  0.00  0.00     0.000 C
ATOM    123  C4  SGN B   7      19.746  19.646  29.5210  0.00  0.00     0.000 C
ATOM    124  C5  SGN B   7      18.820  19.797  30.7390  0.00  0.00     0.000 C
ATOM    125  O5  SGN B   7      19.354  19.098  31.8860  0.00  0.00     0.000 O
ATOM    126   O  SGN B   7      22.050  19.944  28.7790  0.00  0.00     0.000 O
ATOM    128  HD  SGN B   7      21.884  19.871  29.6260  0.00  0.00     0.000 HD
BRANCH 121 130
ATOM    128   N  SGN B   7      22.754  19.774  32.0220  0.00  0.00     0.000 N
ATOM    130  HD  SGN B   7      22.620  19.043  32.4680  0.00  0.00     0.000 HD
ATOM    130   S  SGN B   7      24.173  19.015  31.9920  0.00  0.00     0.000 S
ATOM    131   O  SGN B   7      24.581  19.042  30.6290  0.00  0.00     0.000 OA
ATOM    132   O  SGN B   7      25.000  19.575  32.9990  0.00  0.00     0.000 OA
ATOM    133   O  SGN B   7      23.756  17.615  32.5560  0.00  0.00     0.000 OA
ENDBRANCH 121 130
BRANCH 124 134
ATOM    134   C  SGN B   7      17.452  19.215  30.5380  0.00  0.00     0.000 C
ATOM    135   O  SGN B   7      17.594  17.849  30.1130  0.00  0.00     0.000 O
ATOM    136   S  SGN B   7      16.269  17.012  29.9950  0.00  0.00     0.000 S
ATOM    137   O  SGN B   7      16.648  15.726  29.4590  0.00  0.00     0.000 OA
ATOM    138   O  SGN B   7      15.422  17.769  29.1010  0.00  0.00     0.000 OA
ATOM    139   O  SGN B   7      15.804  16.967  31.3720  0.00  0.00     0.000 OA
ENDBRANCH 124 134
BRANCH 120 140
ATOM    140  O4  IDS B   8      20.308  20.640  32.9500  0.00  0.00     0.000 O
BRANCH 140 144
ATOM    141  C1  IDS B   8      19.430  24.081  33.5430  0.00  0.00     0.000 C
ATOM    142  C2  IDS B   8      20.499  23.700  32.4790  0.00  0.00     0.000 C
ATOM    143  C3  IDS B   8      21.554  22.712  33.0100  0.00  0.00     0.000 C
ATOM    144  C4  IDS B   8      20.925  21.588  33.8310  0.00  0.00     0.000 C
ATOM    145  C5  IDS B   8      19.882  22.161  34.8020  0.00  0.00     0.000 C
ATOM    146  O5  IDS B   8      18.876  22.903  34.1180  0.00  0.00     0.000 O
BRANCH 142 147
ATOM    147   O  IDS B   8      19.834  23.052  31.3190  0.00  0.00     0.000 O
ATOM    148   S  IDS B   8      19.546  23.877  29.9520  0.00  0.00     0.000 S
ATOM    149   O  IDS B   8      19.672  25.285  30.2560  0.00  0.00     0.000 OA
ATOM    150   O  IDS B   8      20.542  23.416  29.0040  0.00  0.00     0.000 OA
ATOM    151   O  IDS B   8      18.191  23.524  29.5720  0.00  0.00     0.000 OA
ENDBRANCH 142 147
BRANCH 145 152
ATOM    152   C  IDS B   8      19.150  21.082  35.5750  0.00  0.00     0.000 C
ATOM    153   O  IDS B   8      19.733  20.479  36.4700  0.00  0.00     0.000 OA
ATOM    154   O  IDS B   8      17.986  20.839  35.3140  0.00  0.00     0.000 OA
ENDBRANCH 145 152
ENDBRANCH 140 144
ENDBRANCH 120 140
ENDBRANCH 119 123
ENDBRANCH 103 119
ENDBRANCH 102 106
ENDBRANCH 82 102
ENDBRANCH 81 85
ENDBRANCH 65 81
ENDBRANCH 64 68
ENDBRANCH 41 64
ENDBRANCH 40 44
ENDBRANCH 24 40
ENDBRANCH 23 27
ENDBRANCH 1 23
TORSDOF 31
ENDMDL
MODEL 38
REMARK VINA RESULT:      -7.1      9.078     11.862
ROOT
ATOM      1  C1  SGN B   1      29.395  10.612  15.6220  0.00  0.00     0.000 C
ATOM      2  C2  SGN B   1      30.847  10.202  15.3280  0.00  0.00     0.000 C
ATOM      3  C3  SGN B   1      31.007   9.785  13.8620  0.00  0.00     0.000 C
ATOM      4  C4  SGN B   1      30.020   8.673  13.5200  0.00  0.00     0.000 C
ATOM      5  C5  SGN B   1      28.622   9.092  13.9680  0.00  0.00     0.000 C
ATOM      6  O5  SGN B   1      28.646   9.430  15.3680  0.00  0.00     0.000 O
ATOM      7   O  SGN B   1      32.342   9.364  13.6040  0.00  0.00     0.000 O
ATOM      9  HD  SGN B   1      32.090   8.793  14.2050  0.00  0.00     0.000 HD
ATOM      9   O  SGN B   1      30.037   8.443  12.1230  0.00  0.00     0.000 O
ATOM     11  HD  SGN B   1      29.785   7.872  12.7240  0.00  0.00     0.000 HD
ENDROOT
BRANCH 2 13
ATOM     11   N  SGN B   1      31.270  10.470  16.7150  0.00  0.00     0.000 N
ATOM     13  HD  SGN B   1      31.056  11.122  16.1860  0.00  0.00     0.000 HD
ATOM     13   S  SGN B   1      31.990  11.844  17.1440  0.00  0.00     0.000 S
ATOM     14   O  SGN B   1      32.086  12.709  16.0330  0.00  0.00     0.000 OA
ATOM     15   O  SGN B   1      31.386  12.313  18.3460  0.00  0.00     0.000 OA
ATOM     16   O  SGN B   1      33.382  11.256  17.5280  0.00  0.00     0.000 OA
ENDBRANCH 2 13
BRANCH 5 17
ATOM     17   C  SGN B   1      27.572   8.025  13.7820  0.00  0.00     0.000 C
ATOM     18   O  SGN B   1      26.420   8.551  13.0940  0.00  0.00     0.000 O
ATOM     19   S  SGN B   1      24.996   8.154  13.7040  0.00  0.00     0.000 S
ATOM     20   O  SGN B   1      24.030   8.595  12.7210  0.00  0.00     0.000 OA
ATOM     21   O  SGN B   1      25.062   6.718  13.8470  0.00  0.00     0.000 OA
ATOM     22   O  SGN B   1      24.912   8.866  14.9600  0.00  0.00     0.000 OA
ENDBRANCH 5 17
BRANCH 1 23
ATOM     23  O4  IDS B   2      28.587  11.710  15.6070  0.00  0.00     0.000 O
BRANCH 23 27
ATOM     24  C1  IDS B   2      26.011  14.830  14.6780  0.00  0.00     0.000 C
ATOM     25  C2  IDS B   2      25.341  13.555  15.2360  0.00  0.00     0.000 C
ATOM     26  C3  IDS B   2      26.381  12.600  15.8160  0.00  0.00     0.000 C
ATOM     27  C4  IDS B   2      27.489  12.241  14.8360  0.00  0.00     0.000 C
ATOM     28  C5  IDS B   2      27.849  13.468  13.9750  0.00  0.00     0.000 C
ATOM     29  O5  IDS B   2      27.434  14.670  14.6050  0.00  0.00     0.000 O
ATOM     30   O  IDS B   2      25.741  11.390  16.2040  0.00  0.00     0.000 O
ATOM     32  HD  IDS B   2      25.581  10.860  15.5390  0.00  0.00     0.000 HD
BRANCH 25 32
ATOM     32   O  IDS B   2      24.363  13.859  16.3100  0.00  0.00     0.000 O
ATOM     33   S  IDS B   2      22.776  13.424  16.1930  0.00  0.00     0.000 S
ATOM     34   O  IDS B   2      22.095  14.075  17.3010  0.00  0.00     0.000 OA
ATOM     35   O  IDS B   2      22.246  13.863  14.9110  0.00  0.00     0.000 OA
ATOM     36   O  IDS B   2      22.755  11.986  16.3340  0.00  0.00     0.000 OA
ENDBRANCH 25 32
BRANCH 28 37
ATOM     37   C  IDS B   2      29.319  13.633  13.5350  0.00  0.00     0.000 C
ATOM     38   O  IDS B   2      29.658  12.809  12.7200  0.00  0.00     0.000 OA
ATOM     39   O  IDS B   2      30.115  14.538  13.8860  0.00  0.00     0.000 OA
ENDBRANCH 28 37
BRANCH 24 40
ATOM     40  O4  SUS B   3      25.263  15.768  14.0610  0.00  0.00     0.000 O
BRANCH 40 44
ATOM     41  C1  SUS B   3      25.653  19.938  13.9990  0.00  0.00     0.000 C
ATOM     42  C2  SUS B   3      26.796  19.114  13.3740  0.00  0.00     0.000 C
ATOM     43  C3  SUS B   3      26.287  17.711  13.0520  0.00  0.00     0.000 C
ATOM     44  C4  SUS B   3      25.702  17.098  14.3150  0.00  0.00     0.000 C
ATOM     45  C5  SUS B   3      24.535  17.946  14.7760  0.00  0.00     0.000 C
ATOM     46  O5  SUS B   3      25.033  19.260  15.0980  0.00  0.00     0.000 O
BRANCH 42 49
ATOM     47   N  SUS B   3      27.765  20.173  13.7060  0.00  0.00     0.000 N
ATOM     49  HD  SUS B   3      27.435  20.935  13.9540  0.00  0.00     0.000 HD
ATOM     49   S  SUS B   3      28.811  20.445  12.5240  0.00  0.00     0.000 S
ATOM     50   O  SUS B   3      28.123  20.787  11.3430  0.00  0.00     0.000 OA
ATOM     51   O  SUS B   3      29.471  21.699  13.1540  0.00  0.00     0.000 OA
ATOM     52   O  SUS B   3      29.730  19.379  12.4600  0.00  0.00     0.000 OA
ENDBRANCH 42 49
BRANCH 43 53
ATOM     53   O  SUS B   3      27.434  16.906  12.5880  0.00  0.00     0.000 O
ATOM     54   S  SUS B   3      27.423  16.421  11.0180  0.00  0.00     0.000 S
ATOM     55   O  SUS B   3      27.658  17.600  10.1950  0.00  0.00     0.000 OA
ATOM     56   O  SUS B   3      28.487  15.436  10.9460  0.00  0.00     0.000 OA
ATOM     57   O  SUS B   3      26.094  15.856  10.7670  0.00  0.00     0.000 OA
ENDBRANCH 43 53
BRANCH 45 58
ATOM     58   C  SUS B   3      23.835  17.344  15.9750  0.00  0.00     0.000 C
ATOM     59   S  SUS B   3      23.835  17.345  18.5410  0.00  0.00     0.000 S
ATOM     60   O  SUS B   3      24.297  17.992  17.1720  0.00  0.00     0.000 O
ATOM     61   O  SUS B   3      24.690  16.187  18.7210  0.00  0.00     0.000 OA
ATOM     62   O  SUS B   3      24.142  18.411  19.4570  0.00  0.00     0.000 OA
ATOM     63   O  SUS B   3      22.453  17.062  18.3800  0.00  0.00     0.000 OA
ENDBRANCH 45 58
BRANCH 41 64
ATOM     64  O4  IDS B   4      24.768  20.444  13.0790  0.00  0.00     0.000 O
BRANCH 64 68
ATOM     65  C1  IDS B   4      22.977  23.472  12.1320  0.00  0.00     0.000 C
ATOM     66  C2  IDS B   4      24.120  23.538  13.1520  0.00  0.00     0.000 C
ATOM     67  C3  IDS B   4      24.062  22.470  14.2310  0.00  0.00     0.000 C
ATOM     68  C4  IDS B   4      23.645  21.113  13.6950  0.00  0.00     0.000 C
ATOM     69  C5  IDS B   4      22.460  21.320  12.7430  0.00  0.00     0.000 C
ATOM     70  O5  IDS B   4      22.871  22.144  11.6500  0.00  0.00     0.000 O
ATOM     71   O  IDS B   4      23.134  22.905  15.2030  0.00  0.00     0.000 O
ATOM     73  HD  IDS B   4      23.676  22.999  14.5330  0.00  0.00     0.000 HD
BRANCH 66 73
ATOM     73   O  IDS B   4      25.393  23.318  12.4510  0.00  0.00     0.000 O
ATOM     74   S  IDS B   4      26.476  24.519  12.4500  0.00  0.00     0.000 S
ATOM     75   O  IDS B   4      25.807  25.674  11.8910  0.00  0.00     0.000 OA
ATOM     76   O  IDS B   4      27.516  23.979  11.6100  0.00  0.00     0.000 OA
ATOM     77   O  IDS B   4      26.859  24.693  13.8310  0.00  0.00     0.000 OA
ENDBRANCH 66 73
BRANCH 69 78
ATOM     78   C  IDS B   4      21.783  20.032  12.2920  0.00  0.00     0.000 C
ATOM     79   O  IDS B   4      21.427  19.932  11.1180  0.00  0.00     0.000 OA
ATOM     80   O  IDS B   4      21.710  19.085  13.0950  0.00  0.00     0.000 OA
ENDBRANCH 69 78
BRANCH 65 81
ATOM     81  O4  SGN B   5      21.853  24.018  12.6750  0.00  0.00     0.000 O
BRANCH 81 85
ATOM     82  C1  SGN B   5      18.195  25.775  11.5920  0.00  0.00     0.000 C
ATOM     83  C2  SGN B   5      18.733  24.663  10.6790  0.00  0.00     0.000 C
ATOM     84  C3  SGN B   5      19.782  23.838  11.4370  0.00  0.00     0.000 C
ATOM     85  C4  SGN B   5      20.869  24.763  11.9550  0.00  0.00     0.000 C
ATOM     86  C5  SGN B   5      20.219  25.804  12.8640  0.00  0.00     0.000 C
ATOM     87  O5  SGN B   5      19.263  26.557  12.0940  0.00  0.00     0.000 O
ATOM     88   O  SGN B   5      20.322  22.850  10.5860  0.00  0.00     0.000 O
ATOM     90  HD  SGN B   5      19.723  22.714  11.1970  0.00  0.00     0.000 HD
BRANCH 83 92
ATOM     90   N  SGN B   5      17.445  24.996  10.0400  0.00  0.00     0.000 N
ATOM     92  HD  SGN B   5      17.325  25.853  10.0110  0.00  0.00     0.000 HD
ATOM     92   S  SGN B   5      17.041  24.210   8.7080  0.00  0.00     0.000 S
ATOM     93   O  SGN B   5      15.769  24.758   8.3450  0.00  0.00     0.000 OA
ATOM     94   O  SGN B   5      18.152  24.344   7.8300  0.00  0.00     0.000 OA
ATOM     95   O  SGN B   5      16.968  22.758   9.1260  0.00  0.00     0.000 OA
ENDBRANCH 83 92
BRANCH 86 96
ATOM     96   C  SGN B   5      21.193  26.795  13.4670  0.00  0.00     0.000 C
ATOM     97   O  SGN B   5      20.917  26.989  14.8560  0.00  0.00     0.000 O
ATOM     98   S  SGN B   5      22.165  26.837  15.8520  0.00  0.00     0.000 S
ATOM     99   O  SGN B   5      21.621  27.282  17.1130  0.00  0.00     0.000 OA
ATOM    100   O  SGN B   5      22.567  25.477  15.8270  0.00  0.00     0.000 OA
ATOM    101   O  SGN B   5      23.152  27.719  15.3200  0.00  0.00     0.000 OA
ENDBRANCH 86 96
BRANCH 82 102
ATOM    102  O4  IDS B   6      17.439  25.291  12.6180  0.00  0.00     0.000 O
BRANCH 102 106
ATOM    103  C1  IDS B   6      14.317  24.792  14.4250  0.00  0.00     0.000 C
ATOM    104  C2  IDS B   6      14.361  24.699  12.8920  0.00  0.00     0.000 C
ATOM    105  C3  IDS B   6      15.100  25.829  12.2000  0.00  0.00     0.000 C
ATOM    106  C4  IDS B   6      16.374  26.226  12.9250  0.00  0.00     0.000 C
ATOM    107  C5  IDS B   6      16.115  26.280  14.4340  0.00  0.00     0.000 C
ATOM    108  O5  IDS B   6      15.615  25.039  14.9330  0.00  0.00     0.000 O
ATOM    109   O  IDS B   6      14.217  26.933  12.0910  0.00  0.00     0.000 O
ATOM    111  HD  IDS B   6      13.635  26.797  12.7170  0.00  0.00     0.000 HD
BRANCH 104 111
ATOM    111   O  IDS B   6      15.076  23.473  12.5060  0.00  0.00     0.000 O
ATOM    112   S  IDS B   6      14.279  22.369  11.6650  0.00  0.00     0.000 S
ATOM    113   O  IDS B   6      13.145  22.016  12.5060  0.00  0.00     0.000 OA
ATOM    114   O  IDS B   6      13.920  22.947  10.3640  0.00  0.00     0.000 OA
ATOM    115   O  IDS B   6      15.299  21.346  11.5950  0.00  0.00     0.000 OA
ENDBRANCH 104 111
BRANCH 107 116
ATOM    116   C  IDS B   6      17.407  26.644  15.1540  0.00  0.00     0.000 C
ATOM    117   O  IDS B   6      17.838  27.753  14.9650  0.00  0.00     0.000 OA
ATOM    118   O  IDS B   6      17.977  25.844  15.8790  0.00  0.00     0.000 OA
ENDBRANCH 107 116
BRANCH 103 119
ATOM    119  O4  SGN B   7      13.290  25.647  14.6660  0.00  0.00     0.000 O
BRANCH 119 123
ATOM    120  C1  SGN B   7      10.164  25.834  17.4370  0.00  0.00     0.000 C
ATOM    121  C2  SGN B   7      11.453  26.612  17.7630  0.00  0.00     0.000 C
ATOM    122  C3  SGN B   7      12.316  26.774  16.5050  0.00  0.00     0.000 C
ATOM    123  C4  SGN B   7      12.560  25.415  15.8710  0.00  0.00     0.000 C
ATOM    124  C5  SGN B   7      11.218  24.719  15.5920  0.00  0.00     0.000 C
ATOM    125  O5  SGN B   7      10.440  24.586  16.8030  0.00  0.00     0.000 O
ATOM    126   O  SGN B   7      13.547  27.412  16.8630  0.00  0.00     0.000 O
ATOM    128  HD  SGN B   7      12.746  27.176  17.0940  0.00  0.00     0.000 HD
BRANCH 121 130
ATOM    128   N  SGN B   7      10.934  26.813  19.1180  0.00  0.00     0.000 N
ATOM    130  HD  SGN B   7      11.734  26.744  19.4420  0.00  0.00     0.000 HD
ATOM    130   S  SGN B   7      11.162  28.184  19.9310  0.00  0.00     0.000 S
ATOM    131   O  SGN B   7      10.761  29.217  19.0380  0.00  0.00     0.000 OA
ATOM    132   O  SGN B   7      10.547  28.056  21.2030  0.00  0.00     0.000 OA
ATOM    133   O  SGN B   7      12.698  28.085  20.2230  0.00  0.00     0.000 OA
ENDBRANCH 121 130
BRANCH 124 134
ATOM    134   C  SGN B   7      11.356  23.319  15.0710  0.00  0.00     0.000 C
ATOM    135   O  SGN B   7      10.375  22.490  15.7170  0.00  0.00     0.000 O
ATOM    136   S  SGN B   7      10.253  21.013  15.1960  0.00  0.00     0.000 S
ATOM    137   O  SGN B   7       9.295  20.358  16.0540  0.00  0.00     0.000 OA
ATOM    138   O  SGN B   7      11.584  20.461  15.3110  0.00  0.00     0.000 OA
ATOM    139   O  SGN B   7       9.794  21.201  13.8290  0.00  0.00     0.000 OA
ENDBRANCH 124 134
BRANCH 120 140
ATOM    140  O4  IDS B   8       9.133  26.229  16.6810  0.00  0.00     0.000 O
BRANCH 140 144
ATOM    141  C1  IDS B   8       7.482  27.811  13.9010  0.00  0.00     0.000 C
ATOM    142  C2  IDS B   8       8.762  28.432  14.5300  0.00  0.00     0.000 C
ATOM    143  C3  IDS B   8       8.696  28.526  16.0650  0.00  0.00     0.000 C
ATOM    144  C4  IDS B   8       8.131  27.253  16.6940  0.00  0.00     0.000 C
ATOM    145  C5  IDS B   8       6.890  26.786  15.9190  0.00  0.00     0.000 C
ATOM    146  O5  IDS B   8       7.177  26.577  14.5390  0.00  0.00     0.000 O
BRANCH 142 147
ATOM    147   O  IDS B   8       9.939  27.589  14.1910  0.00  0.00     0.000 O
ATOM    148   S  IDS B   8      10.907  27.967  12.9450  0.00  0.00     0.000 S
ATOM    149   O  IDS B   8      10.201  28.915  12.1130  0.00  0.00     0.000 OA
ATOM    150   O  IDS B   8      12.105  28.526  13.5410  0.00  0.00     0.000 OA
ATOM    151   O  IDS B   8      11.146  26.713  12.2550  0.00  0.00     0.000 OA
ENDBRANCH 142 147
BRANCH 145 152
ATOM    152   C  IDS B   8       6.341  25.471  16.4350  0.00  0.00     0.000 C
ATOM    153   O  IDS B   8       6.024  25.370  17.6150  0.00  0.00     0.000 OA
ATOM    154   O  IDS B   8       6.202  24.535  15.6680  0.00  0.00     0.000 OA
ENDBRANCH 145 152
ENDBRANCH 140 144
ENDBRANCH 120 140
ENDBRANCH 119 123
ENDBRANCH 103 119
ENDBRANCH 102 106
ENDBRANCH 82 102
ENDBRANCH 81 85
ENDBRANCH 65 81
ENDBRANCH 64 68
ENDBRANCH 41 64
ENDBRANCH 40 44
ENDBRANCH 24 40
ENDBRANCH 23 27
ENDBRANCH 1 23
TORSDOF 31
ENDMDL
MODEL 39
REMARK VINA RESULT:      -7.1      3.220      5.813
ROOT
ATOM      1  C1  SGN B   1      28.353  16.766  13.2670  0.00  0.00     0.000 C
ATOM      2  C2  SGN B   1      28.372  16.225  11.8270  0.00  0.00     0.000 C
ATOM      3  C3  SGN B   1      27.969  14.747  11.7970  0.00  0.00     0.000 C
ATOM      4  C4  SGN B   1      28.870  13.937  12.7230  0.00  0.00     0.000 C
ATOM      5  C5  SGN B   1      28.915  14.611  14.0920  0.00  0.00     0.000 C
ATOM      6  O5  SGN B   1      29.329  15.982  13.9410  0.00  0.00     0.000 O
ATOM      7   O  SGN B   1      28.031  14.239  10.4700  0.00  0.00     0.000 O
ATOM      9  HD  SGN B   1      28.853  14.474  10.6070  0.00  0.00     0.000 HD
ATOM      9   O  SGN B   1      28.361  12.621  12.8420  0.00  0.00     0.000 O
ATOM     11  HD  SGN B   1      29.183  12.856  12.9790  0.00  0.00     0.000 HD
ENDROOT
BRANCH 2 13
ATOM     11   N  SGN B   1      28.780  17.406  11.0420  0.00  0.00     0.000 N
ATOM     13  HD  SGN B   1      28.116  17.454  11.5960  0.00  0.00     0.000 HD
ATOM     13   S  SGN B   1      27.741  18.562  10.6270  0.00  0.00     0.000 S
ATOM     14   O  SGN B   1      26.466  18.285  11.1640  0.00  0.00     0.000 OA
ATOM     15   O  SGN B   1      28.348  19.825  10.8820  0.00  0.00     0.000 OA
ATOM     16   O  SGN B   1      27.767  18.342   9.0830  0.00  0.00     0.000 OA
ENDBRANCH 2 13
BRANCH 5 17
ATOM     17   C  SGN B   1      29.865  13.960  15.0670  0.00  0.00     0.000 C
ATOM     18   O  SGN B   1      30.820  13.128  14.3780  0.00  0.00     0.000 O
ATOM     19   S  SGN B   1      31.078  11.683  15.0120  0.00  0.00     0.000 S
ATOM     20   O  SGN B   1      32.220  11.158  14.2940  0.00  0.00     0.000 OA
ATOM     21   O  SGN B   1      31.346  11.953  16.4060  0.00  0.00     0.000 OA
ATOM     22   O  SGN B   1      29.857  10.945  14.7790  0.00  0.00     0.000 OA
ENDBRANCH 5 17
BRANCH 1 23
ATOM     23  O4  IDS B   2      27.509  17.360  14.1570  0.00  0.00     0.000 O
BRANCH 23 27
ATOM     24  C1  IDS B   2      24.373  17.765  16.8470  0.00  0.00     0.000 C
ATOM     25  C2  IDS B   2      24.414  16.433  16.0660  0.00  0.00     0.000 C
ATOM     26  C3  IDS B   2      25.747  16.266  15.3410  0.00  0.00     0.000 C
ATOM     27  C4  IDS B   2      26.094  17.436  14.4300  0.00  0.00     0.000 C
ATOM     28  C5  IDS B   2      25.639  18.760  15.0760  0.00  0.00     0.000 C
ATOM     29  O5  IDS B   2      25.471  18.610  16.4770  0.00  0.00     0.000 O
ATOM     30   O  IDS B   2      25.699  15.094  14.5360  0.00  0.00     0.000 O
ATOM     32  HD  IDS B   2      25.274  15.209  13.7910  0.00  0.00     0.000 HD
BRANCH 25 32
ATOM     32   O  IDS B   2      24.235  15.257  16.9520  0.00  0.00     0.000 O
ATOM     33   S  IDS B   2      22.933  14.252  16.8150  0.00  0.00     0.000 S
ATOM     34   O  IDS B   2      22.979  13.370  17.9700  0.00  0.00     0.000 OA
ATOM     35   O  IDS B   2      21.711  15.043  16.7990  0.00  0.00     0.000 OA
ATOM     36   O  IDS B   2      23.132  13.521  15.5850  0.00  0.00     0.000 OA
ENDBRANCH 25 32
BRANCH 28 37
ATOM     37   C  IDS B   2      26.495  20.017  14.8210  0.00  0.00     0.000 C
ATOM     38   O  IDS B   2      27.057  20.410  15.8170  0.00  0.00     0.000 OA
ATOM     39   O  IDS B   2      26.692  20.587  13.7200  0.00  0.00     0.000 OA
ENDBRANCH 28 37
BRANCH 24 40
ATOM     40  O4  SUS B   3      23.249  18.128  17.4990  0.00  0.00     0.000 O
BRANCH 40 44
ATOM     41  C1  SUS B   3      22.753  20.230  21.0880  0.00  0.00     0.000 C
ATOM     42  C2  SUS B   3      23.308  21.015  19.8830  0.00  0.00     0.000 C
ATOM     43  C3  SUS B   3      22.973  20.263  18.5960  0.00  0.00     0.000 C
ATOM     44  C4  SUS B   3      23.501  18.842  18.7050  0.00  0.00     0.000 C
ATOM     45  C5  SUS B   3      22.815  18.151  19.8660  0.00  0.00     0.000 C
ATOM     46  O5  SUS B   3      23.158  18.857  21.0750  0.00  0.00     0.000 O
BRANCH 42 49
ATOM     47   N  SUS B   3      23.930  21.936  20.8490  0.00  0.00     0.000 N
ATOM     49  HD  SUS B   3      23.602  21.935  21.6510  0.00  0.00     0.000 HD
ATOM     49   S  SUS B   3      23.963  23.450  20.3270  0.00  0.00     0.000 S
ATOM     50   O  SUS B   3      22.654  23.884  20.0330  0.00  0.00     0.000 OA
ATOM     51   O  SUS B   3      24.466  24.085  21.6490  0.00  0.00     0.000 OA
ATOM     52   O  SUS B   3      24.934  23.574  19.3140  0.00  0.00     0.000 OA
ENDBRANCH 42 49
BRANCH 43 53
ATOM     53   O  SUS B   3      23.635  20.961  17.4770  0.00  0.00     0.000 O
ATOM     54   S  SUS B   3      22.664  21.627  16.3290  0.00  0.00     0.000 S
ATOM     55   O  SUS B   3      22.010  22.782  16.9280  0.00  0.00     0.000 OA
ATOM     56   O  SUS B   3      23.575  21.963  15.2500  0.00  0.00     0.000 OA
ATOM     57   O  SUS B   3      21.689  20.596  15.9620  0.00  0.00     0.000 OA
ENDBRANCH 43 53
BRANCH 45 58
ATOM     58   C  SUS B   3      23.216  16.696  19.9770  0.00  0.00     0.000 C
ATOM     59   S  SUS B   3      25.036  15.156  20.9270  0.00  0.00     0.000 S
ATOM     60   O  SUS B   3      24.344  16.579  20.8600  0.00  0.00     0.000 O
ATOM     61   O  SUS B   3      25.843  15.070  19.7250  0.00  0.00     0.000 OA
ATOM     62   O  SUS B   3      25.828  15.299  22.1190  0.00  0.00     0.000 OA
ATOM     63   O  SUS B   3      23.971  14.220  21.0130  0.00  0.00     0.000 OA
ENDBRANCH 45 58
BRANCH 41 64
ATOM     64  O4  IDS B   4      21.409  20.418  21.3000  0.00  0.00     0.000 O
BRANCH 64 68
ATOM     65  C1  IDS B   4      18.831  21.115  23.7780  0.00  0.00     0.000 C
ATOM     66  C2  IDS B   4      20.306  21.381  24.1030  0.00  0.00     0.000 C
ATOM     67  C3  IDS B   4      21.246  20.249  23.7230  0.00  0.00     0.000 C
ATOM     68  C4  IDS B   4      20.899  19.617  22.3880  0.00  0.00     0.000 C
ATOM     69  C5  IDS B   4      19.379  19.413  22.3370  0.00  0.00     0.000 C
ATOM     70  O5  IDS B   4      18.731  20.684  22.4330  0.00  0.00     0.000 O
ATOM     71   O  IDS B   4      21.167  19.277  24.7460  0.00  0.00     0.000 O
ATOM     73  HD  IDS B   4      21.064  20.063  24.3970  0.00  0.00     0.000 HD
BRANCH 66 73
ATOM     73   O  IDS B   4      20.760  22.543  23.3270  0.00  0.00     0.000 O
ATOM     74   S  IDS B   4      21.203  23.870  24.1380  0.00  0.00     0.000 S
ATOM     75   O  IDS B   4      20.071  24.246  24.9590  0.00  0.00     0.000 OA
ATOM     76   O  IDS B   4      21.483  24.793  23.0670  0.00  0.00     0.000 OA
ATOM     77   O  IDS B   4      22.362  23.484  24.9070  0.00  0.00     0.000 OA
ENDBRANCH 66 73
BRANCH 69 78
ATOM     78   C  IDS B   4      18.894  18.588  21.1530  0.00  0.00     0.000 C
ATOM     79   O  IDS B   4      19.671  17.791  20.6300  0.00  0.00     0.000 OA
ATOM     80   O  IDS B   4      17.697  18.670  20.8200  0.00  0.00     0.000 OA
ENDBRANCH 69 78
BRANCH 65 81
ATOM     81  O4  SGN B   5      18.298  20.296  24.7260  0.00  0.00     0.000 O
BRANCH 81 85
ATOM     82  C1  SGN B   5      14.841  19.540  26.9880  0.00  0.00     0.000 C
ATOM     83  C2  SGN B   5      14.811  19.129  25.5090  0.00  0.00     0.000 C
ATOM     84  C3  SGN B   5      16.245  19.038  24.9710  0.00  0.00     0.000 C
ATOM     85  C4  SGN B   5      16.955  20.360  25.2100  0.00  0.00     0.000 C
ATOM     86  C5  SGN B   5      16.942  20.647  26.7090  0.00  0.00     0.000 C
ATOM     87  O5  SGN B   5      15.573  20.740  27.1500  0.00  0.00     0.000 O
ATOM     88   O  SGN B   5      16.223  18.717  23.5970  0.00  0.00     0.000 O
ATOM     90  HD  SGN B   5      16.392  18.162  24.2400  0.00  0.00     0.000 HD
BRANCH 83 92
ATOM     90   N  SGN B   5      13.473  18.715  25.9750  0.00  0.00     0.000 N
ATOM     92  HD  SGN B   5      13.102  19.339  26.4470  0.00  0.00     0.000 HD
ATOM     92   S  SGN B   5      12.504  17.990  24.9310  0.00  0.00     0.000 S
ATOM     93   O  SGN B   5      11.310  17.729  25.6770  0.00  0.00     0.000 OA
ATOM     94   O  SGN B   5      12.461  18.840  23.7900  0.00  0.00     0.000 OA
ATOM     95   O  SGN B   5      13.244  16.733  24.5290  0.00  0.00     0.000 OA
ENDBRANCH 83 92
BRANCH 86 96
ATOM     96   C  SGN B   5      17.630  21.938  27.0990  0.00  0.00     0.000 C
ATOM     97   O  SGN B   5      17.206  23.009  26.2540  0.00  0.00     0.000 O
ATOM     98   S  SGN B   5      16.708  24.341  26.9960  0.00  0.00     0.000 S
ATOM     99   O  SGN B   5      16.552  25.273  25.9060  0.00  0.00     0.000 OA
ATOM    100   O  SGN B   5      15.506  24.023  27.6800  0.00  0.00     0.000 OA
ATOM    101   O  SGN B   5      17.777  24.676  27.8790  0.00  0.00     0.000 OA
ENDBRANCH 86 96
BRANCH 82 102
ATOM    102  O4  IDS B   6      15.348  18.563  27.7930  0.00  0.00     0.000 O
BRANCH 102 106
ATOM    103  C1  IDS B   6      15.174  16.457  30.7580  0.00  0.00     0.000 C
ATOM    104  C2  IDS B   6      13.894  16.888  30.0240  0.00  0.00     0.000 C
ATOM    105  C3  IDS B   6      13.818  18.363  29.6770  0.00  0.00     0.000 C
ATOM    106  C4  IDS B   6      15.142  18.918  29.1840  0.00  0.00     0.000 C
ATOM    107  C5  IDS B   6      16.283  18.386  30.0570  0.00  0.00     0.000 C
ATOM    108  O5  IDS B   6      16.312  16.958  30.0840  0.00  0.00     0.000 O
ATOM    109   O  IDS B   6      13.374  19.064  30.8270  0.00  0.00     0.000 O
ATOM    111  HD  IDS B   6      13.581  18.540  31.4840  0.00  0.00     0.000 HD
BRANCH 104 111
ATOM    111   O  IDS B   6      13.820  16.182  28.7360  0.00  0.00     0.000 O
ATOM    112   S  IDS B   6      12.599  15.173  28.5010  0.00  0.00     0.000 S
ATOM    113   O  IDS B   6      12.717  14.198  29.5740  0.00  0.00     0.000 OA
ATOM    114   O  IDS B   6      11.351  15.945  28.5090  0.00  0.00     0.000 OA
ATOM    115   O  IDS B   6      12.967  14.661  27.1980  0.00  0.00     0.000 OA
ENDBRANCH 104 111
BRANCH 107 116
ATOM    116   C  IDS B   6      17.610  18.920  29.5320  0.00  0.00     0.000 C
ATOM    117   O  IDS B   6      18.019  19.939  30.0290  0.00  0.00     0.000 OA
ATOM    118   O  IDS B   6      18.219  18.346  28.6440  0.00  0.00     0.000 OA
ENDBRANCH 107 116
BRANCH 103 119
ATOM    119  O4  SGN B   7      14.923  16.776  32.0540  0.00  0.00     0.000 O
BRANCH 119 123
ATOM    120  C1  SGN B   7      16.185  15.432  35.8080  0.00  0.00     0.000 C
ATOM    121  C2  SGN B   7      17.138  16.353  35.0230  0.00  0.00     0.000 C
ATOM    122  C3  SGN B   7      16.386  17.066  33.8920  0.00  0.00     0.000 C
ATOM    123  C4  SGN B   7      15.668  16.043  33.0280  0.00  0.00     0.000 C
ATOM    124  C5  SGN B   7      14.750  15.173  33.9020  0.00  0.00     0.000 C
ATOM    125  O5  SGN B   7      15.500  14.520  34.9510  0.00  0.00     0.000 O
ATOM    126   O  SGN B   7      17.320  17.834  33.1240  0.00  0.00     0.000 O
ATOM    128  HD  SGN B   7      17.162  17.366  33.8350  0.00  0.00     0.000 HD
BRANCH 121 130
ATOM    128   N  SGN B   7      17.696  16.753  36.3170  0.00  0.00     0.000 N
ATOM    130  HD  SGN B   7      18.092  15.986  36.3920  0.00  0.00     0.000 HD
ATOM    130   S  SGN B   7      19.253  17.116  36.5070  0.00  0.00     0.000 S
ATOM    131   O  SGN B   7      19.544  18.055  35.4780  0.00  0.00     0.000 OA
ATOM    132   O  SGN B   7      19.470  17.453  37.8670  0.00  0.00     0.000 OA
ATOM    133   O  SGN B   7      19.895  15.697  36.3430  0.00  0.00     0.000 OA
ENDBRANCH 121 130
BRANCH 124 134
ATOM    134   C  SGN B   7      14.083  14.055  33.1560  0.00  0.00     0.000 C
ATOM    135   O  SGN B   7      14.728  12.819  33.5090  0.00  0.00     0.000 O
ATOM    136   S  SGN B   7      14.075  11.505  32.9500  0.00  0.00     0.000 S
ATOM    137   O  SGN B   7      14.944  10.421  33.3430  0.00  0.00     0.000 OA
ATOM    138   O  SGN B   7      14.018  11.690  31.5180  0.00  0.00     0.000 OA
ATOM    139   O  SGN B   7      12.779  11.493  33.6090  0.00  0.00     0.000 OA
ENDBRANCH 124 134
BRANCH 120 140
ATOM    140  O4  IDS B   8      15.165  15.784  36.5970  0.00  0.00     0.000 O
BRANCH 140 144
ATOM    141  C1  IDS B   8      12.415  17.284  38.3730  0.00  0.00     0.000 C
ATOM    142  C2  IDS B   8      13.852  17.870  38.4820  0.00  0.00     0.000 C
ATOM    143  C3  IDS B   8      14.919  16.799  38.7790  0.00  0.00     0.000 C
ATOM    144  C4  IDS B   8      14.717  15.541  37.9370  0.00  0.00     0.000 C
ATOM    145  C5  IDS B   8      13.235  15.137  37.9330  0.00  0.00     0.000 C
ATOM    146  O5  IDS B   8      12.403  16.194  37.4600  0.00  0.00     0.000 O
BRANCH 142 147
ATOM    147   O  IDS B   8      14.223  18.515  37.1960  0.00  0.00     0.000 O
ATOM    148   S  IDS B   8      15.138  19.855  37.1660  0.00  0.00     0.000 S
ATOM    149   O  IDS B   8      15.130  20.421  38.4960  0.00  0.00     0.000 OA
ATOM    150   O  IDS B   8      16.457  19.413  36.7520  0.00  0.00     0.000 OA
ATOM    151   O  IDS B   8      14.502  20.730  36.2010  0.00  0.00     0.000 OA
ENDBRANCH 142 147
BRANCH 145 152
ATOM    152   C  IDS B   8      12.955  13.951  37.0330  0.00  0.00     0.000 C
ATOM    153   O  IDS B   8      13.540  12.892  37.2300  0.00  0.00     0.000 OA
ATOM    154   O  IDS B   8      12.138  14.056  36.1360  0.00  0.00     0.000 OA
ENDBRANCH 145 152
ENDBRANCH 140 144
ENDBRANCH 120 140
ENDBRANCH 119 123
ENDBRANCH 103 119
ENDBRANCH 102 106
ENDBRANCH 82 102
ENDBRANCH 81 85
ENDBRANCH 65 81
ENDBRANCH 64 68
ENDBRANCH 41 64
ENDBRANCH 40 44
ENDBRANCH 24 40
ENDBRANCH 23 27
ENDBRANCH 1 23
TORSDOF 31
ENDMDL
MODEL 40
REMARK VINA RESULT:      -7.1     11.103     16.443
ROOT
ATOM      1  C1  SGN B   1      29.497  10.751  15.6460  0.00  0.00     0.000 C
ATOM      2  C2  SGN B   1      30.961  10.354  15.3970  0.00  0.00     0.000 C
ATOM      3  C3  SGN B   1      31.174   9.954  13.9330  0.00  0.00     0.000 C
ATOM      4  C4  SGN B   1      30.207   8.840  13.5460  0.00  0.00     0.000 C
ATOM      5  C5  SGN B   1      28.792   9.244  13.9500  0.00  0.00     0.000 C
ATOM      6  O5  SGN B   1      28.766   9.567  15.3540  0.00  0.00     0.000 O
ATOM      7   O  SGN B   1      32.520   9.545  13.7170  0.00  0.00     0.000 O
ATOM      9  HD  SGN B   1      32.251   8.966  14.3020  0.00  0.00     0.000 HD
ATOM      9   O  SGN B   1      30.273   8.625  12.1480  0.00  0.00     0.000 O
ATOM     11  HD  SGN B   1      30.005   8.046  12.7330  0.00  0.00     0.000 HD
ENDROOT
BRANCH 2 13
ATOM     11   N  SGN B   1      31.416  10.578  16.7830  0.00  0.00     0.000 N
ATOM     13  HD  SGN B   1      31.124  11.237  16.3030  0.00  0.00     0.000 HD
ATOM     13   S  SGN B   1      32.030  11.983  17.2690  0.00  0.00     0.000 S
ATOM     14   O  SGN B   1      32.005  12.916  16.2110  0.00  0.00     0.000 OA
ATOM     15   O  SGN B   1      31.437  12.325  18.5180  0.00  0.00     0.000 OA
ATOM     16   O  SGN B   1      33.483  11.501  17.5660  0.00  0.00     0.000 OA
ENDBRANCH 2 13
BRANCH 5 17
ATOM     17   C  SGN B   1      27.756   8.172  13.7170  0.00  0.00     0.000 C
ATOM     18   O  SGN B   1      26.556   8.732  13.1480  0.00  0.00     0.000 O
ATOM     19   S  SGN B   1      25.178   8.238  13.7930  0.00  0.00     0.000 S
ATOM     20   O  SGN B   1      24.148   8.747  12.9120  0.00  0.00     0.000 OA
ATOM     21   O  SGN B   1      25.283   6.797  13.7880  0.00  0.00     0.000 OA
ATOM     22   O  SGN B   1      25.150   8.822  15.1160  0.00  0.00     0.000 OA
ENDBRANCH 5 17
BRANCH 1 23
ATOM     23  O4  IDS B   2      28.682  11.843  15.6150  0.00  0.00     0.000 O
BRANCH 23 27
ATOM     24  C1  IDS B   2      25.930  14.841  14.7970  0.00  0.00     0.000 C
ATOM     25  C2  IDS B   2      25.334  13.509  15.3030  0.00  0.00     0.000 C
ATOM     26  C3  IDS B   2      26.427  12.595  15.8500  0.00  0.00     0.000 C
ATOM     27  C4  IDS B   2      27.556  12.339  14.8600  0.00  0.00     0.000 C
ATOM     28  C5  IDS B   2      27.846  13.618  14.0490  0.00  0.00     0.000 C
ATOM     29  O5  IDS B   2      27.360  14.768  14.7240  0.00  0.00     0.000 O
ATOM     30   O  IDS B   2      25.859  11.335  16.1880  0.00  0.00     0.000 O
ATOM     32  HD  IDS B   2      25.732  10.822  15.5020  0.00  0.00     0.000 HD
BRANCH 25 32
ATOM     32   O  IDS B   2      24.339  13.714  16.3840  0.00  0.00     0.000 O
ATOM     33   S  IDS B   2      22.823  13.065  16.3080  0.00  0.00     0.000 S
ATOM     34   O  IDS B   2      22.075  13.654  17.4070  0.00  0.00     0.000 OA
ATOM     35   O  IDS B   2      22.223  13.388  15.0210  0.00  0.00     0.000 OA
ATOM     36   O  IDS B   2      22.998  11.643  16.4920  0.00  0.00     0.000 OA
ENDBRANCH 25 32
BRANCH 28 37
ATOM     37   C  IDS B   2      29.304  13.885  13.6220  0.00  0.00     0.000 C
ATOM     38   O  IDS B   2      29.772  14.868  14.1470  0.00  0.00     0.000 OA
ATOM     39   O  IDS B   2      30.015  13.172  12.8730  0.00  0.00     0.000 OA
ENDBRANCH 28 37
BRANCH 24 40
ATOM     40  O4  SUS B   3      25.129  15.757  14.2130  0.00  0.00     0.000 O
BRANCH 40 44
ATOM     41  C1  SUS B   3      25.467  19.928  14.0280  0.00  0.00     0.000 C
ATOM     42  C2  SUS B   3      26.571  19.100  13.3400  0.00  0.00     0.000 C
ATOM     43  C3  SUS B   3      26.056  17.685  13.0880  0.00  0.00     0.000 C
ATOM     44  C4  SUS B   3      25.571  17.097  14.4040  0.00  0.00     0.000 C
ATOM     45  C5  SUS B   3      24.430  17.945  14.9290  0.00  0.00     0.000 C
ATOM     46  O5  SUS B   3      24.936  19.271  15.1830  0.00  0.00     0.000 O
BRANCH 42 49
ATOM     47   N  SUS B   3      26.994  19.914  12.1870  0.00  0.00     0.000 N
ATOM     49  HD  SUS B   3      26.897  19.556  11.4050  0.00  0.00     0.000 HD
ATOM     49   S  SUS B   3      28.505  20.430  12.3160  0.00  0.00     0.000 S
ATOM     50   O  SUS B   3      29.376  19.331  12.4640  0.00  0.00     0.000 OA
ATOM     51   O  SUS B   3      28.614  21.024  10.8880  0.00  0.00     0.000 OA
ATOM     52   O  SUS B   3      28.569  21.450  13.2850  0.00  0.00     0.000 OA
ENDBRANCH 42 49
BRANCH 43 53
ATOM     53   O  SUS B   3      27.175  16.880  12.5610  0.00  0.00     0.000 O
ATOM     54   S  SUS B   3      27.067  16.380  10.9990  0.00  0.00     0.000 S
ATOM     55   O  SUS B   3      27.245  17.551  10.1520  0.00  0.00     0.000 OA
ATOM     56   O  SUS B   3      28.129  15.398  10.8710  0.00  0.00     0.000 OA
ATOM     57   O  SUS B   3      25.728  15.807  10.8380  0.00  0.00     0.000 OA
ENDBRANCH 43 53
BRANCH 45 58
ATOM     58   C  SUS B   3      23.826  17.365  16.1890  0.00  0.00     0.000 C
ATOM     59   S  SUS B   3      23.133  17.981  18.5820  0.00  0.00     0.000 S
ATOM     60   O  SUS B   3      23.565  18.425  17.1240  0.00  0.00     0.000 O
ATOM     61   O  SUS B   3      24.363  17.576  19.2350  0.00  0.00     0.000 OA
ATOM     62   O  SUS B   3      22.613  19.220  19.0950  0.00  0.00     0.000 OA
ATOM     63   O  SUS B   3      22.174  16.950  18.3970  0.00  0.00     0.000 OA
ENDBRANCH 45 58
BRANCH 41 64
ATOM     64  O4  IDS B   4      24.512  20.404  13.1630  0.00  0.00     0.000 O
BRANCH 64 68
ATOM     65  C1  IDS B   4      22.252  22.679  11.4330  0.00  0.00     0.000 C
ATOM     66  C2  IDS B   4      23.766  22.771  11.2040  0.00  0.00     0.000 C
ATOM     67  C3  IDS B   4      24.597  22.738  12.4750  0.00  0.00     0.000 C
ATOM     68  C4  IDS B   4      24.077  21.741  13.4940  0.00  0.00     0.000 C
ATOM     69  C5  IDS B   4      22.551  21.886  13.5680  0.00  0.00     0.000 C
ATOM     70  O5  IDS B   4      21.987  21.582  12.2900  0.00  0.00     0.000 O
ATOM     71   O  IDS B   4      24.574  24.039  13.0250  0.00  0.00     0.000 O
ATOM     73  HD  IDS B   4      24.477  23.446  12.4020  0.00  0.00     0.000 HD
BRANCH 66 73
ATOM     73   O  IDS B   4      24.198  21.604  10.4230  0.00  0.00     0.000 O
ATOM     74   S  IDS B   4      24.913  21.868   8.9960  0.00  0.00     0.000 S
ATOM     75   O  IDS B   4      23.987  22.660   8.2140  0.00  0.00     0.000 OA
ATOM     76   O  IDS B   4      25.098  20.526   8.5040  0.00  0.00     0.000 OA
ATOM     77   O  IDS B   4      26.141  22.563   9.3030  0.00  0.00     0.000 OA
ENDBRANCH 66 73
BRANCH 69 78
ATOM     78   C  IDS B   4      21.899  21.108  14.7030  0.00  0.00     0.000 C
ATOM     79   O  IDS B   4      21.416  20.003  14.4610  0.00  0.00     0.000 OA
ATOM     80   O  IDS B   4      21.971  21.567  15.8580  0.00  0.00     0.000 OA
ENDBRANCH 69 78
BRANCH 65 81
ATOM     81  O4  SGN B   5      21.779  23.894  11.8270  0.00  0.00     0.000 O
BRANCH 81 85
ATOM     82  C1  SGN B   5      18.134  25.865  12.5120  0.00  0.00     0.000 C
ATOM     83  C2  SGN B   5      18.982  25.517  13.7450  0.00  0.00     0.000 C
ATOM     84  C3  SGN B   5      20.429  25.246  13.3130  0.00  0.00     0.000 C
ATOM     85  C4  SGN B   5      20.440  24.157  12.2540  0.00  0.00     0.000 C
ATOM     86  C5  SGN B   5      19.589  24.624  11.0760  0.00  0.00     0.000 C
ATOM     87  O5  SGN B   5      18.242  24.843  11.5380  0.00  0.00     0.000 O
ATOM     88   O  SGN B   5      21.202  24.871  14.4320  0.00  0.00     0.000 O
ATOM     90  HD  SGN B   5      21.201  25.654  14.0620  0.00  0.00     0.000 HD
BRANCH 83 92
ATOM     90   N  SGN B   5      17.728  25.667  14.5090  0.00  0.00     0.000 N
ATOM     92  HD  SGN B   5      17.264  24.937  14.4910  0.00  0.00     0.000 HD
ATOM     92   S  SGN B   5      17.799  26.389  15.9340  0.00  0.00     0.000 S
ATOM     93   O  SGN B   5      16.448  26.369  16.4080  0.00  0.00     0.000 OA
ATOM     94   O  SGN B   5      18.819  25.712  16.6590  0.00  0.00     0.000 OA
ATOM     95   O  SGN B   5      18.306  27.783  15.6340  0.00  0.00     0.000 OA
ENDBRANCH 83 92
BRANCH 86 96
ATOM     96   C  SGN B   5      19.518  23.636   9.9310  0.00  0.00     0.000 C
ATOM     97   O  SGN B   5      18.855  22.438  10.3420  0.00  0.00     0.000 O
ATOM     98   S  SGN B   5      17.661  21.932   9.3980  0.00  0.00     0.000 S
ATOM     99   O  SGN B   5      17.347  20.636   9.9490  0.00  0.00     0.000 OA
ATOM    100   O  SGN B   5      16.613  22.885   9.4880  0.00  0.00     0.000 OA
ATOM    101   O  SGN B   5      18.242  21.867   8.0960  0.00  0.00     0.000 OA
ENDBRANCH 86 96
BRANCH 82 102
ATOM    102  O4  IDS B   6      18.464  27.072  11.9720  0.00  0.00     0.000 O
BRANCH 102 106
ATOM    103  C1  IDS B   6      17.978  30.522  10.9130  0.00  0.00     0.000 C
ATOM    104  C2  IDS B   6      17.712  30.101  12.3670  0.00  0.00     0.000 C
ATOM    105  C3  IDS B   6      16.885  28.840  12.5300  0.00  0.00     0.000 C
ATOM    106  C4  IDS B   6      17.263  27.758  11.5340  0.00  0.00     0.000 C
ATOM    107  C5  IDS B   6      17.464  28.378  10.1480  0.00  0.00     0.000 C
ATOM    108  O5  IDS B   6      18.446  29.415  10.1660  0.00  0.00     0.000 O
ATOM    109   O  IDS B   6      15.517  29.190  12.3990  0.00  0.00     0.000 O
ATOM    111  HD  IDS B   6      15.533  29.927  11.9460  0.00  0.00     0.000 HD
BRANCH 104 111
ATOM    111   O  IDS B   6      18.996  29.812  13.0240  0.00  0.00     0.000 O
ATOM    112   S  IDS B   6      19.578  30.895  14.0490  0.00  0.00     0.000 S
ATOM    113   O  IDS B   6      19.709  32.111  13.2610  0.00  0.00     0.000 OA
ATOM    114   O  IDS B   6      18.658  30.999  15.1880  0.00  0.00     0.000 OA
ATOM    115   O  IDS B   6      20.840  30.262  14.3670  0.00  0.00     0.000 OA
ENDBRANCH 104 111
BRANCH 107 116
ATOM    116   C  IDS B   6      17.878  27.291   9.1650  0.00  0.00     0.000 C
ATOM    117   O  IDS B   6      18.995  27.361   8.7180  0.00  0.00     0.000 OA
ATOM    118   O  IDS B   6      17.108  26.400   8.8420  0.00  0.00     0.000 OA
ENDBRANCH 107 116
BRANCH 103 119
ATOM    119  O4  SGN B   7      16.848  31.186  10.5590  0.00  0.00     0.000 O
BRANCH 119 123
ATOM    120  C1  SGN B   7      15.881  34.483   8.1750  0.00  0.00     0.000 C
ATOM    121  C2  SGN B   7      16.286  33.180   7.4600  0.00  0.00     0.000 C
ATOM    122  C3  SGN B   7      16.212  31.991   8.4260  0.00  0.00     0.000 C
ATOM    123  C4  SGN B   7      17.030  32.290   9.6720  0.00  0.00     0.000 C
ATOM    124  C5  SGN B   7      16.555  33.608  10.3050  0.00  0.00     0.000 C
ATOM    125  O5  SGN B   7      16.643  34.699   9.3620  0.00  0.00     0.000 O
ATOM    126   O  SGN B   7      16.689  30.817   7.7580  0.00  0.00     0.000 O
ATOM    128  HD  SGN B   7      16.443  31.646   7.7040  0.00  0.00     0.000 HD
BRANCH 121 130
ATOM    128   N  SGN B   7      16.629  33.775   6.1660  0.00  0.00     0.000 N
ATOM    130  HD  SGN B   7      17.035  33.047   5.9300  0.00  0.00     0.000 HD
ATOM    130   S  SGN B   7      15.906  33.331   4.7970  0.00  0.00     0.000 S
ATOM    131   O  SGN B   7      14.511  33.399   5.0730  0.00  0.00     0.000 OA
ATOM    132   O  SGN B   7      16.464  34.083   3.7330  0.00  0.00     0.000 OA
ATOM    133   O  SGN B   7      16.501  31.893   4.6200  0.00  0.00     0.000 OA
ENDBRANCH 121 130
BRANCH 124 134
ATOM    134   C  SGN B   7      17.379  34.049  11.4790  0.00  0.00     0.000 C
ATOM    135   O  SGN B   7      17.591  35.468  11.3820  0.00  0.00     0.000 O
ATOM    136   S  SGN B   7      18.306  36.154  12.6010  0.00  0.00     0.000 S
ATOM    137   O  SGN B   7      18.499  37.536  12.2330  0.00  0.00     0.000 OA
ATOM    138   O  SGN B   7      19.549  35.435  12.7640  0.00  0.00     0.000 OA
ATOM    139   O  SGN B   7      17.348  35.955  13.6770  0.00  0.00     0.000 OA
ENDBRANCH 124 134
BRANCH 120 140
ATOM    140  O4  IDS B   8      14.673  34.827   8.6360  0.00  0.00     0.000 O
BRANCH 140 144
ATOM    141  C1  IDS B   8      11.487  34.485  10.2760  0.00  0.00     0.000 C
ATOM    142  C2  IDS B   8      12.087  33.316   9.4430  0.00  0.00     0.000 C
ATOM    143  C3  IDS B   8      12.583  33.759   8.0540  0.00  0.00     0.000 C
ATOM    144  C4  IDS B   8      13.361  35.072   8.1150  0.00  0.00     0.000 C
ATOM    145  C5  IDS B   8      12.622  36.085   9.0020  0.00  0.00     0.000 C
ATOM    146  O5  IDS B   8      12.400  35.574  10.3140  0.00  0.00     0.000 O
BRANCH 142 147
ATOM    147   O  IDS B   8      13.253  32.741  10.1640  0.00  0.00     0.000 O
ATOM    148   S  IDS B   8      13.104  31.392  11.0520  0.00  0.00     0.000 S
ATOM    149   O  IDS B   8      11.694  31.176  11.2890  0.00  0.00     0.000 OA
ATOM    150   O  IDS B   8      13.707  30.338  10.2580  0.00  0.00     0.000 OA
ATOM    151   O  IDS B   8      13.825  31.662  12.2810  0.00  0.00     0.000 OA
ENDBRANCH 142 147
BRANCH 145 152
ATOM    152   C  IDS B   8      13.395  37.376   9.1820  0.00  0.00     0.000 C
ATOM    153   O  IDS B   8      13.687  38.048   8.1990  0.00  0.00     0.000 OA
ATOM    154   O  IDS B   8      13.700  37.743  10.3020  0.00  0.00     0.000 OA
ENDBRANCH 145 152
ENDBRANCH 140 144
ENDBRANCH 120 140
ENDBRANCH 119 123
ENDBRANCH 103 119
ENDBRANCH 102 106
ENDBRANCH 82 102
ENDBRANCH 81 85
ENDBRANCH 65 81
ENDBRANCH 64 68
ENDBRANCH 41 64
ENDBRANCH 40 44
ENDBRANCH 24 40
ENDBRANCH 23 27
ENDBRANCH 1 23
TORSDOF 31
ENDMDL
MODEL 41
REMARK VINA RESULT:      -7.1      2.722      4.441
ROOT
ATOM      1  C1  SGN B   1      28.361  10.766  14.5080  0.00  0.00     0.000 C
ATOM      2  C2  SGN B   1      29.680  10.272  15.1230  0.00  0.00     0.000 C
ATOM      3  C3  SGN B   1      30.299   9.165  14.2620  0.00  0.00     0.000 C
ATOM      4  C4  SGN B   1      29.300   8.030  14.0650  0.00  0.00     0.000 C
ATOM      5  C5  SGN B   1      27.971   8.612  13.5890  0.00  0.00     0.000 C
ATOM      6  O5  SGN B   1      27.524   9.618  14.5190  0.00  0.00     0.000 O
ATOM      7   O  SGN B   1      31.497   8.679  14.8570  0.00  0.00     0.000 O
ATOM      9  HD  SGN B   1      30.909   8.494  15.4660  0.00  0.00     0.000 HD
ATOM      9   O  SGN B   1      29.805   7.118  13.1070  0.00  0.00     0.000 O
ATOM     11  HD  SGN B   1      29.218   6.933  13.7170  0.00  0.00     0.000 HD
ENDROOT
BRANCH 2 13
ATOM     11   N  SGN B   1      29.545  11.234  16.2330  0.00  0.00     0.000 N
ATOM     13  HD  SGN B   1      29.756  11.506  15.4380  0.00  0.00     0.000 HD
ATOM     13   S  SGN B   1      30.365  12.617  16.2760  0.00  0.00     0.000 S
ATOM     14   O  SGN B   1      31.144  12.756  15.1080  0.00  0.00     0.000 OA
ATOM     15   O  SGN B   1      29.470  13.660  16.6490  0.00  0.00     0.000 OA
ATOM     16   O  SGN B   1      31.256  12.309  17.5190  0.00  0.00     0.000 OA
ENDBRANCH 2 13
BRANCH 5 17
ATOM     17   C  SGN B   1      26.865   7.593  13.4640  0.00  0.00     0.000 C
ATOM     18   O  SGN B   1      25.824   8.069  12.5870  0.00  0.00     0.000 O
ATOM     19   S  SGN B   1      24.324   7.862  13.1010  0.00  0.00     0.000 S
ATOM     20   O  SGN B   1      23.489   8.195  11.9670  0.00  0.00     0.000 OA
ATOM     21   O  SGN B   1      24.268   6.467  13.4710  0.00  0.00     0.000 OA
ATOM     22   O  SGN B   1      24.178   8.773  14.2160  0.00  0.00     0.000 OA
ENDBRANCH 5 17
BRANCH 1 23
ATOM     23  O4  IDS B   2      27.892  11.699  13.6300  0.00  0.00     0.000 O
BRANCH 23 27
ATOM     24  C1  IDS B   2      25.997  14.956  15.3710  0.00  0.00     0.000 C
ATOM     25  C2  IDS B   2      25.099  13.729  15.0980  0.00  0.00     0.000 C
ATOM     26  C3  IDS B   2      25.939  12.506  14.7430  0.00  0.00     0.000 C
ATOM     27  C4  IDS B   2      26.896  12.742  13.5820  0.00  0.00     0.000 C
ATOM     28  C5  IDS B   2      27.467  14.172  13.6520  0.00  0.00     0.000 C
ATOM     29  O5  IDS B   2      27.348  14.702  14.9640  0.00  0.00     0.000 O
ATOM     30   O  IDS B   2      25.077  11.435  14.3780  0.00  0.00     0.000 O
ATOM     32  HD  IDS B   2      24.775  11.500  13.5690  0.00  0.00     0.000 HD
BRANCH 25 32
ATOM     32   O  IDS B   2      24.263  13.374  16.2710  0.00  0.00     0.000 O
ATOM     33   S  IDS B   2      22.622  13.549  16.2560  0.00  0.00     0.000 S
ATOM     34   O  IDS B   2      22.179  13.324  17.6230  0.00  0.00     0.000 OA
ATOM     35   O  IDS B   2      22.282  14.889  15.8000  0.00  0.00     0.000 OA
ATOM     36   O  IDS B   2      22.128  12.523  15.3670  0.00  0.00     0.000 OA
ENDBRANCH 25 32
BRANCH 28 37
ATOM     37   C  IDS B   2      28.914  14.395  13.1680  0.00  0.00     0.000 C
ATOM     38   O  IDS B   2      29.468  15.299  13.7490  0.00  0.00     0.000 OA
ATOM     39   O  IDS B   2      29.540  13.713  12.3200  0.00  0.00     0.000 OA
ENDBRANCH 28 37
BRANCH 24 40
ATOM     40  O4  SUS B   3      25.437  16.155  15.6350  0.00  0.00     0.000 O
BRANCH 40 44
ATOM     41  C1  SUS B   3      26.804  19.291  18.0520  0.00  0.00     0.000 C
ATOM     42  C2  SUS B   3      27.367  19.209  16.6180  0.00  0.00     0.000 C
ATOM     43  C3  SUS B   3      26.438  18.351  15.7620  0.00  0.00     0.000 C
ATOM     44  C4  SUS B   3      26.258  16.999  16.4350  0.00  0.00     0.000 C
ATOM     45  C5  SUS B   3      25.616  17.207  17.7910  0.00  0.00     0.000 C
ATOM     46  O5  SUS B   3      26.513  18.000  18.5960  0.00  0.00     0.000 O
BRANCH 42 49
ATOM     47   N  SUS B   3      27.605  20.615  16.2500  0.00  0.00     0.000 N
ATOM     49  HD  SUS B   3      27.158  20.918  15.5730  0.00  0.00     0.000 HD
ATOM     49   S  SUS B   3      29.155  20.936  16.0080  0.00  0.00     0.000 S
ATOM     50   O  SUS B   3      29.670  20.090  15.0050  0.00  0.00     0.000 OA
ATOM     51   O  SUS B   3      28.957  22.374  15.4620  0.00  0.00     0.000 OA
ATOM     52   O  SUS B   3      29.826  20.962  17.2470  0.00  0.00     0.000 OA
ENDBRANCH 42 49
BRANCH 43 53
ATOM     53   O  SUS B   3      27.072  18.174  14.4410  0.00  0.00     0.000 O
ATOM     54   S  SUS B   3      26.360  18.921  13.1620  0.00  0.00     0.000 S
ATOM     55   O  SUS B   3      26.593  20.351  13.3080  0.00  0.00     0.000 OA
ATOM     56   O  SUS B   3      27.012  18.336  12.0050  0.00  0.00     0.000 OA
ATOM     57   O  SUS B   3      24.930  18.606  13.2400  0.00  0.00     0.000 OA
ENDBRANCH 43 53
BRANCH 45 58
ATOM     58   C  SUS B   3      25.313  15.896  18.4820  0.00  0.00     0.000 C
ATOM     59   S  SUS B   3      24.447  14.914  20.6900  0.00  0.00     0.000 S
ATOM     60   O  SUS B   3      24.648  16.158  19.7300  0.00  0.00     0.000 O
ATOM     61   O  SUS B   3      25.741  14.701  21.3100  0.00  0.00     0.000 OA
ATOM     62   O  SUS B   3      23.471  15.439  21.6060  0.00  0.00     0.000 OA
ATOM     63   O  SUS B   3      23.992  13.859  19.8550  0.00  0.00     0.000 OA
ENDBRANCH 45 58
BRANCH 41 64
ATOM     64  O4  IDS B   4      25.788  20.204  18.1950  0.00  0.00     0.000 O
BRANCH 64 68
ATOM     65  C1  IDS B   4      23.640  22.549  19.9740  0.00  0.00     0.000 C
ATOM     66  C2  IDS B   4      25.143  22.495  20.2780  0.00  0.00     0.000 C
ATOM     67  C3  IDS B   4      25.696  21.091  20.4610  0.00  0.00     0.000 C
ATOM     68  C4  IDS B   4      25.119  20.096  19.4710  0.00  0.00     0.000 C
ATOM     69  C5  IDS B   4      23.604  20.329  19.3880  0.00  0.00     0.000 C
ATOM     70  O5  IDS B   4      23.357  21.654  18.9130  0.00  0.00     0.000 O
ATOM     71   O  IDS B   4      25.387  20.687  21.7790  0.00  0.00     0.000 O
ATOM     73  HD  IDS B   4      25.499  21.256  21.1360  0.00  0.00     0.000 HD
BRANCH 66 73
ATOM     73   O  IDS B   4      25.877  23.059  19.1370  0.00  0.00     0.000 O
ATOM     74   S  IDS B   4      26.992  24.191  19.4390  0.00  0.00     0.000 S
ATOM     75   O  IDS B   4      26.316  25.252  20.1540  0.00  0.00     0.000 OA
ATOM     76   O  IDS B   4      27.412  24.555  18.1090  0.00  0.00     0.000 OA
ATOM     77   O  IDS B   4      28.009  23.532  20.2230  0.00  0.00     0.000 OA
ENDBRANCH 66 73
BRANCH 69 78
ATOM     78   C  IDS B   4      22.847  19.267  18.6030  0.00  0.00     0.000 C
ATOM     79   O  IDS B   4      22.495  18.241  19.1840  0.00  0.00     0.000 OA
ATOM     80   O  IDS B   4      22.515  19.518  17.4300  0.00  0.00     0.000 OA
ENDBRANCH 69 78
BRANCH 65 81
ATOM     81  O4  SGN B   5      22.938  22.375  21.1280  0.00  0.00     0.000 O
BRANCH 81 85
ATOM     82  C1  SGN B   5      19.195  23.100  22.8880  0.00  0.00     0.000 C
ATOM     83  C2  SGN B   5      19.199  22.631  21.4260  0.00  0.00     0.000 C
ATOM     84  C3  SGN B   5      20.551  21.981  21.0990  0.00  0.00     0.000 C
ATOM     85  C4  SGN B   5      21.666  22.961  21.4150  0.00  0.00     0.000 C
ATOM     86  C5  SGN B   5      21.574  23.334  22.8920  0.00  0.00     0.000 C
ATOM     87  O5  SGN B   5      20.296  23.954  23.1330  0.00  0.00     0.000 O
ATOM     88   O  SGN B   5      20.583  21.599  19.7410  0.00  0.00     0.000 O
ATOM     90  HD  SGN B   5      20.449  21.065  20.4100  0.00  0.00     0.000 HD
BRANCH 83 92
ATOM     90   N  SGN B   5      17.755  22.728  21.7180  0.00  0.00     0.000 N
ATOM     92  HD  SGN B   5      17.576  23.448  22.1640  0.00  0.00     0.000 HD
ATOM     92   S  SGN B   5      16.726  22.385  20.5450  0.00  0.00     0.000 S
ATOM     93   O  SGN B   5      15.436  22.577  21.1370  0.00  0.00     0.000 OA
ATOM     94   O  SGN B   5      17.127  23.180  19.4350  0.00  0.00     0.000 OA
ATOM     95   O  SGN B   5      17.012  20.941  20.1920  0.00  0.00     0.000 OA
ENDBRANCH 83 92
BRANCH 86 96
ATOM     96   C  SGN B   5      22.641  24.304  23.3560  0.00  0.00     0.000 C
ATOM     97   O  SGN B   5      23.082  25.122  22.2700  0.00  0.00     0.000 O
ATOM     98   S  SGN B   5      23.090  26.703  22.5340  0.00  0.00     0.000 S
ATOM     99   O  SGN B   5      23.761  27.218  21.3640  0.00  0.00     0.000 OA
ATOM    100   O  SGN B   5      21.741  27.119  22.6750  0.00  0.00     0.000 OA
ATOM    101   O  SGN B   5      23.848  26.858  23.7340  0.00  0.00     0.000 OA
ENDBRANCH 86 96
BRANCH 82 102
ATOM    102  O4  IDS B   6      19.193  22.062  23.7720  0.00  0.00     0.000 O
BRANCH 102 106
ATOM    103  C1  IDS B   6      17.725  20.240  26.5620  0.00  0.00     0.000 C
ATOM    104  C2  IDS B   6      16.835  20.973  25.5460  0.00  0.00     0.000 C
ATOM    105  C3  IDS B   6      17.263  22.390  25.2200  0.00  0.00     0.000 C
ATOM    106  C4  IDS B   6      18.769  22.530  25.0770  0.00  0.00     0.000 C
ATOM    107  C5  IDS B   6      19.469  21.746  26.1910  0.00  0.00     0.000 C
ATOM    108  O5  IDS B   6      19.086  20.370  26.1960  0.00  0.00     0.000 O
ATOM    109   O  IDS B   6      16.773  23.245  26.2400  0.00  0.00     0.000 O
ATOM    111  HD  IDS B   6      16.660  22.717  26.9180  0.00  0.00     0.000 HD
BRANCH 104 111
ATOM    111   O  IDS B   6      16.875  20.251  24.2650  0.00  0.00     0.000 O
ATOM    112   S  IDS B   6      15.534  19.539  23.7590  0.00  0.00     0.000 S
ATOM    113   O  IDS B   6      15.191  18.606  24.8220  0.00  0.00     0.000 OA
ATOM    114   O  IDS B   6      14.526  20.575  23.5050  0.00  0.00     0.000 OA
ATOM    115   O  IDS B   6      16.042  18.905  22.5620  0.00  0.00     0.000 OA
ENDBRANCH 104 111
BRANCH 107 116
ATOM    116   C  IDS B   6      20.978  21.862  26.0180  0.00  0.00     0.000 C
ATOM    117   O  IDS B   6      21.479  22.914  26.3240  0.00  0.00     0.000 OA
ATOM    118   O  IDS B   6      21.640  20.935  25.5800  0.00  0.00     0.000 OA
ENDBRANCH 107 116
BRANCH 103 119
ATOM    119  O4  SGN B   7      17.272  20.681  27.7630  0.00  0.00     0.000 O
BRANCH 119 123
ATOM    120  C1  SGN B   7      18.101  19.795  31.7650  0.00  0.00     0.000 C
ATOM    121  C2  SGN B   7      18.857  20.974  31.1240  0.00  0.00     0.000 C
ATOM    122  C3  SGN B   7      18.166  21.415  29.8280  0.00  0.00     0.000 C
ATOM    123  C4  SGN B   7      17.994  20.219  28.9050  0.00  0.00     0.000 C
ATOM    124  C5  SGN B   7      17.237  19.099  29.6370  0.00  0.00     0.000 C
ATOM    125  O5  SGN B   7      17.923  18.715  30.8500  0.00  0.00     0.000 O
ATOM    126   O  SGN B   7      18.948  22.443  29.2090  0.00  0.00     0.000 O
ATOM    128  HD  SGN B   7      18.804  21.946  29.9030  0.00  0.00     0.000 HD
BRANCH 121 130
ATOM    128   N  SGN B   7      19.140  21.309  32.5220  0.00  0.00     0.000 N
ATOM    130  HD  SGN B   7      19.878  20.858  32.4880  0.00  0.00     0.000 HD
ATOM    130   S  SGN B   7      20.280  22.366  32.9390  0.00  0.00     0.000 S
ATOM    131   O  SGN B   7      20.025  23.520  32.1470  0.00  0.00     0.000 OA
ATOM    132   O  SGN B   7      20.306  22.459  34.3550  0.00  0.00     0.000 OA
ATOM    133   O  SGN B   7      21.567  21.551  32.5730  0.00  0.00     0.000 OA
ENDBRANCH 121 130
BRANCH 124 134
ATOM    134   C  SGN B   7      17.118  17.830  28.8470  0.00  0.00     0.000 C
ATOM    135   O  SGN B   7      16.008  17.074  29.3590  0.00  0.00     0.000 O
ATOM    136   S  SGN B   7      15.619  15.776  28.5640  0.00  0.00     0.000 S
ATOM    137   O  SGN B   7      14.563  15.140  29.3160  0.00  0.00     0.000 OA
ATOM    138   O  SGN B   7      16.828  14.987  28.5120  0.00  0.00     0.000 OA
ATOM    139   O  SGN B   7      15.193  16.311  27.2800  0.00  0.00     0.000 OA
ENDBRANCH 124 134
BRANCH 120 140
ATOM    140  O4  IDS B   8      16.884  19.802  32.3190  0.00  0.00     0.000 O
BRANCH 140 144
ATOM    141  C1  IDS B   8      13.839  19.442  34.2060  0.00  0.00     0.000 C
ATOM    142  C2  IDS B   8      14.263  18.371  33.1610  0.00  0.00     0.000 C
ATOM    143  C3  IDS B   8      14.668  18.979  31.8050  0.00  0.00     0.000 C
ATOM    144  C4  IDS B   8      15.555  20.211  31.9720  0.00  0.00     0.000 C
ATOM    145  C5  IDS B   8      14.984  21.131  33.0620  0.00  0.00     0.000 C
ATOM    146  O5  IDS B   8      14.839  20.449  34.3050  0.00  0.00     0.000 O
BRANCH 142 147
ATOM    147   O  IDS B   8      15.437  17.617  33.6740  0.00  0.00     0.000 O
ATOM    148   S  IDS B   8      15.688  16.072  33.2480  0.00  0.00     0.000 S
ATOM    149   O  IDS B   8      14.452  15.563  32.6960  0.00  0.00     0.000 OA
ATOM    150   O  IDS B   8      16.764  16.108  32.2750  0.00  0.00     0.000 OA
ATOM    151   O  IDS B   8      16.054  15.392  34.4760  0.00  0.00     0.000 OA
ENDBRANCH 142 147
BRANCH 145 152
ATOM    152   C  IDS B   8      15.875  22.325  33.3430  0.00  0.00     0.000 C
ATOM    153   O  IDS B   8      16.142  23.106  32.4370  0.00  0.00     0.000 OA
ATOM    154   O  IDS B   8      16.299  22.507  34.4700  0.00  0.00     0.000 OA
ENDBRANCH 145 152
ENDBRANCH 140 144
ENDBRANCH 120 140
ENDBRANCH 119 123
ENDBRANCH 103 119
ENDBRANCH 102 106
ENDBRANCH 82 102
ENDBRANCH 81 85
ENDBRANCH 65 81
ENDBRANCH 64 68
ENDBRANCH 41 64
ENDBRANCH 40 44
ENDBRANCH 24 40
ENDBRANCH 23 27
ENDBRANCH 1 23
TORSDOF 31
ENDMDL
MODEL 42
REMARK VINA RESULT:      -7.1      9.681     18.636
ROOT
ATOM      1  C1  SGN B   1      28.207   5.185  39.2490  0.00  0.00     0.000 C
ATOM      2  C2  SGN B   1      29.095   5.078  37.9990  0.00  0.00     0.000 C
ATOM      3  C3  SGN B   1      28.351   5.587  36.7590  0.00  0.00     0.000 C
ATOM      4  C4  SGN B   1      27.035   4.836  36.5900  0.00  0.00     0.000 C
ATOM      5  C5  SGN B   1      26.271   4.864  37.9120  0.00  0.00     0.000 C
ATOM      6  O5  SGN B   1      27.105   4.336  38.9620  0.00  0.00     0.000 O
ATOM      7   O  SGN B   1      29.160   5.445  35.5970  0.00  0.00     0.000 O
ATOM      9  HD  SGN B   1      29.081   4.623  35.8580  0.00  0.00     0.000 HD
ATOM      9   O  SGN B   1      26.269   5.451  35.5710  0.00  0.00     0.000 O
ATOM     11  HD  SGN B   1      26.190   4.629  35.8320  0.00  0.00     0.000 HD
ENDROOT
BRANCH 2 13
ATOM     11   N  SGN B   1      30.418   5.727  38.0830  0.00  0.00     0.000 N
ATOM     13  HD  SGN B   1      30.291   4.940  38.4220  0.00  0.00     0.000 HD
ATOM     13   S  SGN B   1      31.450   5.421  39.2790  0.00  0.00     0.000 S
ATOM     14   O  SGN B   1      30.915   4.443  40.1440  0.00  0.00     0.000 OA
ATOM     15   O  SGN B   1      32.744   5.227  38.7180  0.00  0.00     0.000 OA
ATOM     16   O  SGN B   1      31.443   6.832  39.9450  0.00  0.00     0.000 OA
ENDBRANCH 2 13
BRANCH 5 17
ATOM     17   C  SGN B   1      24.996   4.057  37.9020  0.00  0.00     0.000 C
ATOM     18   O  SGN B   1      25.020   3.044  38.9280  0.00  0.00     0.000 O
ATOM     19   S  SGN B   1      24.529   1.588  38.4860  0.00  0.00     0.000 S
ATOM     20   O  SGN B   1      24.424   0.837  39.7200  0.00  0.00     0.000 OA
ATOM     21   O  SGN B   1      23.258   1.824  37.8430  0.00  0.00     0.000 OA
ATOM     22   O  SGN B   1      25.558   1.097  37.5950  0.00  0.00     0.000 OA
ENDBRANCH 5 17
BRANCH 1 23
ATOM     23  O4  IDS B   2      27.898   6.059  40.2500  0.00  0.00     0.000 O
BRANCH 23 27
ATOM     24  C1  IDS B   2      25.467   9.226  39.1140  0.00  0.00     0.000 C
ATOM     25  C2  IDS B   2      26.984   9.448  38.9240  0.00  0.00     0.000 C
ATOM     26  C3  IDS B   2      27.751   8.138  39.0850  0.00  0.00     0.000 C
ATOM     27  C4  IDS B   2      27.472   7.429  40.4030  0.00  0.00     0.000 C
ATOM     28  C5  IDS B   2      25.989   7.596  40.7880  0.00  0.00     0.000 C
ATOM     29  O5  IDS B   2      25.203   7.923  39.6510  0.00  0.00     0.000 O
ATOM     30   O  IDS B   2      29.148   8.404  39.0270  0.00  0.00     0.000 O
ATOM     32  HD  IDS B   2      29.467   8.717  39.7690  0.00  0.00     0.000 HD
BRANCH 25 32
ATOM     32   O  IDS B   2      27.307   9.994  37.5830  0.00  0.00     0.000 O
ATOM     33   S  IDS B   2      28.017  11.472  37.3920  0.00  0.00     0.000 S
ATOM     34   O  IDS B   2      27.971  11.762  35.9680  0.00  0.00     0.000 OA
ATOM     35   O  IDS B   2      27.282  12.465  38.1620  0.00  0.00     0.000 OA
ATOM     36   O  IDS B   2      29.377  11.314  37.8530  0.00  0.00     0.000 OA
ENDBRANCH 25 32
BRANCH 28 37
ATOM     37   C  IDS B   2      25.302   6.434  41.5340  0.00  0.00     0.000 C
ATOM     38   O  IDS B   2      24.536   5.815  40.8320  0.00  0.00     0.000 OA
ATOM     39   O  IDS B   2      25.513   6.065  42.7150  0.00  0.00     0.000 OA
ENDBRANCH 28 37
BRANCH 24 40
ATOM     40  O4  SUS B   3      24.624  10.279  39.0770  0.00  0.00     0.000 O
BRANCH 40 44
ATOM     41  C1  SUS B   3      20.670  10.532  37.7170  0.00  0.00     0.000 C
ATOM     42  C2  SUS B   3      20.902   9.871  39.0910  0.00  0.00     0.000 C
ATOM     43  C3  SUS B   3      22.270  10.289  39.6250  0.00  0.00     0.000 C
ATOM     44  C4  SUS B   3      23.329   9.948  38.5880  0.00  0.00     0.000 C
ATOM     45  C5  SUS B   3      23.042  10.727  37.3210  0.00  0.00     0.000 C
ATOM     46  O5  SUS B   3      21.759  10.307  36.8150  0.00  0.00     0.000 O
BRANCH 42 49
ATOM     47   N  SUS B   3      19.740  10.193  39.9360  0.00  0.00     0.000 N
ATOM     49  HD  SUS B   3      19.906  10.594  40.6860  0.00  0.00     0.000 HD
ATOM     49   S  SUS B   3      18.827   8.914  40.2460  0.00  0.00     0.000 S
ATOM     50   O  SUS B   3      19.601   7.912  40.8670  0.00  0.00     0.000 OA
ATOM     51   O  SUS B   3      17.897   9.602  41.2770  0.00  0.00     0.000 OA
ATOM     52   O  SUS B   3      18.110   8.559  39.0860  0.00  0.00     0.000 OA
ENDBRANCH 42 49
BRANCH 43 53
ATOM     53   O  SUS B   3      22.523   9.533  40.8680  0.00  0.00     0.000 O
ATOM     54   S  SUS B   3      22.546  10.387  42.2720  0.00  0.00     0.000 S
ATOM     55   O  SUS B   3      21.177  10.793  42.5580  0.00  0.00     0.000 OA
ATOM     56   O  SUS B   3      23.095   9.455  43.2410  0.00  0.00     0.000 OA
ATOM     57   O  SUS B   3      23.407  11.550  42.0370  0.00  0.00     0.000 OA
ENDBRANCH 43 53
BRANCH 45 58
ATOM     58   C  SUS B   3      24.112  10.516  36.2720  0.00  0.00     0.000 C
ATOM     59   S  SUS B   3      24.947   8.826  34.5310  0.00  0.00     0.000 S
ATOM     60   O  SUS B   3      23.820   9.322  35.5270  0.00  0.00     0.000 O
ATOM     61   O  SUS B   3      25.938   8.179  35.3700  0.00  0.00     0.000 OA
ATOM     62   O  SUS B   3      24.203   7.892  33.7290  0.00  0.00     0.000 OA
ATOM     63   O  SUS B   3      25.393   9.991  33.8520  0.00  0.00     0.000 OA
ENDBRANCH 45 58
BRANCH 41 64
ATOM     64  O4  IDS B   4      20.267  11.843  37.7950  0.00  0.00     0.000 O
BRANCH 64 68
ATOM     65  C1  IDS B   4      17.707  14.123  36.5620  0.00  0.00     0.000 C
ATOM     66  C2  IDS B   4      17.561  12.611  36.3500  0.00  0.00     0.000 C
ATOM     67  C3  IDS B   4      18.817  11.925  35.8410  0.00  0.00     0.000 C
ATOM     68  C4  IDS B   4      20.082  12.447  36.4960  0.00  0.00     0.000 C
ATOM     69  C5  IDS B   4      19.999  13.979  36.5410  0.00  0.00     0.000 C
ATOM     70  O5  IDS B   4      18.872  14.366  37.3300  0.00  0.00     0.000 O
ATOM     71   O  IDS B   4      18.878  12.141  34.4460  0.00  0.00     0.000 O
ATOM     73  HD  IDS B   4      18.494  12.108  35.2220  0.00  0.00     0.000 HD
BRANCH 66 73
ATOM     73   O  IDS B   4      17.266  11.979  37.6430  0.00  0.00     0.000 O
ATOM     74   S  IDS B   4      15.862  11.191  37.7990  0.00  0.00     0.000 S
ATOM     75   O  IDS B   4      14.820  12.141  37.4740  0.00  0.00     0.000 OA
ATOM     76   O  IDS B   4      15.892  10.804  39.1870  0.00  0.00     0.000 OA
ATOM     77   O  IDS B   4      15.935  10.085  36.8730  0.00  0.00     0.000 OA
ENDBRANCH 66 73
BRANCH 69 78
ATOM     78   C  IDS B   4      21.287  14.667  36.9700  0.00  0.00     0.000 C
ATOM     79   O  IDS B   4      21.219  15.786  37.4770  0.00  0.00     0.000 OA
ATOM     80   O  IDS B   4      22.356  14.032  36.8930  0.00  0.00     0.000 OA
ENDBRANCH 69 78
BRANCH 65 81
ATOM     81  O4  SGN B   5      17.621  14.759  35.3600  0.00  0.00     0.000 O
BRANCH 81 85
ATOM     82  C1  SGN B   5      16.327  18.285  33.4810  0.00  0.00     0.000 C
ATOM     83  C2  SGN B   5      17.422  18.425  34.5490  0.00  0.00     0.000 C
ATOM     84  C3  SGN B   5      18.089  17.063  34.7830  0.00  0.00     0.000 C
ATOM     85  C4  SGN B   5      17.026  16.041  35.1480  0.00  0.00     0.000 C
ATOM     86  C5  SGN B   5      16.013  15.975  34.0070  0.00  0.00     0.000 C
ATOM     87  O5  SGN B   5      15.410  17.273  33.8480  0.00  0.00     0.000 O
ATOM     88   O  SGN B   5      19.057  17.171  35.8040  0.00  0.00     0.000 O
ATOM     90  HD  SGN B   5      19.223  17.146  34.9540  0.00  0.00     0.000 HD
BRANCH 83 92
ATOM     90   N  SGN B   5      17.019  19.845  34.5700  0.00  0.00     0.000 N
ATOM     92  HD  SGN B   5      16.310  19.959  35.0540  0.00  0.00     0.000 HD
ATOM     92   S  SGN B   5      18.159  20.947  34.7690  0.00  0.00     0.000 S
ATOM     93   O  SGN B   5      17.454  22.194  34.7490  0.00  0.00     0.000 OA
ATOM     94   O  SGN B   5      18.879  20.553  35.9310  0.00  0.00     0.000 OA
ATOM     95   O  SGN B   5      19.081  20.765  33.5830  0.00  0.00     0.000 OA
ENDBRANCH 83 92
BRANCH 86 96
ATOM     96   C  SGN B   5      14.893  14.980  34.2290  0.00  0.00     0.000 C
ATOM     97   O  SGN B   5      14.682  14.191  33.0550  0.00  0.00     0.000 O
ATOM     98   S  SGN B   5      14.648  12.602  33.2690  0.00  0.00     0.000 S
ATOM     99   O  SGN B   5      14.225  12.116  31.9780  0.00  0.00     0.000 OA
ATOM    100   O  SGN B   5      15.951  12.196  33.6570  0.00  0.00     0.000 OA
ATOM    101   O  SGN B   5      13.676  12.403  34.2950  0.00  0.00     0.000 OA
ENDBRANCH 86 96
BRANCH 82 102
ATOM    102  O4  IDS B   6      16.834  18.039  32.2400  0.00  0.00     0.000 O
BRANCH 102 106
ATOM    103  C1  IDS B   6      17.630  18.816  28.7730  0.00  0.00     0.000 C
ATOM    104  C2  IDS B   6      17.932  19.824  29.8930  0.00  0.00     0.000 C
ATOM    105  C3  IDS B   6      16.798  20.054  30.8730  0.00  0.00     0.000 C
ATOM    106  C4  IDS B   6      16.074  18.772  31.2450  0.00  0.00     0.000 C
ATOM    107  C5  IDS B   6      15.853  17.920  29.9920  0.00  0.00     0.000 C
ATOM    108  O5  IDS B   6      17.081  17.633  29.3200  0.00  0.00     0.000 O
ATOM    109   O  IDS B   6      15.901  20.990  30.2980  0.00  0.00     0.000 O
ATOM    111  HD  IDS B   6      16.049  20.925  29.4470  0.00  0.00     0.000 HD
BRANCH 104 111
ATOM    111   O  IDS B   6      19.049  19.317  30.7050  0.00  0.00     0.000 O
ATOM    112   S  IDS B   6      20.504  19.935  30.4520  0.00  0.00     0.000 S
ATOM    113   O  IDS B   6      20.776  19.671  29.0480  0.00  0.00     0.000 OA
ATOM    114   O  IDS B   6      20.473  21.358  30.8120  0.00  0.00     0.000 OA
ATOM    115   O  IDS B   6      21.269  19.113  31.3640  0.00  0.00     0.000 OA
ENDBRANCH 104 111
BRANCH 107 116
ATOM    116   C  IDS B   6      15.160  16.621  30.3810  0.00  0.00     0.000 C
ATOM    117   O  IDS B   6      14.047  16.715  30.8320  0.00  0.00     0.000 OA
ATOM    118   O  IDS B   6      15.714  15.541  30.2500  0.00  0.00     0.000 OA
ENDBRANCH 107 116
BRANCH 103 119
ATOM    119  O4  SGN B   7      16.951  19.551  27.8550  0.00  0.00     0.000 O
BRANCH 119 123
ATOM    120  C1  SGN B   7      15.985  19.164  23.8040  0.00  0.00     0.000 C
ATOM    121  C2  SGN B   7      15.037  18.512  24.8290  0.00  0.00     0.000 C
ATOM    122  C3  SGN B   7      15.295  19.075  26.2330  0.00  0.00     0.000 C
ATOM    123  C4  SGN B   7      16.767  18.934  26.5800  0.00  0.00     0.000 C
ATOM    124  C5  SGN B   7      17.626  19.607  25.4970  0.00  0.00     0.000 C
ATOM    125  O5  SGN B   7      17.352  19.047  24.1940  0.00  0.00     0.000 O
ATOM    126   O  SGN B   7      14.468  18.378  27.1720  0.00  0.00     0.000 O
ATOM    128  HD  SGN B   7      14.664  18.541  26.3450  0.00  0.00     0.000 HD
BRANCH 121 130
ATOM    128   N  SGN B   7      14.363  17.510  24.0000  0.00  0.00     0.000 N
ATOM    130  HD  SGN B   7      13.979  17.178  24.7010  0.00  0.00     0.000 HD
ATOM    130   S  SGN B   7      12.788  17.583  23.6740  0.00  0.00     0.000 S
ATOM    131   O  SGN B   7      12.565  18.910  23.2090  0.00  0.00     0.000 OA
ATOM    132   O  SGN B   7      12.448  16.472  22.8600  0.00  0.00     0.000 OA
ATOM    133   O  SGN B   7      12.194  17.239  25.0820  0.00  0.00     0.000 OA
ENDBRANCH 121 130
BRANCH 124 134
ATOM    134   C  SGN B   7      19.103  19.422  25.6910  0.00  0.00     0.000 C
ATOM    135   O  SGN B   7      19.422  18.037  25.4770  0.00  0.00     0.000 O
ATOM    136   S  SGN B   7      20.947  17.661  25.4830  0.00  0.00     0.000 S
ATOM    137   O  SGN B   7      21.012  16.225  25.3560  0.00  0.00     0.000 OA
ATOM    138   O  SGN B   7      21.450  18.139  26.7510  0.00  0.00     0.000 OA
ATOM    139   O  SGN B   7      21.452  18.382  24.3250  0.00  0.00     0.000 OA
ENDBRANCH 124 134
BRANCH 120 140
ATOM    140  O4  IDS B   8      15.995  20.434  23.3840  0.00  0.00     0.000 O
BRANCH 140 144
ATOM    141  C1  IDS B   8      15.741  24.015  23.6490  0.00  0.00     0.000 C
ATOM    142  C2  IDS B   8      14.822  23.084  24.4900  0.00  0.00     0.000 C
ATOM    143  C3  IDS B   8      14.154  21.978  23.6520  0.00  0.00     0.000 C
ATOM    144  C4  IDS B   8      15.132  21.330  22.6740  0.00  0.00     0.000 C
ATOM    145  C5  IDS B   8      15.961  22.409  21.9610  0.00  0.00     0.000 C
ATOM    146  O5  IDS B   8      16.658  23.237  22.8900  0.00  0.00     0.000 O
BRANCH 142 147
ATOM    147   O  IDS B   8      15.629  22.411  25.5420  0.00  0.00     0.000 O
ATOM    148   S  IDS B   8      15.590  22.923  27.0810  0.00  0.00     0.000 S
ATOM    149   O  IDS B   8      15.019  24.251  27.0860  0.00  0.00     0.000 OA
ATOM    150   O  IDS B   8      14.773  21.957  27.7900  0.00  0.00     0.000 OA
ATOM    151   O  IDS B   8      16.974  22.927  27.5160  0.00  0.00     0.000 OA
ENDBRANCH 142 147
BRANCH 145 152
ATOM    152   C  IDS B   8      17.020  21.823  21.0490  0.00  0.00     0.000 C
ATOM    153   O  IDS B   8      16.680  21.216  20.0400  0.00  0.00     0.000 OA
ATOM    154   O  IDS B   8      18.198  21.979  21.3160  0.00  0.00     0.000 OA
ENDBRANCH 145 152
ENDBRANCH 140 144
ENDBRANCH 120 140
ENDBRANCH 119 123
ENDBRANCH 103 119
ENDBRANCH 102 106
ENDBRANCH 82 102
ENDBRANCH 81 85
ENDBRANCH 65 81
ENDBRANCH 64 68
ENDBRANCH 41 64
ENDBRANCH 40 44
ENDBRANCH 24 40
ENDBRANCH 23 27
ENDBRANCH 1 23
TORSDOF 31
ENDMDL
MODEL 43
REMARK VINA RESULT:      -7.0     10.212     14.100
ROOT
ATOM      1  C1  SGN B   1      25.213  18.251  14.2380  0.00  0.00     0.000 C
ATOM      2  C2  SGN B   1      25.499  17.511  12.9200  0.00  0.00     0.000 C
ATOM      3  C3  SGN B   1      24.258  16.745  12.4480  0.00  0.00     0.000 C
ATOM      4  C4  SGN B   1      23.777  15.798  13.5420  0.00  0.00     0.000 C
ATOM      5  C5  SGN B   1      23.651  16.571  14.8530  0.00  0.00     0.000 C
ATOM      6  O5  SGN B   1      24.906  17.211  15.1560  0.00  0.00     0.000 O
ATOM      7   O  SGN B   1      24.539  16.026  11.2530  0.00  0.00     0.000 O
ATOM      9  HD  SGN B   1      25.098  15.669  11.8090  0.00  0.00     0.000 HD
ATOM      9   O  SGN B   1      22.523  15.253  13.1740  0.00  0.00     0.000 O
ATOM     11  HD  SGN B   1      23.082  14.896  13.7300  0.00  0.00     0.000 HD
ENDROOT
BRANCH 2 13
ATOM     11   N  SGN B   1      26.890  17.830  12.5480  0.00  0.00     0.000 N
ATOM     13  HD  SGN B   1      26.354  18.453  12.8210  0.00  0.00     0.000 HD
ATOM     13   S  SGN B   1      27.318  19.274  11.9820  0.00  0.00     0.000 S
ATOM     14   O  SGN B   1      26.203  20.138  11.9600  0.00  0.00     0.000 OA
ATOM     15   O  SGN B   1      28.509  19.684  12.6480  0.00  0.00     0.000 OA
ATOM     16   O  SGN B   1      27.725  18.837  10.5410  0.00  0.00     0.000 OA
ENDBRANCH 2 13
BRANCH 5 17
ATOM     17   C  SGN B   1      23.286  15.713  16.0390  0.00  0.00     0.000 C
ATOM     18   O  SGN B   1      24.062  14.499  16.0550  0.00  0.00     0.000 O
ATOM     19   S  SGN B   1      23.252  13.153  16.3540  0.00  0.00     0.000 S
ATOM     20   O  SGN B   1      24.267  12.139  16.5470  0.00  0.00     0.000 OA
ATOM     21   O  SGN B   1      22.499  13.453  17.5500  0.00  0.00     0.000 OA
ATOM     22   O  SGN B   1      22.432  12.937  15.1820  0.00  0.00     0.000 OA
ENDBRANCH 5 17
BRANCH 1 23
ATOM     23  O4  IDS B   2      24.755  19.451  14.6940  0.00  0.00     0.000 O
BRANCH 23 27
ATOM     24  C1  IDS B   2      24.903  19.480  18.8420  0.00  0.00     0.000 C
ATOM     25  C2  IDS B   2      23.505  19.697  18.2230  0.00  0.00     0.000 C
ATOM     26  C3  IDS B   2      23.512  19.374  16.7320  0.00  0.00     0.000 C
ATOM     27  C4  IDS B   2      24.572  20.138  15.9500  0.00  0.00     0.000 C
ATOM     28  C5  IDS B   2      25.854  20.275  16.7950  0.00  0.00     0.000 C
ATOM     29  O5  IDS B   2      25.892  19.294  17.8210  0.00  0.00     0.000 O
ATOM     30   O  IDS B   2      22.245  19.705  16.1750  0.00  0.00     0.000 O
ATOM     32  HD  IDS B   2      22.150  20.552  16.0210  0.00  0.00     0.000 HD
BRANCH 25 32
ATOM     32   O  IDS B   2      22.470  18.847  18.8610  0.00  0.00     0.000 O
ATOM     33   S  IDS B   2      21.055  19.476  19.4320  0.00  0.00     0.000 S
ATOM     34   O  IDS B   2      20.408  18.407  20.1760  0.00  0.00     0.000 OA
ATOM     35   O  IDS B   2      21.343  20.620  20.2850  0.00  0.00     0.000 OA
ATOM     36   O  IDS B   2      20.291  19.840  18.2610  0.00  0.00     0.000 OA
ENDBRANCH 25 32
BRANCH 28 37
ATOM     37   C  IDS B   2      27.209  20.257  16.0570  0.00  0.00     0.000 C
ATOM     38   O  IDS B   2      27.803  19.214  16.1950  0.00  0.00     0.000 OA
ATOM     39   O  IDS B   2      27.679  21.158  15.3190  0.00  0.00     0.000 OA
ENDBRANCH 28 37
BRANCH 24 40
ATOM     40  O4  SUS B   3      25.118  19.777  20.1410  0.00  0.00     0.000 O
BRANCH 40 44
ATOM     41  C1  SUS B   3      27.713  18.009  22.9130  0.00  0.00     0.000 C
ATOM     42  C2  SUS B   3      28.310  19.070  21.9660  0.00  0.00     0.000 C
ATOM     43  C3  SUS B   3      27.181  19.923  21.3920  0.00  0.00     0.000 C
ATOM     44  C4  SUS B   3      26.160  19.009  20.7320  0.00  0.00     0.000 C
ATOM     45  C5  SUS B   3      25.584  18.080  21.7810  0.00  0.00     0.000 C
ATOM     46  O5  SUS B   3      26.655  17.266  22.2980  0.00  0.00     0.000 O
BRANCH 42 49
ATOM     47   N  SUS B   3      29.347  20.043  22.3470  0.00  0.00     0.000 N
ATOM     49  HD  SUS B   3      29.310  20.819  21.9640  0.00  0.00     0.000 HD
ATOM     49   S  SUS B   3      30.831  19.468  22.1640  0.00  0.00     0.000 S
ATOM     50   O  SUS B   3      31.028  19.065  20.8270  0.00  0.00     0.000 OA
ATOM     51   O  SUS B   3      31.576  20.797  22.4490  0.00  0.00     0.000 OA
ATOM     52   O  SUS B   3      31.094  18.523  23.1760  0.00  0.00     0.000 OA
ENDBRANCH 42 49
BRANCH 43 53
ATOM     53   O  SUS B   3      27.764  20.832  20.3860  0.00  0.00     0.000 O
ATOM     54   S  SUS B   3      27.607  22.446  20.6540  0.00  0.00     0.000 S
ATOM     55   O  SUS B   3      28.480  22.790  21.7680  0.00  0.00     0.000 OA
ATOM     56   O  SUS B   3      27.999  23.052  19.3940  0.00  0.00     0.000 OA
ATOM     57   O  SUS B   3      26.200  22.676  20.9920  0.00  0.00     0.000 OA
ENDBRANCH 43 53
BRANCH 45 58
ATOM     58   C  SUS B   3      24.485  17.204  21.2200  0.00  0.00     0.000 C
ATOM     59   S  SUS B   3      23.266  14.978  21.6000  0.00  0.00     0.000 S
ATOM     60   O  SUS B   3      24.234  16.116  22.1250  0.00  0.00     0.000 O
ATOM     61   O  SUS B   3      24.076  14.175  20.7040  0.00  0.00     0.000 OA
ATOM     62   O  SUS B   3      22.959  14.299  22.8300  0.00  0.00     0.000 OA
ATOM     63   O  SUS B   3      22.177  15.656  20.9910  0.00  0.00     0.000 OA
ENDBRANCH 45 58
BRANCH 41 64
ATOM     64  O4  IDS B   4      27.409  18.492  24.1620  0.00  0.00     0.000 O
BRANCH 64 68
ATOM     65  C1  IDS B   4      28.273  19.076  27.6530  0.00  0.00     0.000 C
ATOM     66  C2  IDS B   4      29.376  18.955  26.5940  0.00  0.00     0.000 C
ATOM     67  C3  IDS B   4      29.207  17.782  25.6430  0.00  0.00     0.000 C
ATOM     68  C4  IDS B   4      27.766  17.572  25.2170  0.00  0.00     0.000 C
ATOM     69  C5  IDS B   4      26.878  17.695  26.4620  0.00  0.00     0.000 C
ATOM     70  O5  IDS B   4      27.014  19.009  27.0100  0.00  0.00     0.000 O
ATOM     71   O  IDS B   4      29.682  16.630  26.3080  0.00  0.00     0.000 O
ATOM     73  HD  IDS B   4      29.593  17.481  26.1730  0.00  0.00     0.000 HD
BRANCH 66 73
ATOM     73   O  IDS B   4      29.351  20.154  25.7460  0.00  0.00     0.000 O
ATOM     74   S  IDS B   4      30.481  21.284  25.9970  0.00  0.00     0.000 S
ATOM     75   O  IDS B   4      30.372  21.670  27.3880  0.00  0.00     0.000 OA
ATOM     76   O  IDS B   4      30.083  22.313  25.0700  0.00  0.00     0.000 OA
ATOM     77   O  IDS B   4      31.738  20.651  25.6770  0.00  0.00     0.000 OA
ENDBRANCH 66 73
BRANCH 69 78
ATOM     78   C  IDS B   4      25.426  17.292  26.2420  0.00  0.00     0.000 C
ATOM     79   O  IDS B   4      24.574  17.699  27.0310  0.00  0.00     0.000 OA
ATOM     80   O  IDS B   4      25.134  16.654  25.2140  0.00  0.00     0.000 OA
ENDBRANCH 69 78
BRANCH 65 81
ATOM     81  O4  SGN B   5      28.502  18.176  28.6500  0.00  0.00     0.000 O
BRANCH 81 85
ATOM     82  C1  SGN B   5      28.152  17.590  32.7940  0.00  0.00     0.000 C
ATOM     83  C2  SGN B   5      26.907  17.303  31.9410  0.00  0.00     0.000 C
ATOM     84  C3  SGN B   5      27.321  17.113  30.4750  0.00  0.00     0.000 C
ATOM     85  C4  SGN B   5      28.095  18.334  30.0110  0.00  0.00     0.000 C
ATOM     86  C5  SGN B   5      29.314  18.502  30.9150  0.00  0.00     0.000 C
ATOM     87  O5  SGN B   5      28.863  18.695  32.2690  0.00  0.00     0.000 O
ATOM     88   O  SGN B   5      26.177  16.906  29.6760  0.00  0.00     0.000 O
ATOM     90  HD  SGN B   5      26.720  16.287  29.9460  0.00  0.00     0.000 HD
BRANCH 83 92
ATOM     90   N  SGN B   5      26.489  16.757  33.2470  0.00  0.00     0.000 N
ATOM     92  HD  SGN B   5      26.876  17.176  33.8980  0.00  0.00     0.000 HD
ATOM     92   S  SGN B   5      24.936  16.448  33.4700  0.00  0.00     0.000 S
ATOM     93   O  SGN B   5      24.864  15.946  34.8090  0.00  0.00     0.000 OA
ATOM     94   O  SGN B   5      24.251  17.644  33.1180  0.00  0.00     0.000 OA
ATOM     95   O  SGN B   5      24.597  15.408  32.4240  0.00  0.00     0.000 OA
ENDBRANCH 83 92
BRANCH 86 96
ATOM     96   C  SGN B   5      30.193  19.683  30.5590  0.00  0.00     0.000 C
ATOM     97   O  SGN B   5      29.812  20.837  31.3130  0.00  0.00     0.000 O
ATOM     98   S  SGN B   5      30.994  21.599  32.0830  0.00  0.00     0.000 S
ATOM     99   O  SGN B   5      30.343  22.795  32.5610  0.00  0.00     0.000 OA
ATOM    100   O  SGN B   5      31.466  20.733  33.1030  0.00  0.00     0.000 OA
ATOM    101   O  SGN B   5      31.970  21.851  31.0730  0.00  0.00     0.000 OA
ENDBRANCH 86 96
BRANCH 82 102
ATOM    102  O4  IDS B   6      28.972  16.507  32.9050  0.00  0.00     0.000 O
BRANCH 102 106
ATOM    103  C1  IDS B   6      30.793  14.104  34.9470  0.00  0.00     0.000 C
ATOM    104  C2  IDS B   6      29.467  14.707  35.4370  0.00  0.00     0.000 C
ATOM    105  C3  IDS B   6      29.353  16.212  35.2920  0.00  0.00     0.000 C
ATOM    106  C4  IDS B   6      29.923  16.720  33.9800  0.00  0.00     0.000 C
ATOM    107  C5  IDS B   6      31.248  16.012  33.6830  0.00  0.00     0.000 C
ATOM    108  O5  IDS B   6      31.098  14.592  33.6540  0.00  0.00     0.000 O
ATOM    109   O  IDS B   6      30.013  16.813  36.3940  0.00  0.00     0.000 O
ATOM    111  HD  IDS B   6      30.570  16.205  36.6600  0.00  0.00     0.000 HD
BRANCH 104 111
ATOM    111   O  IDS B   6      28.364  14.154  34.6360  0.00  0.00     0.000 O
ATOM    112   S  IDS B   6      27.363  13.124  35.3410  0.00  0.00     0.000 S
ATOM    113   O  IDS B   6      28.216  12.036  35.7930  0.00  0.00     0.000 OA
ATOM    114   O  IDS B   6      26.650  13.830  36.4130  0.00  0.00     0.000 OA
ATOM    115   O  IDS B   6      26.534  12.788  34.2040  0.00  0.00     0.000 OA
ENDBRANCH 104 111
BRANCH 107 116
ATOM    116   C  IDS B   6      31.792  16.502  32.3470  0.00  0.00     0.000 C
ATOM    117   O  IDS B   6      32.360  17.564  32.3500  0.00  0.00     0.000 OA
ATOM    118   O  IDS B   6      31.649  15.849  31.3250  0.00  0.00     0.000 OA
ENDBRANCH 107 116
BRANCH 103 119
ATOM    119  O4  SGN B   7      31.638  14.295  35.9920  0.00  0.00     0.000 O
BRANCH 119 123
ATOM    120  C1  SGN B   7      34.962  12.325  37.5930  0.00  0.00     0.000 C
ATOM    121  C2  SGN B   7      35.199  13.268  36.3980  0.00  0.00     0.000 C
ATOM    122  C3  SGN B   7      33.994  14.196  36.1990  0.00  0.00     0.000 C
ATOM    123  C4  SGN B   7      32.723  13.371  36.0880  0.00  0.00     0.000 C
ATOM    124  C5  SGN B   7      32.581  12.461  37.3200  0.00  0.00     0.000 C
ATOM    125  O5  SGN B   7      33.736  11.605  37.4680  0.00  0.00     0.000 O
ATOM    126   O  SGN B   7      34.205  14.988  35.0240  0.00  0.00     0.000 O
ATOM    128  HD  SGN B   7      34.530  14.436  35.6080  0.00  0.00     0.000 HD
BRANCH 121 130
ATOM    128   N  SGN B   7      36.501  12.720  36.0110  0.00  0.00     0.000 N
ATOM    130  HD  SGN B   7      36.441  13.105  35.2370  0.00  0.00     0.000 HD
ATOM    130   S  SGN B   7      37.822  13.634  35.9080  0.00  0.00     0.000 S
ATOM    131   O  SGN B   7      37.879  14.346  37.1390  0.00  0.00     0.000 OA
ATOM    132   O  SGN B   7      38.905  12.811  35.5050  0.00  0.00     0.000 OA
ATOM    133   O  SGN B   7      37.478  14.484  34.6380  0.00  0.00     0.000 OA
ENDBRANCH 121 130
BRANCH 124 134
ATOM    134   C  SGN B   7      31.414  11.521  37.2490  0.00  0.00     0.000 C
ATOM    135   O  SGN B   7      31.647  10.433  38.1610  0.00  0.00     0.000 O
ATOM    136   S  SGN B   7      30.467   9.414  38.3500  0.00  0.00     0.000 S
ATOM    137   O  SGN B   7      30.965   8.372  39.2150  0.00  0.00     0.000 OA
ATOM    138   O  SGN B   7      30.156   8.944  37.0190  0.00  0.00     0.000 OA
ATOM    139   O  SGN B   7      29.433  10.241  38.9540  0.00  0.00     0.000 OA
ENDBRANCH 124 134
BRANCH 120 140
ATOM    140  O4  IDS B   8      34.886  12.642  38.8900  0.00  0.00     0.000 O
BRANCH 140 144
ATOM    141  C1  IDS B   8      33.994  14.585  41.7860  0.00  0.00     0.000 C
ATOM    142  C2  IDS B   8      34.397  15.277  40.4520  0.00  0.00     0.000 C
ATOM    143  C3  IDS B   8      35.695  14.711  39.8470  0.00  0.00     0.000 C
ATOM    144  C4  IDS B   8      35.737  13.185  39.9070  0.00  0.00     0.000 C
ATOM    145  C5  IDS B   8      35.283  12.696  41.2910  0.00  0.00     0.000 C
ATOM    146  O5  IDS B   8      33.980  13.173  41.6170  0.00  0.00     0.000 O
BRANCH 142 147
ATOM    147   O  IDS B   8      33.320  15.079  39.4470  0.00  0.00     0.000 O
ATOM    148   S  IDS B   8      32.227  16.241  39.1540  0.00  0.00     0.000 S
ATOM    149   O  IDS B   8      32.283  17.182  40.2490  0.00  0.00     0.000 OA
ATOM    150   O  IDS B   8      32.617  16.829  37.8870  0.00  0.00     0.000 OA
ATOM    151   O  IDS B   8      30.949  15.556  39.0940  0.00  0.00     0.000 OA
ENDBRANCH 142 147
BRANCH 145 152
ATOM    152   C  IDS B   8      35.209  11.185  41.3810  0.00  0.00     0.000 C
ATOM    153   O  IDS B   8      36.219  10.518  41.1880  0.00  0.00     0.000 OA
ATOM    154   O  IDS B   8      34.152  10.651  41.6640  0.00  0.00     0.000 OA
ENDBRANCH 145 152
ENDBRANCH 140 144
ENDBRANCH 120 140
ENDBRANCH 119 123
ENDBRANCH 103 119
ENDBRANCH 102 106
ENDBRANCH 82 102
ENDBRANCH 81 85
ENDBRANCH 65 81
ENDBRANCH 64 68
ENDBRANCH 41 64
ENDBRANCH 40 44
ENDBRANCH 24 40
ENDBRANCH 23 27
ENDBRANCH 1 23
TORSDOF 31
ENDMDL
MODEL 44
REMARK VINA RESULT:      -7.0     10.613     14.470
ROOT
ATOM      1  C1  SGN B   1      37.536  16.760  27.7780  0.00  0.00     0.000 C
ATOM      2  C2  SGN B   1      37.925  17.744  26.6620  0.00  0.00     0.000 C
ATOM      3  C3  SGN B   1      37.107  17.478  25.3940  0.00  0.00     0.000 C
ATOM      4  C4  SGN B   1      37.271  16.026  24.9570  0.00  0.00     0.000 C
ATOM      5  C5  SGN B   1      37.007  15.113  26.1510  0.00  0.00     0.000 C
ATOM      6  O5  SGN B   1      37.869  15.486  27.2430  0.00  0.00     0.000 O
ATOM      7   O  SGN B   1      37.501  18.361  24.3510  0.00  0.00     0.000 O
ATOM      9  HD  SGN B   1      38.237  17.931  24.5040  0.00  0.00     0.000 HD
ATOM      9   O  SGN B   1      36.357  15.743  23.9130  0.00  0.00     0.000 O
ATOM     11  HD  SGN B   1      37.092  15.313  24.0670  0.00  0.00     0.000 HD
ENDROOT
BRANCH 2 13
ATOM     11   N  SGN B   1      38.943  18.465  27.4500  0.00  0.00     0.000 N
ATOM     13  HD  SGN B   1      38.109  18.486  27.6840  0.00  0.00     0.000 HD
ATOM     13   S  SGN B   1      38.597  19.789  28.2960  0.00  0.00     0.000 S
ATOM     14   O  SGN B   1      37.221  20.083  28.1950  0.00  0.00     0.000 OA
ATOM     15   O  SGN B   1      39.195  19.671  29.5830  0.00  0.00     0.000 OA
ATOM     16   O  SGN B   1      39.455  20.805  27.4810  0.00  0.00     0.000 OA
ENDBRANCH 2 13
BRANCH 5 17
ATOM     17   C  SGN B   1      37.245  13.650  25.8700  0.00  0.00     0.000 C
ATOM     18   O  SGN B   1      38.331  13.142  26.6710  0.00  0.00     0.000 O
ATOM     19   S  SGN B   1      39.399  12.229  25.9070  0.00  0.00     0.000 S
ATOM     20   O  SGN B   1      40.228  11.667  26.9520  0.00  0.00     0.000 OA
ATOM     21   O  SGN B   1      38.595  11.249  25.2160  0.00  0.00     0.000 OA
ATOM     22   O  SGN B   1      40.109  13.133  25.0290  0.00  0.00     0.000 OA
ENDBRANCH 5 17
BRANCH 1 23
ATOM     23  O4  IDS B   2      36.660  16.637  28.8150  0.00  0.00     0.000 O
BRANCH 23 27
ATOM     24  C1  IDS B   2      32.958  17.225  30.5990  0.00  0.00     0.000 C
ATOM     25  C2  IDS B   2      33.317  18.212  29.4670  0.00  0.00     0.000 C
ATOM     26  C3  IDS B   2      34.541  17.732  28.6920  0.00  0.00     0.000 C
ATOM     27  C4  IDS B   2      35.752  17.462  29.5750  0.00  0.00     0.000 C
ATOM     28  C5  IDS B   2      35.300  16.846  30.9140  0.00  0.00     0.000 C
ATOM     29  O5  IDS B   2      34.008  16.269  30.7970  0.00  0.00     0.000 O
ATOM     30   O  IDS B   2      34.914  18.725  27.7440  0.00  0.00     0.000 O
ATOM     32  HD  IDS B   2      35.357  19.382  28.0930  0.00  0.00     0.000 HD
BRANCH 25 32
ATOM     32   O  IDS B   2      32.209  18.380  28.4950  0.00  0.00     0.000 O
ATOM     33   S  IDS B   2      31.527  19.852  28.1960  0.00  0.00     0.000 S
ATOM     34   O  IDS B   2      30.350  19.595  27.3810  0.00  0.00     0.000 OA
ATOM     35   O  IDS B   2      31.172  20.487  29.4570  0.00  0.00     0.000 OA
ATOM     36   O  IDS B   2      32.521  20.601  27.4630  0.00  0.00     0.000 OA
ENDBRANCH 25 32
BRANCH 28 37
ATOM     37   C  IDS B   2      36.232  15.816  31.5850  0.00  0.00     0.000 C
ATOM     38   O  IDS B   2      35.871  14.676  31.4130  0.00  0.00     0.000 OA
ATOM     39   O  IDS B   2      37.301  16.053  32.1990  0.00  0.00     0.000 OA
ENDBRANCH 28 37
BRANCH 24 40
ATOM     40  O4  SUS B   3      31.943  17.508  31.4420  0.00  0.00     0.000 O
BRANCH 40 44
ATOM     41  C1  SUS B   3      29.067  14.998  33.1670  0.00  0.00     0.000 C
ATOM     42  C2  SUS B   3      30.513  14.879  33.6910  0.00  0.00     0.000 C
ATOM     43  C3  SUS B   3      31.286  16.144  33.3260  0.00  0.00     0.000 C
ATOM     44  C4  SUS B   3      31.189  16.363  31.8240  0.00  0.00     0.000 C
ATOM     45  C5  SUS B   3      29.734  16.556  31.4490  0.00  0.00     0.000 C
ATOM     46  O5  SUS B   3      29.020  15.347  31.7790  0.00  0.00     0.000 O
BRANCH 42 49
ATOM     47   N  SUS B   3      30.369  13.445  33.9930  0.00  0.00     0.000 N
ATOM     49  HD  SUS B   3      29.574  13.110  33.9140  0.00  0.00     0.000 HD
ATOM     49   S  SUS B   3      30.931  13.059  35.4430  0.00  0.00     0.000 S
ATOM     50   O  SUS B   3      30.271  13.818  36.4300  0.00  0.00     0.000 OA
ATOM     51   O  SUS B   3      30.421  11.595  35.4480  0.00  0.00     0.000 OA
ATOM     52   O  SUS B   3      32.339  13.095  35.4230  0.00  0.00     0.000 OA
ENDBRANCH 42 49
BRANCH 43 53
ATOM     53   O  SUS B   3      32.696  15.944  33.7140  0.00  0.00     0.000 O
ATOM     54   S  SUS B   3      33.281  16.889  34.9250  0.00  0.00     0.000 S
ATOM     55   O  SUS B   3      32.665  16.440  36.1650  0.00  0.00     0.000 OA
ATOM     56   O  SUS B   3      34.717  16.676  34.8740  0.00  0.00     0.000 OA
ATOM     57   O  SUS B   3      32.889  18.264  34.6040  0.00  0.00     0.000 OA
ENDBRANCH 43 53
BRANCH 45 58
ATOM     58   C  SUS B   3      29.565  16.879  29.9810  0.00  0.00     0.000 C
ATOM     59   S  SUS B   3      29.201  15.786  27.6880  0.00  0.00     0.000 S
ATOM     60   O  SUS B   3      29.207  15.683  29.2680  0.00  0.00     0.000 O
ATOM     61   O  SUS B   3      30.596  15.720  27.2970  0.00  0.00     0.000 OA
ATOM     62   O  SUS B   3      28.470  14.595  27.3450  0.00  0.00     0.000 OA
ATOM     63   O  SUS B   3      28.543  17.009  27.3890  0.00  0.00     0.000 OA
ENDBRANCH 45 58
BRANCH 41 64
ATOM     64  O4  IDS B   4      28.250  15.759  33.9660  0.00  0.00     0.000 O
BRANCH 64 68
ATOM     65  C1  IDS B   4      24.981  15.497  35.5530  0.00  0.00     0.000 C
ATOM     66  C2  IDS B   4      25.596  14.282  34.8480  0.00  0.00     0.000 C
ATOM     67  C3  IDS B   4      26.176  14.581  33.4750  0.00  0.00     0.000 C
ATOM     68  C4  IDS B   4      26.918  15.903  33.4240  0.00  0.00     0.000 C
ATOM     69  C5  IDS B   4      26.072  16.955  34.1540  0.00  0.00     0.000 C
ATOM     70  O5  IDS B   4      25.911  16.564  35.5200  0.00  0.00     0.000 O
ATOM     71   O  IDS B   4      25.100  14.602  32.5600  0.00  0.00     0.000 O
ATOM     73  HD  IDS B   4      25.494  14.414  33.3080  0.00  0.00     0.000 HD
BRANCH 66 73
ATOM     73   O  IDS B   4      26.723  13.790  35.6510  0.00  0.00     0.000 O
ATOM     74   S  IDS B   4      26.575  12.342  36.3580  0.00  0.00     0.000 S
ATOM     75   O  IDS B   4      25.385  12.408  37.1790  0.00  0.00     0.000 OA
ATOM     76   O  IDS B   4      27.802  12.253  37.1080  0.00  0.00     0.000 OA
ATOM     77   O  IDS B   4      26.470  11.393  35.2750  0.00  0.00     0.000 OA
ENDBRANCH 66 73
BRANCH 69 78
ATOM     78   C  IDS B   4      26.575  18.384  34.0010  0.00  0.00     0.000 C
ATOM     79   O  IDS B   4      26.418  18.953  32.9220  0.00  0.00     0.000 OA
ATOM     80   O  IDS B   4      27.031  18.965  35.0030  0.00  0.00     0.000 OA
ENDBRANCH 69 78
BRANCH 65 81
ATOM     81  O4  SGN B   5      23.745  15.745  35.0360  0.00  0.00     0.000 O
BRANCH 81 85
ATOM     82  C1  SGN B   5      19.859  16.739  36.2780  0.00  0.00     0.000 C
ATOM     83  C2  SGN B   5      20.670  17.839  35.5760  0.00  0.00     0.000 C
ATOM     84  C3  SGN B   5      21.829  17.203  34.7970  0.00  0.00     0.000 C
ATOM     85  C4  SGN B   5      22.663  16.357  35.7420  0.00  0.00     0.000 C
ATOM     86  C5  SGN B   5      21.759  15.291  36.3560  0.00  0.00     0.000 C
ATOM     87  O5  SGN B   5      20.706  15.946  37.0880  0.00  0.00     0.000 O
ATOM     88   O  SGN B   5      22.613  18.211  34.1960  0.00  0.00     0.000 O
ATOM     90  HD  SGN B   5      22.025  17.722  33.7890  0.00  0.00     0.000 HD
BRANCH 83 92
ATOM     90   N  SGN B   5      19.388  18.520  35.8440  0.00  0.00     0.000 N
ATOM     92  HD  SGN B   5      19.118  18.367  36.6520  0.00  0.00     0.000 HD
ATOM     92   S  SGN B   5      19.221  20.030  35.3490  0.00  0.00     0.000 S
ATOM     93   O  SGN B   5      17.898  20.394  35.7590  0.00  0.00     0.000 OA
ATOM     94   O  SGN B   5      20.346  20.732  35.8660  0.00  0.00     0.000 OA
ATOM     95   O  SGN B   5      19.383  19.962  33.8460  0.00  0.00     0.000 OA
ENDBRANCH 83 92
BRANCH 86 96
ATOM     96   C  SGN B   5      22.465  14.358  37.3190  0.00  0.00     0.000 C
ATOM     97   O  SGN B   5      22.125  14.680  38.6700  0.00  0.00     0.000 O
ATOM     98   S  SGN B   5      21.626  13.459  39.5820  0.00  0.00     0.000 S
ATOM     99   O  SGN B   5      21.564  14.049  40.8970  0.00  0.00     0.000 OA
ATOM    100   O  SGN B   5      20.377  13.025  39.0680  0.00  0.00     0.000 OA
ATOM    101   O  SGN B   5      22.652  12.476  39.4510  0.00  0.00     0.000 OA
ENDBRANCH 86 96
BRANCH 82 102
ATOM    102  O4  IDS B   6      19.170  15.956  35.4020  0.00  0.00     0.000 O
BRANCH 102 106
ATOM    103  C1  IDS B   6      15.850  14.735  34.5390  0.00  0.00     0.000 C
ATOM    104  C2  IDS B   6      16.024  15.977  35.4260  0.00  0.00     0.000 C
ATOM    105  C3  IDS B   6      17.028  15.826  36.5530  0.00  0.00     0.000 C
ATOM    106  C4  IDS B   6      18.277  15.074  36.1290  0.00  0.00     0.000 C
ATOM    107  C5  IDS B   6      17.887  13.866  35.2730  0.00  0.00     0.000 C
ATOM    108  O5  IDS B   6      17.114  14.247  34.1330  0.00  0.00     0.000 O
ATOM    109   O  IDS B   6      16.385  15.168  37.6320  0.00  0.00     0.000 O
ATOM    111  HD  IDS B   6      15.729  14.744  37.2560  0.00  0.00     0.000 HD
BRANCH 104 111
ATOM    111   O  IDS B   6      16.528  17.087  34.6030  0.00  0.00     0.000 O
ATOM    112   S  IDS B   6      15.479  18.184  34.0940  0.00  0.00     0.000 S
ATOM    113   O  IDS B   6      14.501  17.427  33.3270  0.00  0.00     0.000 OA
ATOM    114   O  IDS B   6      14.932  18.882  35.2630  0.00  0.00     0.000 OA
ATOM    115   O  IDS B   6      16.362  18.993  33.2830  0.00  0.00     0.000 OA
ENDBRANCH 104 111
BRANCH 107 116
ATOM    116   C  IDS B   6      19.148  13.139  34.8220  0.00  0.00     0.000 C
ATOM    117   O  IDS B   6      19.812  12.622  35.6840  0.00  0.00     0.000 OA
ATOM    118   O  IDS B   6      19.470  13.095  33.6460  0.00  0.00     0.000 OA
ENDBRANCH 107 116
BRANCH 103 119
ATOM    119  O4  SGN B   7      14.985  13.958  35.2400  0.00  0.00     0.000 O
BRANCH 119 123
ATOM    120  C1  SGN B   7      12.607  10.641  34.3270  0.00  0.00     0.000 C
ATOM    121  C2  SGN B   7      13.946  10.383  35.0440  0.00  0.00     0.000 C
ATOM    122  C3  SGN B   7      14.487  11.682  35.6550  0.00  0.00     0.000 C
ATOM    123  C4  SGN B   7      14.558  12.761  34.5880  0.00  0.00     0.000 C
ATOM    124  C5  SGN B   7      13.180  12.937  33.9300  0.00  0.00     0.000 C
ATOM    125  O5  SGN B   7      12.710  11.692  33.3680  0.00  0.00     0.000 O
ATOM    126   O  SGN B   7      15.776  11.426  36.2250  0.00  0.00     0.000 O
ATOM    128  HD  SGN B   7      15.050  11.109  35.8760  0.00  0.00     0.000 HD
BRANCH 121 130
ATOM    128   N  SGN B   7      13.333   9.084  35.3300  0.00  0.00     0.000 N
ATOM    130  HD  SGN B   7      13.672   8.756  34.6040  0.00  0.00     0.000 HD
ATOM    130   S  SGN B   7      14.196   7.816  35.8210  0.00  0.00     0.000 S
ATOM    131   O  SGN B   7      14.979   8.296  36.9070  0.00  0.00     0.000 OA
ATOM    132   O  SGN B   7      13.315   6.719  36.0020  0.00  0.00     0.000 OA
ATOM    133   O  SGN B   7      14.978   7.482  34.5050  0.00  0.00     0.000 OA
ENDBRANCH 121 130
BRANCH 124 134
ATOM    134   C  SGN B   7      13.174  13.903  32.7820  0.00  0.00     0.000 C
ATOM    135   O  SGN B   7      13.491  13.184  31.5780  0.00  0.00     0.000 O
ATOM    136   S  SGN B   7      13.386  13.989  30.2330  0.00  0.00     0.000 S
ATOM    137   O  SGN B   7      13.847  13.102  29.1920  0.00  0.00     0.000 OA
ATOM    138   O  SGN B   7      14.242  15.140  30.4140  0.00  0.00     0.000 OA
ATOM    139   O  SGN B   7      11.967  14.298  30.1640  0.00  0.00     0.000 OA
ENDBRANCH 124 134
BRANCH 120 140
ATOM    140  O4  IDS B   8      11.431  10.971  34.8730  0.00  0.00     0.000 O
BRANCH 140 144
ATOM    141  C1  IDS B   8       8.108  10.095  35.9440  0.00  0.00     0.000 C
ATOM    142  C2  IDS B   8       8.746   9.430  34.6910  0.00  0.00     0.000 C
ATOM    143  C3  IDS B   8       9.371  10.449  33.7200  0.00  0.00     0.000 C
ATOM    144  C4  IDS B   8      10.176  11.520  34.4540  0.00  0.00     0.000 C
ATOM    145  C5  IDS B   8       9.391  12.032  35.6700  0.00  0.00     0.000 C
ATOM    146  O5  IDS B   8       9.044  10.972  36.5580  0.00  0.00     0.000 O
BRANCH 142 147
ATOM    147   O  IDS B   8       9.830   8.506  35.1170  0.00  0.00     0.000 O
ATOM    148   S  IDS B   8      10.148   7.151  34.2850  0.00  0.00     0.000 S
ATOM    149   O  IDS B   8       9.013   6.884  33.4300  0.00  0.00     0.000 OA
ATOM    150   O  IDS B   8      11.360   7.430  33.5380  0.00  0.00     0.000 OA
ATOM    151   O  IDS B   8      10.323   6.119  35.2890  0.00  0.00     0.000 OA
ENDBRANCH 142 147
BRANCH 145 152
ATOM    152   C  IDS B   8      10.180  13.027  36.4970  0.00  0.00     0.000 C
ATOM    153   O  IDS B   8      10.330  14.171  36.0840  0.00  0.00     0.000 OA
ATOM    154   O  IDS B   8      10.638  12.686  37.5730  0.00  0.00     0.000 OA
ENDBRANCH 145 152
ENDBRANCH 140 144
ENDBRANCH 120 140
ENDBRANCH 119 123
ENDBRANCH 103 119
ENDBRANCH 102 106
ENDBRANCH 82 102
ENDBRANCH 81 85
ENDBRANCH 65 81
ENDBRANCH 64 68
ENDBRANCH 41 64
ENDBRANCH 40 44
ENDBRANCH 24 40
ENDBRANCH 23 27
ENDBRANCH 1 23
TORSDOF 31
ENDMDL
MODEL 45
REMARK VINA RESULT:      -7.0      7.514     22.098
ROOT
ATOM      1  C1  SGN B   1      23.029  18.675  27.9310  0.00  0.00     0.000 C
ATOM      2  C2  SGN B   1      23.681  19.265  29.1930  0.00  0.00     0.000 C
ATOM      3  C3  SGN B   1      25.132  19.674  28.9130  0.00  0.00     0.000 C
ATOM      4  C4  SGN B   1      25.917  18.487  28.3660  0.00  0.00     0.000 C
ATOM      5  C5  SGN B   1      25.141  17.866  27.2070  0.00  0.00     0.000 C
ATOM      6  O5  SGN B   1      23.812  17.524  27.6460  0.00  0.00     0.000 O
ATOM      7   O  SGN B   1      25.746  20.178  30.0930  0.00  0.00     0.000 O
ATOM      9  HD  SGN B   1      25.549  19.368  30.3290  0.00  0.00     0.000 HD
ATOM      9   O  SGN B   1      27.188  18.927  27.9230  0.00  0.00     0.000 O
ATOM     11  HD  SGN B   1      26.991  18.117  28.1580  0.00  0.00     0.000 HD
ENDROOT
BRANCH 2 13
ATOM     11   N  SGN B   1      22.585  19.188  30.1760  0.00  0.00     0.000 N
ATOM     13  HD  SGN B   1      22.463  19.574  29.4100  0.00  0.00     0.000 HD
ATOM     13   S  SGN B   1      21.414  20.289  30.2450  0.00  0.00     0.000 S
ATOM     14   O  SGN B   1      21.588  21.248  29.2250  0.00  0.00     0.000 OA
ATOM     15   O  SGN B   1      20.166  19.613  30.3650  0.00  0.00     0.000 OA
ATOM     16   O  SGN B   1      21.750  20.884  31.6470  0.00  0.00     0.000 OA
ENDBRANCH 2 13
BRANCH 5 17
ATOM     17   C  SGN B   1      25.767  16.611  26.6510  0.00  0.00     0.000 C
ATOM     18   O  SGN B   1      25.837  16.664  25.2120  0.00  0.00     0.000 O
ATOM     19   S  SGN B   1      25.381  15.341  24.4380  0.00  0.00     0.000 S
ATOM     20   O  SGN B   1      25.762  15.563  23.0590  0.00  0.00     0.000 OA
ATOM     21   O  SGN B   1      26.125  14.283  25.0810  0.00  0.00     0.000 OA
ATOM     22   O  SGN B   1      23.951  15.261  24.6380  0.00  0.00     0.000 OA
ENDBRANCH 5 17
BRANCH 1 23
ATOM     23  O4  IDS B   2      22.318  19.062  26.8340  0.00  0.00     0.000 O
BRANCH 23 27
ATOM     24  C1  IDS B   2      24.413  19.556  23.2840  0.00  0.00     0.000 C
ATOM     25  C2  IDS B   2      24.483  20.743  24.2710  0.00  0.00     0.000 C
ATOM     26  C3  IDS B   2      23.941  20.346  25.6410  0.00  0.00     0.000 C
ATOM     27  C4  IDS B   2      22.533  19.768  25.5930  0.00  0.00     0.000 C
ATOM     28  C5  IDS B   2      22.362  18.901  24.3290  0.00  0.00     0.000 C
ATOM     29  O5  IDS B   2      23.622  18.488  23.8230  0.00  0.00     0.000 O
ATOM     30   O  IDS B   2      23.905  21.494  26.4810  0.00  0.00     0.000 O
ATOM     32  HD  IDS B   2      23.225  22.008  26.3280  0.00  0.00     0.000 HD
BRANCH 25 32
ATOM     32   O  IDS B   2      25.870  21.233  24.4620  0.00  0.00     0.000 O
ATOM     33   S  IDS B   2      26.312  22.773  24.0680  0.00  0.00     0.000 S
ATOM     34   O  IDS B   2      27.762  22.818  24.1750  0.00  0.00     0.000 OA
ATOM     35   O  IDS B   2      25.870  23.072  22.7130  0.00  0.00     0.000 OA
ATOM     36   O  IDS B   2      25.685  23.623  25.0520  0.00  0.00     0.000 OA
ENDBRANCH 25 32
BRANCH 28 37
ATOM     37   C  IDS B   2      21.447  17.662  24.4230  0.00  0.00     0.000 C
ATOM     38   O  IDS B   2      20.457  17.861  25.0870  0.00  0.00     0.000 OA
ATOM     39   O  IDS B   2      21.609  16.558  23.8480  0.00  0.00     0.000 OA
ENDBRANCH 28 37
BRANCH 24 40
ATOM     40  O4  SUS B   3      24.785  19.727  21.9990  0.00  0.00     0.000 O
BRANCH 40 44
ATOM     41  C1  SUS B   3      26.699  17.102  19.3540  0.00  0.00     0.000 C
ATOM     42  C2  SUS B   3      25.240  16.780  19.7340  0.00  0.00     0.000 C
ATOM     43  C3  SUS B   3      24.573  18.040  20.2810  0.00  0.00     0.000 C
ATOM     44  C4  SUS B   3      25.407  18.579  21.4330  0.00  0.00     0.000 C
ATOM     45  C5  SUS B   3      26.783  18.942  20.9130  0.00  0.00     0.000 C
ATOM     46  O5  SUS B   3      27.410  17.741  20.4210  0.00  0.00     0.000 O
BRANCH 42 49
ATOM     47   N  SUS B   3      24.965  15.361  20.0180  0.00  0.00     0.000 N
ATOM     49  HD  SUS B   3      25.634  14.884  20.2880  0.00  0.00     0.000 HD
ATOM     49   S  SUS B   3      24.281  14.606  18.7820  0.00  0.00     0.000 S
ATOM     50   O  SUS B   3      25.103  14.710  17.6420  0.00  0.00     0.000 OA
ATOM     51   O  SUS B   3      24.356  13.178  19.3810  0.00  0.00     0.000 OA
ATOM     52   O  SUS B   3      22.941  15.026  18.6610  0.00  0.00     0.000 OA
ENDBRANCH 42 49
BRANCH 43 53
ATOM     53   O  SUS B   3      23.229  17.670  20.7650  0.00  0.00     0.000 O
ATOM     54   S  SUS B   3      21.949  18.459  20.1010  0.00  0.00     0.000 S
ATOM     55   O  SUS B   3      21.808  17.986  18.7310  0.00  0.00     0.000 OA
ATOM     56   O  SUS B   3      20.833  18.106  20.9600  0.00  0.00     0.000 OA
ATOM     57   O  SUS B   3      22.278  19.887  20.1380  0.00  0.00     0.000 OA
ENDBRANCH 43 53
BRANCH 45 58
ATOM     58   C  SUS B   3      27.642  19.580  21.9830  0.00  0.00     0.000 C
ATOM     59   S  SUS B   3      29.126  19.020  24.0010  0.00  0.00     0.000 S
ATOM     60   O  SUS B   3      28.345  18.554  22.7040  0.00  0.00     0.000 O
ATOM     61   O  SUS B   3      28.107  19.176  25.0210  0.00  0.00     0.000 OA
ATOM     62   O  SUS B   3      29.971  17.879  24.2290  0.00  0.00     0.000 OA
ATOM     63   O  SUS B   3      29.802  20.213  23.6290  0.00  0.00     0.000 OA
ENDBRANCH 45 58
BRANCH 41 64
ATOM     64  O4  IDS B   4      26.830  17.728  18.1390  0.00  0.00     0.000 O
BRANCH 64 68
ATOM     65  C1  IDS B   4      28.154  18.476  14.8280  0.00  0.00     0.000 C
ATOM     66  C2  IDS B   4      27.773  17.038  15.2010  0.00  0.00     0.000 C
ATOM     67  C3  IDS B   4      28.285  16.584  16.5570  0.00  0.00     0.000 C
ATOM     68  C4  IDS B   4      28.176  17.662  17.6190  0.00  0.00     0.000 C
ATOM     69  C5  IDS B   4      28.662  18.984  17.0100  0.00  0.00     0.000 C
ATOM     70  O5  IDS B   4      27.820  19.331  15.9070  0.00  0.00     0.000 O
ATOM     71   O  IDS B   4      29.637  16.211  16.3920  0.00  0.00     0.000 O
ATOM     73  HD  IDS B   4      28.833  16.396  16.1280  0.00  0.00     0.000 HD
BRANCH 66 73
ATOM     73   O  IDS B   4      26.309  16.943  15.2830  0.00  0.00     0.000 O
ATOM     74   S  IDS B   4      25.543  16.054  14.1690  0.00  0.00     0.000 S
ATOM     75   O  IDS B   4      25.923  16.594  12.8810  0.00  0.00     0.000 OA
ATOM     76   O  IDS B   4      24.161  16.275  14.5130  0.00  0.00     0.000 OA
ATOM     77   O  IDS B   4      25.998  14.700  14.3780  0.00  0.00     0.000 OA
ENDBRANCH 66 73
BRANCH 69 78
ATOM     78   C  IDS B   4      28.822  20.118  18.0130  0.00  0.00     0.000 C
ATOM     79   O  IDS B   4      29.745  20.063  18.8240  0.00  0.00     0.000 OA
ATOM     80   O  IDS B   4      28.081  21.113  17.9100  0.00  0.00     0.000 OA
ENDBRANCH 69 78
BRANCH 65 81
ATOM     81  O4  SGN B   5      29.447  18.506  14.4000  0.00  0.00     0.000 O
BRANCH 81 85
ATOM     82  C1  SGN B   5      32.165  21.105  12.5310  0.00  0.00     0.000 C
ATOM     83  C2  SGN B   5      32.403  20.798  14.0170  0.00  0.00     0.000 C
ATOM     84  C3  SGN B   5      31.643  19.522  14.4050  0.00  0.00     0.000 C
ATOM     85  C4  SGN B   5      30.175  19.687  14.0570  0.00  0.00     0.000 C
ATOM     86  C5  SGN B   5      30.065  19.964  12.5600  0.00  0.00     0.000 C
ATOM     87  O5  SGN B   5      30.778  21.179  12.2610  0.00  0.00     0.000 O
ATOM     88   O  SGN B   5      31.810  19.265  15.7830  0.00  0.00     0.000 O
ATOM     90  HD  SGN B   5      32.231  18.861  15.1420  0.00  0.00     0.000 HD
BRANCH 83 92
ATOM     90   N  SGN B   5      33.595  21.599  13.6760  0.00  0.00     0.000 N
ATOM     92  HD  SGN B   5      33.396  22.228  13.1160  0.00  0.00     0.000 HD
ATOM     92   S  SGN B   5      34.573  22.032  14.8630  0.00  0.00     0.000 S
ATOM     93   O  SGN B   5      35.604  22.786  14.2160  0.00  0.00     0.000 OA
ATOM     94   O  SGN B   5      33.744  22.651  15.8400  0.00  0.00     0.000 OA
ATOM     95   O  SGN B   5      35.067  20.728  15.4510  0.00  0.00     0.000 OA
ENDBRANCH 83 92
BRANCH 86 96
ATOM     96   C  SGN B   5      28.645  20.140  12.0630  0.00  0.00     0.000 C
ATOM     97   O  SGN B   5      28.593  20.026  10.6390  0.00  0.00     0.000 O
ATOM     98   S  SGN B   5      27.500  19.011  10.0510  0.00  0.00     0.000 S
ATOM     99   O  SGN B   5      27.555  19.270   8.6330  0.00  0.00     0.000 OA
ATOM    100   O  SGN B   5      27.889  17.700  10.4290  0.00  0.00     0.000 OA
ATOM    101   O  SGN B   5      26.273  19.422  10.6540  0.00  0.00     0.000 OA
ENDBRANCH 86 96
BRANCH 82 102
ATOM    102  O4  IDS B   6      32.762  20.199  11.7060  0.00  0.00     0.000 O
BRANCH 102 106
ATOM    103  C1  IDS B   6      35.239  19.714   9.0820  0.00  0.00     0.000 C
ATOM    104  C2  IDS B   6      35.305  20.939  10.0080  0.00  0.00     0.000 C
ATOM    105  C3  IDS B   6      33.990  21.669  10.2020  0.00  0.00     0.000 C
ATOM    106  C4  IDS B   6      32.811  20.724  10.3550  0.00  0.00     0.000 C
ATOM    107  C5  IDS B   6      32.923  19.588   9.3340  0.00  0.00     0.000 C
ATOM    108  O5  IDS B   6      34.158  18.881   9.4560  0.00  0.00     0.000 O
ATOM    109   O  IDS B   6      33.799  22.537   9.0970  0.00  0.00     0.000 O
ATOM    111  HD  IDS B   6      34.287  22.188   8.4720  0.00  0.00     0.000 HD
BRANCH 104 111
ATOM    111   O  IDS B   6      35.708  20.502  11.3540  0.00  0.00     0.000 O
ATOM    112   S  IDS B   6      37.253  20.626  11.7540  0.00  0.00     0.000 S
ATOM    113   O  IDS B   6      37.954  19.825  10.7620  0.00  0.00     0.000 OA
ATOM    114   O  IDS B   6      37.618  22.048  11.7620  0.00  0.00     0.000 OA
ATOM    115   O  IDS B   6      37.204  20.022  13.0680  0.00  0.00     0.000 OA
ENDBRANCH 104 111
BRANCH 107 116
ATOM    116   C  IDS B   6      31.756  18.627   9.5190  0.00  0.00     0.000 C
ATOM    117   O  IDS B   6      30.800  18.790   8.8050  0.00  0.00     0.000 OA
ATOM    118   O  IDS B   6      31.790  17.741  10.3600  0.00  0.00     0.000 OA
ENDBRANCH 107 116
BRANCH 103 119
ATOM    119  O4  SGN B   7      35.322  20.248   7.8370  0.00  0.00     0.000 O
BRANCH 119 123
ATOM    120  C1  SGN B   7      35.240  18.718   3.9460  0.00  0.00     0.000 C
ATOM    121  C2  SGN B   7      33.922  19.268   4.5240  0.00  0.00     0.000 C
ATOM    122  C3  SGN B   7      34.198  20.137   5.7580  0.00  0.00     0.000 C
ATOM    123  C4  SGN B   7      35.031  19.357   6.7600  0.00  0.00     0.000 C
ATOM    124  C5  SGN B   7      36.316  18.847   6.0870  0.00  0.00     0.000 C
ATOM    125  O5  SGN B   7      36.009  18.033   4.9330  0.00  0.00     0.000 O
ATOM    126   O  SGN B   7      32.949  20.549   6.3260  0.00  0.00     0.000 O
ATOM    128  HD  SGN B   7      33.371  20.179   5.6660  0.00  0.00     0.000 HD
BRANCH 121 130
ATOM    128   N  SGN B   7      33.010  18.587   3.6020  0.00  0.00     0.000 N
ATOM    130  HD  SGN B   7      32.340  18.769   4.1190  0.00  0.00     0.000 HD
ATOM    130   S  SGN B   7      31.978  19.392   2.6630  0.00  0.00     0.000 S
ATOM    131   O  SGN B   7      32.763  20.386   2.0140  0.00  0.00     0.000 OA
ATOM    132   O  SGN B   7      31.240  18.450   1.9010  0.00  0.00     0.000 OA
ATOM    133   O  SGN B   7      30.966  19.911   3.7390  0.00  0.00     0.000 OA
ENDBRANCH 121 130
BRANCH 124 134
ATOM    134   C  SGN B   7      37.153  17.964   6.9660  0.00  0.00     0.000 C
ATOM    135   O  SGN B   7      37.312  16.691   6.3180  0.00  0.00     0.000 O
ATOM    136   S  SGN B   7      38.288  15.671   7.0080  0.00  0.00     0.000 S
ATOM    137   O  SGN B   7      38.203  14.449   6.2450  0.00  0.00     0.000 OA
ATOM    138   O  SGN B   7      37.793  15.530   8.3580  0.00  0.00     0.000 OA
ATOM    139   O  SGN B   7      39.571  16.347   6.9040  0.00  0.00     0.000 OA
ENDBRANCH 124 134
BRANCH 120 140
ATOM    140  O4  IDS B   8      36.224  19.399   3.3480  0.00  0.00     0.000 O
BRANCH 140 144
ATOM    141  C1  IDS B   8      38.660  21.766   2.1560  0.00  0.00     0.000 C
ATOM    142  C2  IDS B   8      37.137  22.039   2.0010  0.00  0.00     0.000 C
ATOM    143  C3  IDS B   8      36.366  20.843   1.4140  0.00  0.00     0.000 C
ATOM    144  C4  IDS B   8      36.798  19.519   2.0410  0.00  0.00     0.000 C
ATOM    145  C5  IDS B   8      38.330  19.450   2.1290  0.00  0.00     0.000 C
ATOM    146  O5  IDS B   8      38.866  20.549   2.8620  0.00  0.00     0.000 O
BRANCH 142 147
ATOM    147   O  IDS B   8      36.548  22.331   3.3340  0.00  0.00     0.000 O
ATOM    148   S  IDS B   8      35.513  23.563   3.5400  0.00  0.00     0.000 S
ATOM    149   O  IDS B   8      35.635  24.434   2.3920  0.00  0.00     0.000 OA
ATOM    150   O  IDS B   8      34.201  22.954   3.6460  0.00  0.00     0.000 OA
ATOM    151   O  IDS B   8      35.938  24.218   4.7630  0.00  0.00     0.000 OA
ENDBRANCH 142 147
BRANCH 145 152
ATOM    152   C  IDS B   8      38.818  18.200   2.8340  0.00  0.00     0.000 C
ATOM    153   O  IDS B   8      38.772  17.122   2.2530  0.00  0.00     0.000 OA
ATOM    154   O  IDS B   8      39.270  18.284   3.9620  0.00  0.00     0.000 OA
ENDBRANCH 145 152
ENDBRANCH 140 144
ENDBRANCH 120 140
ENDBRANCH 119 123
ENDBRANCH 103 119
ENDBRANCH 102 106
ENDBRANCH 82 102
ENDBRANCH 81 85
ENDBRANCH 65 81
ENDBRANCH 64 68
ENDBRANCH 41 64
ENDBRANCH 40 44
ENDBRANCH 24 40
ENDBRANCH 23 27
ENDBRANCH 1 23
TORSDOF 31
ENDMDL
MODEL 46
REMARK VINA RESULT:      -7.0      4.546      7.232
ROOT
ATOM      1  C1  SGN B   1      28.271  10.836  14.4540  0.00  0.00     0.000 C
ATOM      2  C2  SGN B   1      29.604  10.438  15.1080  0.00  0.00     0.000 C
ATOM      3  C3  SGN B   1      30.259   9.282  14.3440  0.00  0.00     0.000 C
ATOM      4  C4  SGN B   1      29.297   8.103  14.2450  0.00  0.00     0.000 C
ATOM      5  C5  SGN B   1      27.951   8.600  13.7220  0.00  0.00     0.000 C
ATOM      6  O5  SGN B   1      27.471   9.667  14.5630  0.00  0.00     0.000 O
ATOM      7   O  SGN B   1      31.470   8.887  14.9770  0.00  0.00     0.000 O
ATOM      9  HD  SGN B   1      30.888   8.735  15.6000  0.00  0.00     0.000 HD
ATOM      9   O  SGN B   1      29.833   7.130  13.3680  0.00  0.00     0.000 O
ATOM     11  HD  SGN B   1      29.250   6.979  13.9910  0.00  0.00     0.000 HD
ENDROOT
BRANCH 2 13
ATOM     11   N  SGN B   1      29.429  11.489  16.1280  0.00  0.00     0.000 N
ATOM     13  HD  SGN B   1      29.642  11.696  15.3140  0.00  0.00     0.000 HD
ATOM     13   S  SGN B   1      30.212  12.893  16.0570  0.00  0.00     0.000 S
ATOM     14   O  SGN B   1      31.001  12.951  14.8890  0.00  0.00     0.000 OA
ATOM     15   O  SGN B   1      29.284  13.940  16.3280  0.00  0.00     0.000 OA
ATOM     16   O  SGN B   1      31.095  12.720  17.3310  0.00  0.00     0.000 OA
ENDBRANCH 2 13
BRANCH 5 17
ATOM     17   C  SGN B   1      26.878   7.540  13.6840  0.00  0.00     0.000 C
ATOM     18   O  SGN B   1      25.870   7.863  12.7050  0.00  0.00     0.000 O
ATOM     19   S  SGN B   1      24.352   7.679  13.1750  0.00  0.00     0.000 S
ATOM     20   O  SGN B   1      23.565   7.833  11.9690  0.00  0.00     0.000 OA
ATOM     21   O  SGN B   1      24.312   6.345  13.7250  0.00  0.00     0.000 OA
ATOM     22   O  SGN B   1      24.129   8.725  14.1500  0.00  0.00     0.000 OA
ENDBRANCH 5 17
BRANCH 1 23
ATOM     23  O4  IDS B   2      27.774  11.675  13.5000  0.00  0.00     0.000 O
BRANCH 23 27
ATOM     24  C1  IDS B   2      25.546  14.997  14.6110  0.00  0.00     0.000 C
ATOM     25  C2  IDS B   2      24.814  13.640  14.7050  0.00  0.00     0.000 C
ATOM     26  C3  IDS B   2      25.795  12.479  14.5670  0.00  0.00     0.000 C
ATOM     27  C4  IDS B   2      26.642  12.547  13.3030  0.00  0.00     0.000 C
ATOM     28  C5  IDS B   2      27.011  14.012  12.9940  0.00  0.00     0.000 C
ATOM     29  O5  IDS B   2      26.894  14.820  14.1560  0.00  0.00     0.000 O
ATOM     30   O  IDS B   2      25.070  11.255  14.5330  0.00  0.00     0.000 O
ATOM     32  HD  IDS B   2      24.717  11.089  13.7600  0.00  0.00     0.000 HD
BRANCH 25 32
ATOM     32   O  IDS B   2      24.103  13.475  15.9970  0.00  0.00     0.000 O
ATOM     33   S  IDS B   2      22.472  13.692  16.1290  0.00  0.00     0.000 S
ATOM     34   O  IDS B   2      22.175  13.671  17.5520  0.00  0.00     0.000 OA
ATOM     35   O  IDS B   2      22.103  14.965  15.5260  0.00  0.00     0.000 OA
ATOM     36   O  IDS B   2      21.873  12.566  15.4500  0.00  0.00     0.000 OA
ENDBRANCH 25 32
BRANCH 28 37
ATOM     37   C  IDS B   2      28.383  14.288  12.3470  0.00  0.00     0.000 C
ATOM     38   O  IDS B   2      28.469  13.845  11.2260  0.00  0.00     0.000 OA
ATOM     39   O  IDS B   2      29.330  14.951  12.8370  0.00  0.00     0.000 OA
ENDBRANCH 28 37
BRANCH 24 40
ATOM     40  O4  SUS B   3      24.840  16.146  14.6430  0.00  0.00     0.000 O
BRANCH 40 44
ATOM     41  C1  SUS B   3      25.923  19.807  16.3670  0.00  0.00     0.000 C
ATOM     42  C2  SUS B   3      26.087  19.671  14.8400  0.00  0.00     0.000 C
ATOM     43  C3  SUS B   3      25.224  18.513  14.3430  0.00  0.00     0.000 C
ATOM     44  C4  SUS B   3      25.592  17.258  15.1180  0.00  0.00     0.000 C
ATOM     45  C5  SUS B   3      25.301  17.486  16.5870  0.00  0.00     0.000 C
ATOM     46  O5  SUS B   3      26.138  18.567  17.0490  0.00  0.00     0.000 O
BRANCH 42 49
ATOM     47   N  SUS B   3      27.138  20.701  14.9060  0.00  0.00     0.000 N
ATOM     49  HD  SUS B   3      27.156  21.191  15.6200  0.00  0.00     0.000 HD
ATOM     49   S  SUS B   3      27.129  21.676  13.6350  0.00  0.00     0.000 S
ATOM     50   O  SUS B   3      25.867  22.293  13.5130  0.00  0.00     0.000 OA
ATOM     51   O  SUS B   3      28.179  22.681  14.1720  0.00  0.00     0.000 OA
ATOM     52   O  SUS B   3      27.628  20.985  12.5130  0.00  0.00     0.000 OA
ENDBRANCH 42 49
BRANCH 43 53
ATOM     53   O  SUS B   3      25.508  18.318  12.9080  0.00  0.00     0.000 O
ATOM     54   S  SUS B   3      24.280  18.606  11.8550  0.00  0.00     0.000 S
ATOM     55   O  SUS B   3      24.061  20.046  11.8230  0.00  0.00     0.000 OA
ATOM     56   O  SUS B   3      24.758  18.059  10.5980  0.00  0.00     0.000 OA
ATOM     57   O  SUS B   3      23.107  17.902  12.3830  0.00  0.00     0.000 OA
ENDBRANCH 43 53
BRANCH 45 58
ATOM     58   C  SUS B   3      25.549  16.244  17.4140  0.00  0.00     0.000 C
ATOM     59   S  SUS B   3      24.808  15.050  19.5610  0.00  0.00     0.000 S
ATOM     60   O  SUS B   3      24.572  16.169  18.4660  0.00  0.00     0.000 O
ATOM     61   O  SUS B   3      25.845  15.577  20.4270  0.00  0.00     0.000 OA
ATOM     62   O  SUS B   3      23.517  15.020  20.1950  0.00  0.00     0.000 OA
ATOM     63   O  SUS B   3      25.157  13.878  18.8380  0.00  0.00     0.000 OA
ENDBRANCH 45 58
BRANCH 41 64
ATOM     64  O4  IDS B   4      24.779  20.466  16.7450  0.00  0.00     0.000 O
BRANCH 64 68
ATOM     65  C1  IDS B   4      22.408  22.456  18.6670  0.00  0.00     0.000 C
ATOM     66  C2  IDS B   4      23.350  23.133  17.6630  0.00  0.00     0.000 C
ATOM     67  C3  IDS B   4      24.797  22.681  17.7550  0.00  0.00     0.000 C
ATOM     68  C4  IDS B   4      24.935  21.188  17.9860  0.00  0.00     0.000 C
ATOM     69  C5  IDS B   4      23.922  20.776  19.0640  0.00  0.00     0.000 C
ATOM     70  O5  IDS B   4      22.600  21.055  18.5980  0.00  0.00     0.000 O
ATOM     71   O  IDS B   4      25.389  23.386  18.8270  0.00  0.00     0.000 O
ATOM     73  HD  IDS B   4      24.791  23.233  18.2200  0.00  0.00     0.000 HD
BRANCH 66 73
ATOM     73   O  IDS B   4      22.918  22.786  16.3020  0.00  0.00     0.000 O
ATOM     74   S  IDS B   4      22.194  23.934  15.4210  0.00  0.00     0.000 S
ATOM     75   O  IDS B   4      21.055  24.385  16.1920  0.00  0.00     0.000 OA
ATOM     76   O  IDS B   4      21.843  23.211  14.2240  0.00  0.00     0.000 OA
ATOM     77   O  IDS B   4      23.192  24.957  15.2250  0.00  0.00     0.000 OA
ENDBRANCH 66 73
BRANCH 69 78
ATOM     78   C  IDS B   4      24.085  19.348  19.5670  0.00  0.00     0.000 C
ATOM     79   O  IDS B   4      25.155  19.018  20.0750  0.00  0.00     0.000 OA
ATOM     80   O  IDS B   4      23.096  18.593  19.5450  0.00  0.00     0.000 OA
ENDBRANCH 69 78
BRANCH 65 81
ATOM     81  O4  SGN B   5      22.558  23.037  19.8900  0.00  0.00     0.000 O
BRANCH 81 85
ATOM     82  C1  SGN B   5      20.492  22.721  23.5330  0.00  0.00     0.000 C
ATOM     83  C2  SGN B   5      19.941  21.915  22.3460  0.00  0.00     0.000 C
ATOM     84  C3  SGN B   5      21.031  21.769  21.2750  0.00  0.00     0.000 C
ATOM     85  C4  SGN B   5      21.533  23.147  20.8800  0.00  0.00     0.000 C
ATOM     86  C5  SGN B   5      22.073  23.837  22.1300  0.00  0.00     0.000 C
ATOM     87  O5  SGN B   5      21.004  23.962  23.0870  0.00  0.00     0.000 O
ATOM     88   O  SGN B   5      20.516  21.079  20.1580  0.00  0.00     0.000 O
ATOM     90  HD  SGN B   5      21.023  20.735  20.7700  0.00  0.00     0.000 HD
BRANCH 83 92
ATOM     90   N  SGN B   5      19.419  20.731  23.0570  0.00  0.00     0.000 N
ATOM     92  HD  SGN B   5      19.823  20.620  23.8140  0.00  0.00     0.000 HD
ATOM     92   S  SGN B   5      17.836  20.517  23.0970  0.00  0.00     0.000 S
ATOM     93   O  SGN B   5      17.660  19.312  23.8490  0.00  0.00     0.000 OA
ATOM     94   O  SGN B   5      17.293  21.742  23.5750  0.00  0.00     0.000 OA
ATOM     95   O  SGN B   5      17.430  20.380  21.6460  0.00  0.00     0.000 OA
ENDBRANCH 83 92
BRANCH 86 96
ATOM     96   C  SGN B   5      22.623  25.227  21.8830  0.00  0.00     0.000 C
ATOM     97   O  SGN B   5      21.563  26.144  21.6050  0.00  0.00     0.000 O
ATOM     98   S  SGN B   5      21.556  27.498  22.4640  0.00  0.00     0.000 S
ATOM     99   O  SGN B   5      20.523  28.276  21.8240  0.00  0.00     0.000 OA
ATOM    100   O  SGN B   5      21.283  27.146  23.8110  0.00  0.00     0.000 OA
ATOM    101   O  SGN B   5      22.864  28.038  22.2850  0.00  0.00     0.000 OA
ENDBRANCH 86 96
BRANCH 82 102
ATOM    102  O4  IDS B   6      21.441  22.039  24.2340  0.00  0.00     0.000 O
BRANCH 102 106
ATOM    103  C1  IDS B   6      22.942  20.377  27.1050  0.00  0.00     0.000 C
ATOM    104  C2  IDS B   6      21.557  19.956  26.5890  0.00  0.00     0.000 C
ATOM    105  C3  IDS B   6      20.598  21.099  26.3170  0.00  0.00     0.000 C
ATOM    106  C4  IDS B   6      21.274  22.286  25.6530  0.00  0.00     0.000 C
ATOM    107  C5  IDS B   6      22.626  22.552  26.3220  0.00  0.00     0.000 C
ATOM    108  O5  IDS B   6      23.473  21.403  26.2880  0.00  0.00     0.000 O
ATOM    109   O  IDS B   6      20.005  21.480  27.5470  0.00  0.00     0.000 O
ATOM    111  HD  IDS B   6      20.569  21.206  28.1440  0.00  0.00     0.000 HD
BRANCH 104 111
ATOM    111   O  IDS B   6      21.715  19.266  25.2990  0.00  0.00     0.000 O
ATOM    112   S  IDS B   6      21.321  17.717  25.2210  0.00  0.00     0.000 S
ATOM    113   O  IDS B   6      22.167  17.073  26.2140  0.00  0.00     0.000 OA
ATOM    114   O  IDS B   6      19.880  17.592  25.4700  0.00  0.00     0.000 OA
ATOM    115   O  IDS B   6      21.708  17.446  23.8540  0.00  0.00     0.000 OA
ENDBRANCH 104 111
BRANCH 107 116
ATOM    116   C  IDS B   6      23.311  23.721  25.6270  0.00  0.00     0.000 C
ATOM    117   O  IDS B   6      24.307  23.469  24.9970  0.00  0.00     0.000 OA
ATOM    118   O  IDS B   6      22.874  24.858  25.7140  0.00  0.00     0.000 OA
ENDBRANCH 107 116
BRANCH 103 119
ATOM    119  O4  SGN B   7      22.746  20.564  28.4350  0.00  0.00     0.000 O
BRANCH 119 123
ATOM    120  C1  SGN B   7      25.210  19.525  31.6510  0.00  0.00     0.000 C
ATOM    121  C2  SGN B   7      24.745  20.990  31.5530  0.00  0.00     0.000 C
ATOM    122  C3  SGN B   7      23.558  21.114  30.5890  0.00  0.00     0.000 C
ATOM    123  C4  SGN B   7      23.917  20.492  29.2500  0.00  0.00     0.000 C
ATOM    124  C5  SGN B   7      24.373  19.038  29.4550  0.00  0.00     0.000 C
ATOM    125  O5  SGN B   7      25.491  18.969  30.3680  0.00  0.00     0.000 O
ATOM    126   O  SGN B   7      23.216  22.498  30.4470  0.00  0.00     0.000 O
ATOM    128  HD  SGN B   7      23.671  21.892  30.8660  0.00  0.00     0.000 HD
BRANCH 121 130
ATOM    128   N  SGN B   7      25.772  21.583  32.4130  0.00  0.00     0.000 N
ATOM    130  HD  SGN B   7      25.562  22.374  32.1310  0.00  0.00     0.000 HD
ATOM    130   S  SGN B   7      25.405  22.406  33.7470  0.00  0.00     0.000 S
ATOM    131   O  SGN B   7      24.513  21.566  34.4700  0.00  0.00     0.000 OA
ATOM    132   O  SGN B   7      26.613  22.851  34.3440  0.00  0.00     0.000 OA
ATOM    133   O  SGN B   7      24.777  23.696  33.1180  0.00  0.00     0.000 OA
ENDBRANCH 121 130
BRANCH 124 134
ATOM    134   C  SGN B   7      24.860  18.372  28.2020  0.00  0.00     0.000 C
ATOM    135   O  SGN B   7      26.295  18.448  28.1710  0.00  0.00     0.000 O
ATOM    136   S  SGN B   7      27.012  17.670  27.0090  0.00  0.00     0.000 S
ATOM    137   O  SGN B   7      28.418  17.977  27.1230  0.00  0.00     0.000 OA
ATOM    138   O  SGN B   7      26.420  18.178  25.7920  0.00  0.00     0.000 OA
ATOM    139   O  SGN B   7      26.681  16.286  27.3080  0.00  0.00     0.000 OA
ENDBRANCH 124 134
BRANCH 120 140
ATOM    140  O4  IDS B   8      24.558  18.488  32.1890  0.00  0.00     0.000 O
BRANCH 140 144
ATOM    141  C1  IDS B   8      21.849  16.487  33.4610  0.00  0.00     0.000 C
ATOM    142  C2  IDS B   8      21.903  18.019  33.7230  0.00  0.00     0.000 C
ATOM    143  C3  IDS B   8      23.273  18.495  34.2390  0.00  0.00     0.000 C
ATOM    144  C4  IDS B   8      24.428  17.857  33.4690  0.00  0.00     0.000 C
ATOM    145  C5  IDS B   8      24.179  16.351  33.2920  0.00  0.00     0.000 C
ATOM    146  O5  IDS B   8      22.939  16.096  32.6350  0.00  0.00     0.000 O
BRANCH 142 147
ATOM    147   O  IDS B   8      21.631  18.748  32.4570  0.00  0.00     0.000 O
ATOM    148   S  IDS B   8      20.292  19.645  32.2790  0.00  0.00     0.000 S
ATOM    149   O  IDS B   8      19.366  19.262  33.3210  0.00  0.00     0.000 OA
ATOM    150   O  IDS B   8      20.730  21.023  32.3970  0.00  0.00     0.000 OA
ATOM    151   O  IDS B   8      19.786  19.320  30.9590  0.00  0.00     0.000 OA
ENDBRANCH 142 147
BRANCH 145 152
ATOM    152   C  IDS B   8      25.243  15.679  32.4490  0.00  0.00     0.000 C
ATOM    153   O  IDS B   8      25.464  14.482  32.5960  0.00  0.00     0.000 OA
ATOM    154   O  IDS B   8      25.854  16.329  31.6200  0.00  0.00     0.000 OA
ENDBRANCH 145 152
ENDBRANCH 140 144
ENDBRANCH 120 140
ENDBRANCH 119 123
ENDBRANCH 103 119
ENDBRANCH 102 106
ENDBRANCH 82 102
ENDBRANCH 81 85
ENDBRANCH 65 81
ENDBRANCH 64 68
ENDBRANCH 41 64
ENDBRANCH 40 44
ENDBRANCH 24 40
ENDBRANCH 23 27
ENDBRANCH 1 23
TORSDOF 31
ENDMDL
MODEL 47
REMARK VINA RESULT:      -7.0      7.597     10.904
ROOT
ATOM      1  C1  SGN B   1      28.187  10.850  14.4070  0.00  0.00     0.000 C
ATOM      2  C2  SGN B   1      29.515  10.451  15.0700  0.00  0.00     0.000 C
ATOM      3  C3  SGN B   1      30.181   9.302  14.3050  0.00  0.00     0.000 C
ATOM      4  C4  SGN B   1      29.223   8.121  14.1900  0.00  0.00     0.000 C
ATOM      5  C5  SGN B   1      27.880   8.617  13.6580  0.00  0.00     0.000 C
ATOM      6  O5  SGN B   1      27.390   9.677  14.5010  0.00  0.00     0.000 O
ATOM      7   O  SGN B   1      31.387   8.906  14.9470  0.00  0.00     0.000 O
ATOM      9  HD  SGN B   1      30.800   8.749  15.5630  0.00  0.00     0.000 HD
ATOM      9   O  SGN B   1      29.770   7.155  13.3120  0.00  0.00     0.000 O
ATOM     11  HD  SGN B   1      29.182   6.998  13.9290  0.00  0.00     0.000 HD
ENDROOT
BRANCH 2 13
ATOM     11   N  SGN B   1      29.336  11.491  16.1010  0.00  0.00     0.000 N
ATOM     13  HD  SGN B   1      29.544  11.708  15.2880  0.00  0.00     0.000 HD
ATOM     13   S  SGN B   1      30.107  12.902  16.0400  0.00  0.00     0.000 S
ATOM     14   O  SGN B   1      30.891  12.977  14.8700  0.00  0.00     0.000 OA
ATOM     15   O  SGN B   1      29.172  13.939  16.3240  0.00  0.00     0.000 OA
ATOM     16   O  SGN B   1      30.997  12.725  17.3090  0.00  0.00     0.000 OA
ENDBRANCH 2 13
BRANCH 5 17
ATOM     17   C  SGN B   1      26.811   7.554  13.6040  0.00  0.00     0.000 C
ATOM     18   O  SGN B   1      25.829   7.863  12.5940  0.00  0.00     0.000 O
ATOM     19   S  SGN B   1      24.300   7.682  13.0240  0.00  0.00     0.000 S
ATOM     20   O  SGN B   1      23.546   7.818  11.7950  0.00  0.00     0.000 OA
ATOM     21   O  SGN B   1      24.247   6.354  13.5900  0.00  0.00     0.000 OA
ATOM     22   O  SGN B   1      24.048   8.739  13.9790  0.00  0.00     0.000 OA
ENDBRANCH 5 17
BRANCH 1 23
ATOM     23  O4  IDS B   2      27.697  11.693  13.4540  0.00  0.00     0.000 O
BRANCH 23 27
ATOM     24  C1  IDS B   2      25.746  15.147  14.6780  0.00  0.00     0.000 C
ATOM     25  C2  IDS B   2      24.914  13.848  14.7560  0.00  0.00     0.000 C
ATOM     26  C3  IDS B   2      25.802  12.620  14.5740  0.00  0.00     0.000 C
ATOM     27  C4  IDS B   2      26.630  12.653  13.2970  0.00  0.00     0.000 C
ATOM     28  C5  IDS B   2      27.104  14.092  13.0130  0.00  0.00     0.000 C
ATOM     29  O5  IDS B   2      27.069  14.880  14.1940  0.00  0.00     0.000 O
ATOM     30   O  IDS B   2      24.986  11.455  14.5270  0.00  0.00     0.000 O
ATOM     32  HD  IDS B   2      24.608  11.333  13.7570  0.00  0.00     0.000 HD
BRANCH 25 32
ATOM     32   O  IDS B   2      24.214  13.707  16.0570  0.00  0.00     0.000 O
ATOM     33   S  IDS B   2      22.568  13.718  16.1670  0.00  0.00     0.000 S
ATOM     34   O  IDS B   2      22.257  13.786  17.5860  0.00  0.00     0.000 OA
ATOM     35   O  IDS B   2      22.043  14.872  15.4510  0.00  0.00     0.000 OA
ATOM     36   O  IDS B   2      22.130  12.468  15.5910  0.00  0.00     0.000 OA
ENDBRANCH 25 32
BRANCH 28 37
ATOM     37   C  IDS B   2      28.483  14.279  12.3470  0.00  0.00     0.000 C
ATOM     38   O  IDS B   2      29.274  14.849  13.0610  0.00  0.00     0.000 OA
ATOM     39   O  IDS B   2      28.841  13.855  11.2210  0.00  0.00     0.000 OA
ENDBRANCH 28 37
BRANCH 24 40
ATOM     40  O4  SUS B   3      25.130  16.345  14.7480  0.00  0.00     0.000 O
BRANCH 40 44
ATOM     41  C1  SUS B   3      26.352  19.923  16.5530  0.00  0.00     0.000 C
ATOM     42  C2  SUS B   3      27.181  19.418  15.3550  0.00  0.00     0.000 C
ATOM     43  C3  SUS B   3      26.348  18.423  14.5500  0.00  0.00     0.000 C
ATOM     44  C4  SUS B   3      25.868  17.319  15.4790  0.00  0.00     0.000 C
ATOM     45  C5  SUS B   3      24.993  17.928  16.5540  0.00  0.00     0.000 C
ATOM     46  O5  SUS B   3      25.797  18.849  17.3200  0.00  0.00     0.000 O
BRANCH 42 49
ATOM     47   N  SUS B   3      27.663  20.648  14.7040  0.00  0.00     0.000 N
ATOM     49  HD  SUS B   3      27.410  20.777  13.8860  0.00  0.00     0.000 HD
ATOM     49   S  SUS B   3      29.257  20.795  14.7610  0.00  0.00     0.000 S
ATOM     50   O  SUS B   3      29.864  19.672  14.1610  0.00  0.00     0.000 OA
ATOM     51   O  SUS B   3      29.357  22.032  13.8330  0.00  0.00     0.000 OA
ATOM     52   O  SUS B   3      29.649  21.124  16.0740  0.00  0.00     0.000 OA
ENDBRANCH 42 49
BRANCH 43 53
ATOM     53   O  SUS B   3      27.212  17.854  13.4980  0.00  0.00     0.000 O
ATOM     54   S  SUS B   3      26.888  18.287  11.9460  0.00  0.00     0.000 S
ATOM     55   O  SUS B   3      27.276  19.683  11.7920  0.00  0.00     0.000 OA
ATOM     56   O  SUS B   3      27.681  17.368  11.1500  0.00  0.00     0.000 OA
ATOM     57   O  SUS B   3      25.444  18.115  11.7600  0.00  0.00     0.000 OA
ENDBRANCH 43 53
BRANCH 45 58
ATOM     58   C  SUS B   3      24.394  16.876  17.4620  0.00  0.00     0.000 C
ATOM     59   S  SUS B   3      24.883  15.488  19.5640  0.00  0.00     0.000 S
ATOM     60   O  SUS B   3      25.239  16.702  18.6120  0.00  0.00     0.000 O
ATOM     61   O  SUS B   3      25.396  14.312  18.8870  0.00  0.00     0.000 OA
ATOM     62   O  SUS B   3      25.646  15.833  20.7340  0.00  0.00     0.000 OA
ATOM     63   O  SUS B   3      23.473  15.531  19.7240  0.00  0.00     0.000 OA
ENDBRANCH 45 58
BRANCH 41 64
ATOM     64  O4  IDS B   4      25.449  20.905  16.2260  0.00  0.00     0.000 O
BRANCH 64 68
ATOM     65  C1  IDS B   4      23.718  24.079  16.6790  0.00  0.00     0.000 C
ATOM     66  C2  IDS B   4      25.203  23.950  17.0430  0.00  0.00     0.000 C
ATOM     67  C3  IDS B   4      25.545  22.712  17.8550  0.00  0.00     0.000 C
ATOM     68  C4  IDS B   4      24.802  21.475  17.3860  0.00  0.00     0.000 C
ATOM     69  C5  IDS B   4      23.338  21.861  17.1400  0.00  0.00     0.000 C
ATOM     70  O5  IDS B   4      23.279  22.856  16.1150  0.00  0.00     0.000 O
ATOM     71   O  IDS B   4      25.211  22.987  19.2000  0.00  0.00     0.000 O
ATOM     73  HD  IDS B   4      25.392  23.186  18.3770  0.00  0.00     0.000 HD
BRANCH 66 73
ATOM     73   O  IDS B   4      25.985  23.834  15.8050  0.00  0.00     0.000 O
ATOM     74   S  IDS B   4      26.992  25.043  15.4280  0.00  0.00     0.000 S
ATOM     75   O  IDS B   4      26.189  26.246  15.3850  0.00  0.00     0.000 OA
ATOM     76   O  IDS B   4      27.490  24.623  14.1430  0.00  0.00     0.000 OA
ATOM     77   O  IDS B   4      27.986  25.057  16.4750  0.00  0.00     0.000 OA
ENDBRANCH 66 73
BRANCH 69 78
ATOM     78   C  IDS B   4      22.412  20.683  16.8750  0.00  0.00     0.000 C
ATOM     79   O  IDS B   4      22.306  19.809  17.7350  0.00  0.00     0.000 OA
ATOM     80   O  IDS B   4      21.712  20.694  15.8450  0.00  0.00     0.000 OA
ENDBRANCH 69 78
BRANCH 65 81
ATOM     81  O4  SGN B   5      23.026  24.541  17.7580  0.00  0.00     0.000 O
BRANCH 81 85
ATOM     82  C1  SGN B   5      19.365  26.332  18.7710  0.00  0.00     0.000 C
ATOM     83  C2  SGN B   5      19.511  24.831  19.0610  0.00  0.00     0.000 C
ATOM     84  C3  SGN B   5      20.999  24.453  19.0770  0.00  0.00     0.000 C
ATOM     85  C4  SGN B   5      21.636  24.873  17.7630  0.00  0.00     0.000 C
ATOM     86  C5  SGN B   5      21.448  26.379  17.5990  0.00  0.00     0.000 C
ATOM     87  O5  SGN B   5      20.037  26.668  17.5720  0.00  0.00     0.000 O
ATOM     88   O  SGN B   5      21.139  23.065  19.2860  0.00  0.00     0.000 O
ATOM     90  HD  SGN B   5      21.253  23.677  19.8870  0.00  0.00     0.000 HD
BRANCH 83 92
ATOM     90   N  SGN B   5      18.061  24.989  19.2850  0.00  0.00     0.000 N
ATOM     92  HD  SGN B   5      17.653  25.186  18.5470  0.00  0.00     0.000 HD
ATOM     92   S  SGN B   5      17.320  23.909  20.2010  0.00  0.00     0.000 S
ATOM     93   O  SGN B   5      15.952  24.333  20.2130  0.00  0.00     0.000 OA
ATOM     94   O  SGN B   5      17.668  22.640  19.6600  0.00  0.00     0.000 OA
ATOM     95   O  SGN B   5      17.992  24.024  21.5510  0.00  0.00     0.000 OA
ENDBRANCH 83 92
BRANCH 86 96
ATOM     96   C  SGN B   5      22.049  26.944  16.3290  0.00  0.00     0.000 C
ATOM     97   O  SGN B   5      21.340  26.467  15.1820  0.00  0.00     0.000 O
ATOM     98   S  SGN B   5      20.854  27.582  14.1380  0.00  0.00     0.000 S
ATOM     99   O  SGN B   5      20.373  26.792  13.0300  0.00  0.00     0.000 OA
ATOM    100   O  SGN B   5      19.862  28.365  14.7810  0.00  0.00     0.000 OA
ATOM    101   O  SGN B   5      22.036  28.322  13.8330  0.00  0.00     0.000 OA
ENDBRANCH 86 96
BRANCH 82 102
ATOM    102  O4  IDS B   6      19.810  27.110  19.7990  0.00  0.00     0.000 O
BRANCH 102 106
ATOM    103  C1  IDS B   6      19.540  29.583  22.4570  0.00  0.00     0.000 C
ATOM    104  C2  IDS B   6      18.529  28.430  22.3510  0.00  0.00     0.000 C
ATOM    105  C3  IDS B   6      17.966  28.195  20.9620  0.00  0.00     0.000 C
ATOM    106  C4  IDS B   6      19.017  28.322  19.8740  0.00  0.00     0.000 C
ATOM    107  C5  IDS B   6      19.906  29.538  20.1530  0.00  0.00     0.000 C
ATOM    108  O5  IDS B   6      20.518  29.465  21.4420  0.00  0.00     0.000 O
ATOM    109   O  IDS B   6      16.909  29.117  20.7520  0.00  0.00     0.000 O
ATOM    111  HD  IDS B   6      17.081  29.761  21.3060  0.00  0.00     0.000 HD
BRANCH 104 111
ATOM    111   O  IDS B   6      19.197  27.172  22.7170  0.00  0.00     0.000 O
ATOM    112   S  IDS B   6      18.810  26.494  24.1150  0.00  0.00     0.000 S
ATOM    113   O  IDS B   6      19.121  27.506  25.1120  0.00  0.00     0.000 OA
ATOM    114   O  IDS B   6      17.399  26.096  24.0630  0.00  0.00     0.000 OA
ATOM    115   O  IDS B   6      19.737  25.382  24.0990  0.00  0.00     0.000 OA
ENDBRANCH 104 111
BRANCH 107 116
ATOM    116   C  IDS B   6      20.979  29.635  19.0770  0.00  0.00     0.000 C
ATOM    117   O  IDS B   6      20.607  29.911  17.9640  0.00  0.00     0.000 OA
ATOM    118   O  IDS B   6      22.156  29.434  19.3320  0.00  0.00     0.000 OA
ENDBRANCH 107 116
BRANCH 103 119
ATOM    119  O4  SGN B   7      18.757  30.688  22.5590  0.00  0.00     0.000 O
BRANCH 119 123
ATOM    120  C1  SGN B   7      18.932  34.362  24.5490  0.00  0.00     0.000 C
ATOM    121  C2  SGN B   7      19.824  34.181  23.3060  0.00  0.00     0.000 C
ATOM    122  C3  SGN B   7      19.356  32.976  22.4800  0.00  0.00     0.000 C
ATOM    123  C4  SGN B   7      19.278  31.744  23.3660  0.00  0.00     0.000 C
ATOM    124  C5  SGN B   7      18.374  32.028  24.5770  0.00  0.00     0.000 C
ATOM    125  O5  SGN B   7      18.852  33.168  25.3260  0.00  0.00     0.000 O
ATOM    126   O  SGN B   7      20.263  32.778  21.3900  0.00  0.00     0.000 O
ATOM    128  HD  SGN B   7      19.995  33.281  22.0420  0.00  0.00     0.000 HD
BRANCH 121 130
ATOM    128   N  SGN B   7      20.504  35.425  23.6730  0.00  0.00     0.000 N
ATOM    130  HD  SGN B   7      21.257  35.105  23.3910  0.00  0.00     0.000 HD
ATOM    130   S  SGN B   7      21.009  36.485  22.5710  0.00  0.00     0.000 S
ATOM    131   O  SGN B   7      19.885  36.710  21.7280  0.00  0.00     0.000 OA
ATOM    132   O  SGN B   7      21.629  37.569  23.2450  0.00  0.00     0.000 OA
ATOM    133   O  SGN B   7      22.196  35.685  21.9350  0.00  0.00     0.000 OA
ENDBRANCH 121 130
BRANCH 124 134
ATOM    134   C  SGN B   7      18.326  30.908  25.5740  0.00  0.00     0.000 C
ATOM    135   O  SGN B   7      18.408  31.468  26.8960  0.00  0.00     0.000 O
ATOM    136   S  SGN B   7      18.219  30.468  28.0930  0.00  0.00     0.000 S
ATOM    137   O  SGN B   7      18.444  31.230  29.2980  0.00  0.00     0.000 OA
ATOM    138   O  SGN B   7      19.209  29.436  27.8840  0.00  0.00     0.000 OA
ATOM    139   O  SGN B   7      16.844  30.027  27.9190  0.00  0.00     0.000 OA
ENDBRANCH 124 134
BRANCH 120 140
ATOM    140  O4  IDS B   8      17.646  34.726  24.5930  0.00  0.00     0.000 O
BRANCH 140 144
ATOM    141  C1  IDS B   8      14.172  34.846  23.6540  0.00  0.00     0.000 C
ATOM    142  C2  IDS B   8      15.289  34.740  22.5770  0.00  0.00     0.000 C
ATOM    143  C3  IDS B   8      16.424  35.760  22.7800  0.00  0.00     0.000 C
ATOM    144  C4  IDS B   8      16.846  35.863  24.2450  0.00  0.00     0.000 C
ATOM    145  C5  IDS B   8      15.606  35.933  25.1500  0.00  0.00     0.000 C
ATOM    146  O5  IDS B   8      14.747  34.812  24.9550  0.00  0.00     0.000 O
BRANCH 142 147
ATOM    147   O  IDS B   8      15.901  33.386  22.6290  0.00  0.00     0.000 O
ATOM    148   S  IDS B   8      15.440  32.220  21.5990  0.00  0.00     0.000 S
ATOM    149   O  IDS B   8      14.183  32.625  21.0120  0.00  0.00     0.000 OA
ATOM    150   O  IDS B   8      16.509  32.121  20.6240  0.00  0.00     0.000 OA
ATOM    151   O  IDS B   8      15.299  31.027  22.4120  0.00  0.00     0.000 OA
ENDBRANCH 142 147
BRANCH 145 152
ATOM    152   C  IDS B   8      15.959  35.937  26.6240  0.00  0.00     0.000 C
ATOM    153   O  IDS B   8      15.545  35.038  27.3460  0.00  0.00     0.000 OA
ATOM    154   O  IDS B   8      16.668  36.821  27.0710  0.00  0.00     0.000 OA
ENDBRANCH 145 152
ENDBRANCH 140 144
ENDBRANCH 120 140
ENDBRANCH 119 123
ENDBRANCH 103 119
ENDBRANCH 102 106
ENDBRANCH 82 102
ENDBRANCH 81 85
ENDBRANCH 65 81
ENDBRANCH 64 68
ENDBRANCH 41 64
ENDBRANCH 40 44
ENDBRANCH 24 40
ENDBRANCH 23 27
ENDBRANCH 1 23
TORSDOF 31
ENDMDL
MODEL 48
REMARK VINA RESULT:      -7.0      5.096     10.168
ROOT
ATOM      1  C1  SGN B   1      33.164  21.775   8.6900  0.00  0.00     0.000 C
ATOM      2  C2  SGN B   1      33.183  23.301   8.8750  0.00  0.00     0.000 C
ATOM      3  C3  SGN B   1      32.054  23.748   9.8090  0.00  0.00     0.000 C
ATOM      4  C4  SGN B   1      30.710  23.254   9.2850  0.00  0.00     0.000 C
ATOM      5  C5  SGN B   1      30.808  21.759   8.9900  0.00  0.00     0.000 C
ATOM      6  O5  SGN B   1      31.904  21.517   8.0860  0.00  0.00     0.000 O
ATOM      7   O  SGN B   1      32.047  25.165   9.9430  0.00  0.00     0.000 O
ATOM      9  HD  SGN B   1      31.910  25.067   9.0930  0.00  0.00     0.000 HD
ATOM      9   O  SGN B   1      29.708  23.495  10.2560  0.00  0.00     0.000 O
ATOM     11  HD  SGN B   1      29.571  23.398   9.4060  0.00  0.00     0.000 HD
ENDROOT
BRANCH 2 13
ATOM     11   N  SGN B   1      34.331  23.744   8.0610  0.00  0.00     0.000 N
ATOM     13  HD  SGN B   1      34.419  23.097   8.6300  0.00  0.00     0.000 HD
ATOM     13   S  SGN B   1      35.851  23.601   8.5690  0.00  0.00     0.000 S
ATOM     14   O  SGN B   1      35.884  22.966   9.8290  0.00  0.00     0.000 OA
ATOM     15   O  SGN B   1      36.636  23.079   7.5010  0.00  0.00     0.000 OA
ATOM     16   O  SGN B   1      36.190  25.119   8.6900  0.00  0.00     0.000 OA
ENDBRANCH 2 13
BRANCH 5 17
ATOM     17   C  SGN B   1      29.568  21.174   8.3610  0.00  0.00     0.000 C
ATOM     18   O  SGN B   1      29.032  22.062   7.3590  0.00  0.00     0.000 O
ATOM     19   S  SGN B   1      27.449  22.288   7.3980  0.00  0.00     0.000 S
ATOM     20   O  SGN B   1      27.143  23.007   6.1800  0.00  0.00     0.000 OA
ATOM     21   O  SGN B   1      26.903  20.952   7.4350  0.00  0.00     0.000 OA
ATOM     22   O  SGN B   1      27.208  23.056   8.6000  0.00  0.00     0.000 OA
ENDBRANCH 5 17
BRANCH 1 23
ATOM     23  O4  IDS B   2      33.675  20.639   9.2470  0.00  0.00     0.000 O
BRANCH 23 27
ATOM     24  C1  IDS B   2      31.544  19.392  12.5830  0.00  0.00     0.000 C
ATOM     25  C2  IDS B   2      32.767  20.292  12.8700  0.00  0.00     0.000 C
ATOM     26  C3  IDS B   2      33.290  20.928  11.5860  0.00  0.00     0.000 C
ATOM     27  C4  IDS B   2      33.611  19.916  10.4940  0.00  0.00     0.000 C
ATOM     28  C5  IDS B   2      32.576  18.773  10.5150  0.00  0.00     0.000 C
ATOM     29  O5  IDS B   2      31.386  19.177  11.1740  0.00  0.00     0.000 O
ATOM     30   O  IDS B   2      34.486  21.645  11.8710  0.00  0.00     0.000 O
ATOM     32  HD  IDS B   2      35.182  21.134  11.9380  0.00  0.00     0.000 HD
BRANCH 25 32
ATOM     32   O  IDS B   2      32.446  21.389  13.8160  0.00  0.00     0.000 O
ATOM     33   S  IDS B   2      33.179  21.512  15.2900  0.00  0.00     0.000 S
ATOM     34   O  IDS B   2      32.464  22.551  16.0120  0.00  0.00     0.000 OA
ATOM     35   O  IDS B   2      33.097  20.232  15.9790  0.00  0.00     0.000 OA
ATOM     36   O  IDS B   2      34.542  21.903  15.0160  0.00  0.00     0.000 OA
ENDBRANCH 25 32
BRANCH 28 37
ATOM     37   C  IDS B   2      32.189  18.127   9.1680  0.00  0.00     0.000 C
ATOM     38   O  IDS B   2      31.010  18.227   8.9240  0.00  0.00     0.000 OA
ATOM     39   O  IDS B   2      32.963  17.599   8.3330  0.00  0.00     0.000 OA
ENDBRANCH 28 37
BRANCH 24 40
ATOM     40  O4  SUS B   3      30.978  18.686  13.5840  0.00  0.00     0.000 O
BRANCH 40 44
ATOM     41  C1  SUS B   3      26.955  17.790  14.3300  0.00  0.00     0.000 C
ATOM     42  C2  SUS B   3      27.651  17.016  13.1930  0.00  0.00     0.000 C
ATOM     43  C3  SUS B   3      29.164  17.103  13.3770  0.00  0.00     0.000 C
ATOM     44  C4  SUS B   3      29.565  18.568  13.4630  0.00  0.00     0.000 C
ATOM     45  C5  SUS B   3      28.891  19.190  14.6690  0.00  0.00     0.000 C
ATOM     46  O5  SUS B   3      27.464  19.121  14.4720  0.00  0.00     0.000 O
BRANCH 42 49
ATOM     47   N  SUS B   3      26.640  16.913  12.1260  0.00  0.00     0.000 N
ATOM     49  HD  SUS B   3      25.930  17.401  12.2180  0.00  0.00     0.000 HD
ATOM     49   S  SUS B   3      26.174  15.404  11.8590  0.00  0.00     0.000 S
ATOM     50   O  SUS B   3      25.668  14.840  13.0480  0.00  0.00     0.000 OA
ATOM     51   O  SUS B   3      25.021  15.742  10.8800  0.00  0.00     0.000 OA
ATOM     52   O  SUS B   3      27.204  14.708  11.1950  0.00  0.00     0.000 OA
ENDBRANCH 42 49
BRANCH 43 53
ATOM     53   O  SUS B   3      29.802  16.477  12.2020  0.00  0.00     0.000 O
ATOM     54   S  SUS B   3      30.776  15.182  12.4800  0.00  0.00     0.000 S
ATOM     55   O  SUS B   3      29.920  14.068  12.8630  0.00  0.00     0.000 OA
ATOM     56   O  SUS B   3      31.465  14.984  11.2180  0.00  0.00     0.000 OA
ATOM     57   O  SUS B   3      31.672  15.564  13.5750  0.00  0.00     0.000 OA
ENDBRANCH 43 53
BRANCH 45 58
ATOM     58   C  SUS B   3      29.320  20.625  14.8800  0.00  0.00     0.000 C
ATOM     59   S  SUS B   3      28.868  23.022  14.0810  0.00  0.00     0.000 S
ATOM     60   O  SUS B   3      28.441  21.498  14.1520  0.00  0.00     0.000 O
ATOM     61   O  SUS B   3      29.915  23.076  13.0780  0.00  0.00     0.000 OA
ATOM     62   O  SUS B   3      27.640  23.624  13.6370  0.00  0.00     0.000 OA
ATOM     63   O  SUS B   3      29.271  23.365  15.3990  0.00  0.00     0.000 OA
ENDBRANCH 45 58
BRANCH 41 64
ATOM     64  O4  IDS B   4      26.877  17.089  15.5090  0.00  0.00     0.000 O
BRANCH 64 68
ATOM     65  C1  IDS B   4      25.213  16.168  18.6170  0.00  0.00     0.000 C
ATOM     66  C2  IDS B   4      24.388  16.591  17.3950  0.00  0.00     0.000 C
ATOM     67  C3  IDS B   4      24.893  17.845  16.7000  0.00  0.00     0.000 C
ATOM     68  C4  IDS B   4      26.406  17.900  16.6090  0.00  0.00     0.000 C
ATOM     69  C5  IDS B   4      26.982  17.480  17.9680  0.00  0.00     0.000 C
ATOM     70  O5  IDS B   4      26.582  16.138  18.2550  0.00  0.00     0.000 O
ATOM     71   O  IDS B   4      24.418  18.952  17.4380  0.00  0.00     0.000 O
ATOM     73  HD  IDS B   4      24.437  18.124  17.1860  0.00  0.00     0.000 HD
BRANCH 66 73
ATOM     73   O  IDS B   4      24.461  15.527  16.3840  0.00  0.00     0.000 O
ATOM     74   S  IDS B   4      23.206  14.514  16.2580  0.00  0.00     0.000 S
ATOM     75   O  IDS B   4      23.019  13.928  17.5680  0.00  0.00     0.000 OA
ATOM     76   O  IDS B   4      23.674  13.586  15.2600  0.00  0.00     0.000 OA
ATOM     77   O  IDS B   4      22.093  15.330  15.8340  0.00  0.00     0.000 OA
ENDBRANCH 66 73
BRANCH 69 78
ATOM     78   C  IDS B   4      28.483  17.694  18.1080  0.00  0.00     0.000 C
ATOM     79   O  IDS B   4      29.205  17.468  17.1370  0.00  0.00     0.000 OA
ATOM     80   O  IDS B   4      28.919  18.190  19.1630  0.00  0.00     0.000 OA
ENDBRANCH 69 78
BRANCH 65 81
ATOM     81  O4  SGN B   5      24.877  16.947  19.6820  0.00  0.00     0.000 O
BRANCH 81 85
ATOM     82  C1  SGN B   5      24.307  16.927  23.8430  0.00  0.00     0.000 C
ATOM     83  C2  SGN B   5      25.756  16.860  23.3370  0.00  0.00     0.000 C
ATOM     84  C3  SGN B   5      25.813  17.338  21.8790  0.00  0.00     0.000 C
ATOM     85  C4  SGN B   5      24.850  16.513  21.0440  0.00  0.00     0.000 C
ATOM     86  C5  SGN B   5      23.448  16.678  21.6260  0.00  0.00     0.000 C
ATOM     87  O5  SGN B   5      23.452  16.197  22.9840  0.00  0.00     0.000 O
ATOM     88   O  SGN B   5      27.131  17.225  21.3890  0.00  0.00     0.000 O
ATOM     90  HD  SGN B   5      26.754  17.959  21.6520  0.00  0.00     0.000 HD
BRANCH 83 92
ATOM     90   N  SGN B   5      26.037  16.396  24.7100  0.00  0.00     0.000 N
ATOM     92  HD  SGN B   5      25.821  15.563  24.8070  0.00  0.00     0.000 HD
ATOM     92   S  SGN B   5      27.428  16.817  25.3750  0.00  0.00     0.000 S
ATOM     93   O  SGN B   5      27.395  16.217  26.6750  0.00  0.00     0.000 OA
ATOM     94   O  SGN B   5      28.432  16.439  24.4400  0.00  0.00     0.000 OA
ATOM     95   O  SGN B   5      27.393  18.329  25.4150  0.00  0.00     0.000 OA
ENDBRANCH 83 92
BRANCH 86 96
ATOM     96   C  SGN B   5      22.373  15.915  20.8810  0.00  0.00     0.000 C
ATOM     97   O  SGN B   5      21.142  16.643  20.8900  0.00  0.00     0.000 O
ATOM     98   S  SGN B   5      20.433  16.850  19.4670  0.00  0.00     0.000 S
ATOM     99   O  SGN B   5      19.156  17.418  19.8280  0.00  0.00     0.000 OA
ATOM    100   O  SGN B   5      21.264  17.704  18.6970  0.00  0.00     0.000 OA
ATOM    101   O  SGN B   5      20.334  15.534  18.9250  0.00  0.00     0.000 OA
ENDBRANCH 86 96
BRANCH 82 102
ATOM    102  O4  IDS B   6      23.859  18.207  23.9820  0.00  0.00     0.000 O
BRANCH 102 106
ATOM    103  C1  IDS B   6      21.614  20.382  25.8490  0.00  0.00     0.000 C
ATOM    104  C2  IDS B   6      22.056  19.028  26.4260  0.00  0.00     0.000 C
ATOM    105  C3  IDS B   6      21.960  17.858  25.4660  0.00  0.00     0.000 C
ATOM    106  C4  IDS B   6      22.411  18.214  24.0610  0.00  0.00     0.000 C
ATOM    107  C5  IDS B   6      21.851  19.584  23.6690  0.00  0.00     0.000 C
ATOM    108  O5  IDS B   6      22.234  20.601  24.5960  0.00  0.00     0.000 O
ATOM    109   O  IDS B   6      20.618  17.399  25.4640  0.00  0.00     0.000 O
ATOM    111  HD  IDS B   6      20.163  18.084  25.7340  0.00  0.00     0.000 HD
BRANCH 104 111
ATOM    111   O  IDS B   6      23.477  19.108  26.8000  0.00  0.00     0.000 O
ATOM    112   S  IDS B   6      24.051  18.012  27.8150  0.00  0.00     0.000 S
ATOM    113   O  IDS B   6      23.234  18.157  29.0100  0.00  0.00     0.000 OA
ATOM    114   O  IDS B   6      23.968  16.695  27.1730  0.00  0.00     0.000 OA
ATOM    115   O  IDS B   6      25.400  18.513  27.9620  0.00  0.00     0.000 OA
ENDBRANCH 104 111
BRANCH 107 116
ATOM    116   C  IDS B   6      22.338  19.948  22.2720  0.00  0.00     0.000 C
ATOM    117   O  IDS B   6      21.577  19.741  21.3620  0.00  0.00     0.000 OA
ATOM    118   O  IDS B   6      23.451  20.416  22.0900  0.00  0.00     0.000 OA
ENDBRANCH 107 116
BRANCH 103 119
ATOM    119  O4  SGN B   7      20.262  20.358  25.9730  0.00  0.00     0.000 O
BRANCH 119 123
ATOM    120  C1  SGN B   7      17.195  23.201  26.0210  0.00  0.00     0.000 C
ATOM    121  C2  SGN B   7      17.629  22.642  24.6530  0.00  0.00     0.000 C
ATOM    122  C3  SGN B   7      18.446  21.356  24.8310  0.00  0.00     0.000 C
ATOM    123  C4  SGN B   7      19.600  21.609  25.7860  0.00  0.00     0.000 C
ATOM    124  C5  SGN B   7      19.066  22.170  27.1150  0.00  0.00     0.000 C
ATOM    125  O5  SGN B   7      18.305  23.379  26.9000  0.00  0.00     0.000 O
ATOM    126   O  SGN B   7      18.914  20.921  23.5500  0.00  0.00     0.000 O
ATOM    128  HD  SGN B   7      18.404  21.452  24.0050  0.00  0.00     0.000 HD
BRANCH 121 130
ATOM    128   N  SGN B   7      17.053  23.723  23.8480  0.00  0.00     0.000 N
ATOM    130  HD  SGN B   7      17.535  23.484  23.1700  0.00  0.00     0.000 HD
ATOM    130   S  SGN B   7      15.989  23.444  22.6710  0.00  0.00     0.000 S
ATOM    131   O  SGN B   7      14.993  22.615  23.2580  0.00  0.00     0.000 OA
ATOM    132   O  SGN B   7      15.635  24.687  22.0870  0.00  0.00     0.000 OA
ATOM    133   O  SGN B   7      16.917  22.758  21.6110  0.00  0.00     0.000 OA
ENDBRANCH 121 130
BRANCH 124 134
ATOM    134   C  SGN B   7      20.142  22.561  28.0850  0.00  0.00     0.000 C
ATOM    135   O  SGN B   7      20.285  21.512  29.0580  0.00  0.00     0.000 O
ATOM    136   S  SGN B   7      21.470  21.661  30.0780  0.00  0.00     0.000 S
ATOM    137   O  SGN B   7      21.348  20.561  31.0050  0.00  0.00     0.000 OA
ATOM    138   O  SGN B   7      21.274  22.950  30.7010  0.00  0.00     0.000 OA
ATOM    139   O  SGN B   7      22.638  21.580  29.2140  0.00  0.00     0.000 OA
ENDBRANCH 124 134
BRANCH 120 140
ATOM    140  O4  IDS B   8      16.326  22.671  26.8890  0.00  0.00     0.000 O
BRANCH 140 144
ATOM    141  C1  IDS B   8      14.718  20.087  28.8110  0.00  0.00     0.000 C
ATOM    142  C2  IDS B   8      15.217  19.813  27.3640  0.00  0.00     0.000 C
ATOM    143  C3  IDS B   8      14.775  20.892  26.3580  0.00  0.00     0.000 C
ATOM    144  C4  IDS B   8      14.941  22.303  26.9220  0.00  0.00     0.000 C
ATOM    145  C5  IDS B   8      14.414  22.363  28.3630  0.00  0.00     0.000 C
ATOM    146  O5  IDS B   8      15.062  21.410  29.2020  0.00  0.00     0.000 O
BRANCH 142 147
ATOM    147   O  IDS B   8      16.704  19.782  27.3500  0.00  0.00     0.000 O
ATOM    148   S  IDS B   8      17.513  18.394  27.5720  0.00  0.00     0.000 S
ATOM    149   O  IDS B   8      16.591  17.434  28.1370  0.00  0.00     0.000 OA
ATOM    150   O  IDS B   8      17.989  18.009  26.2570  0.00  0.00     0.000 OA
ATOM    151   O  IDS B   8      18.585  18.720  28.4930  0.00  0.00     0.000 OA
ENDBRANCH 142 147
BRANCH 145 152
ATOM    152   C  IDS B   8      14.642  23.713  29.0120  0.00  0.00     0.000 C
ATOM    153   O  IDS B   8      14.004  24.685  28.6240  0.00  0.00     0.000 OA
ATOM    154   O  IDS B   8      15.441  23.815  29.9250  0.00  0.00     0.000 OA
ENDBRANCH 145 152
ENDBRANCH 140 144
ENDBRANCH 120 140
ENDBRANCH 119 123
ENDBRANCH 103 119
ENDBRANCH 102 106
ENDBRANCH 82 102
ENDBRANCH 81 85
ENDBRANCH 65 81
ENDBRANCH 64 68
ENDBRANCH 41 64
ENDBRANCH 40 44
ENDBRANCH 24 40
ENDBRANCH 23 27
ENDBRANCH 1 23
TORSDOF 31
ENDMDL
MODEL 49
REMARK VINA RESULT:      -7.0      6.827     19.182
ROOT
ATOM      1  C1  SGN B   1      25.307  19.463  30.0000  0.00  0.00     0.000 C
ATOM      2  C2  SGN B   1      23.843  19.007  30.1100  0.00  0.00     0.000 C
ATOM      3  C3  SGN B   1      23.136  19.119  28.7550  0.00  0.00     0.000 C
ATOM      4  C4  SGN B   1      23.251  20.541  28.2170  0.00  0.00     0.000 C
ATOM      5  C5  SGN B   1      24.714  20.977  28.2700  0.00  0.00     0.000 C
ATOM      6  O5  SGN B   1      25.214  20.827  29.6120  0.00  0.00     0.000 O
ATOM      7   O  SGN B   1      21.770  18.739  28.8710  0.00  0.00     0.000 O
ATOM      9  HD  SGN B   1      21.810  19.415  29.4100  0.00  0.00     0.000 HD
ATOM      9   O  SGN B   1      22.777  20.580  26.8840  0.00  0.00     0.000 O
ATOM     11  HD  SGN B   1      22.818  21.257  27.4230  0.00  0.00     0.000 HD
ENDROOT
BRANCH 2 13
ATOM     11   N  SGN B   1      23.667  18.600  31.5170  0.00  0.00     0.000 N
ATOM     13  HD  SGN B   1      24.351  18.325  31.0620  0.00  0.00     0.000 HD
ATOM     13   S  SGN B   1      24.242  17.210  32.0880  0.00  0.00     0.000 S
ATOM     14   O  SGN B   1      24.946  16.524  31.0760  0.00  0.00     0.000 OA
ATOM     15   O  SGN B   1      24.881  17.465  33.3350  0.00  0.00     0.000 OA
ATOM     16   O  SGN B   1      22.881  16.517  32.4020  0.00  0.00     0.000 OA
ENDBRANCH 2 13
BRANCH 5 17
ATOM     17   C  SGN B   1      24.942  22.413  27.8640  0.00  0.00     0.000 C
ATOM     18   O  SGN B   1      23.913  23.268  28.3990  0.00  0.00     0.000 O
ATOM     19   S  SGN B   1      23.292  24.338  27.3840  0.00  0.00     0.000 S
ATOM     20   O  SGN B   1      22.477  25.207  28.2070  0.00  0.00     0.000 OA
ATOM     21   O  SGN B   1      24.446  24.995  26.8150  0.00  0.00     0.000 OA
ATOM     22   O  SGN B   1      22.531  23.558  26.4330  0.00  0.00     0.000 OA
ENDBRANCH 5 17
BRANCH 1 23
ATOM     23  O4  IDS B   2      26.547  18.966  29.7290  0.00  0.00     0.000 O
BRANCH 23 27
ATOM     24  C1  IDS B   2      27.330  18.505  25.6790  0.00  0.00     0.000 C
ATOM     25  C2  IDS B   2      26.692  17.284  26.3780  0.00  0.00     0.000 C
ATOM     26  C3  IDS B   2      26.178  17.657  27.7660  0.00  0.00     0.000 C
ATOM     27  C4  IDS B   2      27.238  18.294  28.6550  0.00  0.00     0.000 C
ATOM     28  C5  IDS B   2      28.152  19.208  27.8140  0.00  0.00     0.000 C
ATOM     29  O5  IDS B   2      27.515  19.586  26.6030  0.00  0.00     0.000 O
ATOM     30   O  IDS B   2      25.713  16.485  28.4240  0.00  0.00     0.000 O
ATOM     32  HD  IDS B   2      26.352  16.004  28.7570  0.00  0.00     0.000 HD
BRANCH 25 32
ATOM     32   O  IDS B   2      25.549  16.732  25.6100  0.00  0.00     0.000 O
ATOM     33   S  IDS B   2      25.663  15.313  24.7760  0.00  0.00     0.000 S
ATOM     34   O  IDS B   2      24.450  15.212  23.9810  0.00  0.00     0.000 OA
ATOM     35   O  IDS B   2      26.850  15.342  23.9330  0.00  0.00     0.000 OA
ATOM     36   O  IDS B   2      25.724  14.275  25.7780  0.00  0.00     0.000 OA
ENDBRANCH 25 32
BRANCH 28 37
ATOM     37   C  IDS B   2      28.713  20.479  28.4840  0.00  0.00     0.000 C
ATOM     38   O  IDS B   2      29.655  20.250  29.2060  0.00  0.00     0.000 OA
ATOM     39   O  IDS B   2      28.333  21.661  28.2980  0.00  0.00     0.000 OA
ENDBRANCH 28 37
BRANCH 24 40
ATOM     40  O4  SUS B   3      27.905  18.361  24.4660  0.00  0.00     0.000 O
BRANCH 40 44
ATOM     41  C1  SUS B   3      28.013  20.998  21.2130  0.00  0.00     0.000 C
ATOM     42  C2  SUS B   3      29.064  21.203  22.3220  0.00  0.00     0.000 C
ATOM     43  C3  SUS B   3      29.190  19.919  23.1390  0.00  0.00     0.000 C
ATOM     44  C4  SUS B   3      27.815  19.528  23.6570  0.00  0.00     0.000 C
ATOM     45  C5  SUS B   3      26.903  19.267  22.4750  0.00  0.00     0.000 C
ATOM     46  O5  SUS B   3      26.775  20.491  21.7250  0.00  0.00     0.000 O
BRANCH 42 49
ATOM     47   N  SUS B   3      30.208  21.745  21.5690  0.00  0.00     0.000 N
ATOM     49  HD  SUS B   3      30.925  21.260  21.5520  0.00  0.00     0.000 HD
ATOM     49   S  SUS B   3      30.617  23.220  22.0440  0.00  0.00     0.000 S
ATOM     50   O  SUS B   3      30.916  23.214  23.4220  0.00  0.00     0.000 OA
ATOM     51   O  SUS B   3      31.915  23.325  21.2030  0.00  0.00     0.000 OA
ATOM     52   O  SUS B   3      29.653  24.141  21.5890  0.00  0.00     0.000 OA
ENDBRANCH 42 49
BRANCH 43 53
ATOM     53   O  SUS B   3      30.095  20.189  24.2740  0.00  0.00     0.000 O
ATOM     54   S  SUS B   3      31.575  19.476  24.2380  0.00  0.00     0.000 S
ATOM     55   O  SUS B   3      32.353  20.136  23.1990  0.00  0.00     0.000 OA
ATOM     56   O  SUS B   3      32.096  19.680  25.5780  0.00  0.00     0.000 OA
ATOM     57   O  SUS B   3      31.348  18.064  23.9150  0.00  0.00     0.000 OA
ENDBRANCH 43 53
BRANCH 45 58
ATOM     58   C  SUS B   3      25.540  18.774  22.9100  0.00  0.00     0.000 C
ATOM     59   S  SUS B   3      23.044  19.367  22.8300  0.00  0.00     0.000 S
ATOM     60   O  SUS B   3      24.524  19.599  22.3160  0.00  0.00     0.000 O
ATOM     61   O  SUS B   3      22.979  20.039  24.1130  0.00  0.00     0.000 OA
ATOM     62   O  SUS B   3      22.295  20.047  21.8070  0.00  0.00     0.000 OA
ATOM     63   O  SUS B   3      22.874  17.958  22.8730  0.00  0.00     0.000 OA
ENDBRANCH 45 58
BRANCH 41 64
ATOM     64  O4  IDS B   4      28.488  20.318  20.1190  0.00  0.00     0.000 O
BRANCH 64 68
ATOM     65  C1  IDS B   4      28.962  19.242  16.6700  0.00  0.00     0.000 C
ATOM     66  C2  IDS B   4      29.407  20.643  17.1100  0.00  0.00     0.000 C
ATOM     67  C3  IDS B   4      28.380  21.396  17.9380  0.00  0.00     0.000 C
ATOM     68  C4  IDS B   4      27.669  20.511  18.9440  0.00  0.00     0.000 C
ATOM     69  C5  IDS B   4      27.289  19.200  18.2430  0.00  0.00     0.000 C
ATOM     70  O5  IDS B   4      28.479  18.541  17.8010  0.00  0.00     0.000 O
ATOM     71   O  IDS B   4      27.439  21.947  17.0390  0.00  0.00     0.000 O
ATOM     73  HD  IDS B   4      28.196  21.594  17.2690  0.00  0.00     0.000 HD
BRANCH 66 73
ATOM     73   O  IDS B   4      30.588  20.514  17.9750  0.00  0.00     0.000 O
ATOM     74   S  IDS B   4      31.974  21.178  17.4690  0.00  0.00     0.000 S
ATOM     75   O  IDS B   4      32.255  20.601  16.1720  0.00  0.00     0.000 OA
ATOM     76   O  IDS B   4      32.891  20.773  18.5040  0.00  0.00     0.000 OA
ATOM     77   O  IDS B   4      31.724  22.600  17.4200  0.00  0.00     0.000 OA
ENDBRANCH 66 73
BRANCH 69 78
ATOM     78   C  IDS B   4      26.376  18.292  19.0550  0.00  0.00     0.000 C
ATOM     79   O  IDS B   4      26.861  17.304  19.6040  0.00  0.00     0.000 OA
ATOM     80   O  IDS B   4      25.192  18.637  19.2260  0.00  0.00     0.000 OA
ENDBRANCH 69 78
BRANCH 65 81
ATOM     81  O4  SGN B   5      28.118  19.348  15.6070  0.00  0.00     0.000 O
BRANCH 81 85
ATOM     82  C1  SGN B   5      26.024  17.111  12.7340  0.00  0.00     0.000 C
ATOM     83  C2  SGN B   5      25.374  17.251  14.1190  0.00  0.00     0.000 C
ATOM     84  C3  SGN B   5      26.002  18.437  14.8630  0.00  0.00     0.000 C
ATOM     85  C4  SGN B   5      27.508  18.249  14.9260  0.00  0.00     0.000 C
ATOM     86  C5  SGN B   5      28.039  18.147  13.4980  0.00  0.00     0.000 C
ATOM     87  O5  SGN B   5      27.430  17.009  12.8590  0.00  0.00     0.000 O
ATOM     88   O  SGN B   5      25.451  18.537  16.1580  0.00  0.00     0.000 O
ATOM     90  HD  SGN B   5      25.235  19.032  15.4810  0.00  0.00     0.000 HD
BRANCH 83 92
ATOM     90   N  SGN B   5      24.588  16.058  13.7510  0.00  0.00     0.000 N
ATOM     92  HD  SGN B   5      25.027  15.331  13.9200  0.00  0.00     0.000 HD
ATOM     92   S  SGN B   5      23.042  16.024  14.1550  0.00  0.00     0.000 S
ATOM     93   O  SGN B   5      22.577  14.758  13.6710  0.00  0.00     0.000 OA
ATOM     94   O  SGN B   5      23.000  16.314  15.5470  0.00  0.00     0.000 OA
ATOM     95   O  SGN B   5      22.428  17.201  13.4290  0.00  0.00     0.000 OA
ENDBRANCH 83 92
BRANCH 86 96
ATOM     96   C  SGN B   5      29.540  17.968  13.4050  0.00  0.00     0.000 C
ATOM     97   O  SGN B   5      29.906  16.624  13.7270  0.00  0.00     0.000 O
ATOM     98   S  SGN B   5      30.861  15.881  12.6740  0.00  0.00     0.000 S
ATOM     99   O  SGN B   5      31.205  14.661  13.3630  0.00  0.00     0.000 OA
ATOM    100   O  SGN B   5      30.118  15.697  11.4800  0.00  0.00     0.000 OA
ATOM    101   O  SGN B   5      31.966  16.769  12.5110  0.00  0.00     0.000 OA
ENDBRANCH 86 96
BRANCH 82 102
ATOM    102  O4  IDS B   6      25.696  18.134  11.8950  0.00  0.00     0.000 O
BRANCH 102 106
ATOM    103  C1  IDS B   6      24.192  19.685   8.9640  0.00  0.00     0.000 C
ATOM    104  C2  IDS B   6      23.375  18.740   9.8590  0.00  0.00     0.000 C
ATOM    105  C3  IDS B   6      24.068  17.440  10.2220  0.00  0.00     0.000 C
ATOM    106  C4  IDS B   6      25.540  17.630  10.5440  0.00  0.00     0.000 C
ATOM    107  C5  IDS B   6      26.172  18.587   9.5290  0.00  0.00     0.000 C
ATOM    108  O5  IDS B   6      25.496  19.845   9.4900  0.00  0.00     0.000 O
ATOM    109   O  IDS B   6      23.901  16.535   9.1440  0.00  0.00     0.000 O
ATOM    111  HD  IDS B   6      23.752  17.048   8.4620  0.00  0.00     0.000 HD
BRANCH 104 111
ATOM    111   O  IDS B   6      23.106  19.408  11.1420  0.00  0.00     0.000 O
ATOM    112   S  IDS B   6      21.669  20.082  11.3530  0.00  0.00     0.000 S
ATOM    113   O  IDS B   6      21.559  21.054  10.2760  0.00  0.00     0.000 OA
ATOM    114   O  IDS B   6      20.653  19.024  11.3300  0.00  0.00     0.000 OA
ATOM    115   O  IDS B   6      21.877  20.672  12.6570  0.00  0.00     0.000 OA
ENDBRANCH 104 111
BRANCH 107 116
ATOM    116   C  IDS B   6      27.639  18.799   9.8820  0.00  0.00     0.000 C
ATOM    117   O  IDS B   6      27.957  19.908  10.2300  0.00  0.00     0.000 OA
ATOM    118   O  IDS B   6      28.449  17.889   9.8050  0.00  0.00     0.000 OA
ENDBRANCH 107 116
BRANCH 103 119
ATOM    119  O4  SGN B   7      23.990  19.197   7.7130  0.00  0.00     0.000 O
BRANCH 119 123
ATOM    120  C1  SGN B   7      24.935  20.419   3.8270  0.00  0.00     0.000 C
ATOM    121  C2  SGN B   7      25.960  19.540   4.5670  0.00  0.00     0.000 C
ATOM    122  C3  SGN B   7      25.309  18.859   5.7780  0.00  0.00     0.000 C
ATOM    123  C4  SGN B   7      24.645  19.903   6.6590  0.00  0.00     0.000 C
ATOM    124  C5  SGN B   7      23.649  20.730   5.8290  0.00  0.00     0.000 C
ATOM    125  O5  SGN B   7      24.305  21.353   4.7020  0.00  0.00     0.000 O
ATOM    126   O  SGN B   7      26.311  18.130   6.4970  0.00  0.00     0.000 O
ATOM    128  HD  SGN B   7      26.091  18.571   5.7850  0.00  0.00     0.000 HD
BRANCH 121 130
ATOM    128   N  SGN B   7      26.632  19.595   3.2660  0.00  0.00     0.000 N
ATOM    130  HD  SGN B   7      27.274  20.063   3.6100  0.00  0.00     0.000 HD
ATOM    130   S  SGN B   7      27.965  18.748   2.9500  0.00  0.00     0.000 S
ATOM    131   O  SGN B   7      27.662  17.416   3.3480  0.00  0.00     0.000 OA
ATOM    132   O  SGN B   7      28.365  19.027   1.6180  0.00  0.00     0.000 OA
ATOM    133   O  SGN B   7      29.001  19.513   3.8420  0.00  0.00     0.000 OA
ENDBRANCH 121 130
BRANCH 124 134
ATOM    134   C  SGN B   7      23.025  21.866   6.5850  0.00  0.00     0.000 C
ATOM    135   O  SGN B   7      23.797  23.055   6.3450  0.00  0.00     0.000 O
ATOM    136   S  SGN B   7      23.218  24.394   6.9270  0.00  0.00     0.000 S
ATOM    137   O  SGN B   7      24.203  25.414   6.6550  0.00  0.00     0.000 OA
ATOM    138   O  SGN B   7      23.038  24.146   8.3390  0.00  0.00     0.000 OA
ATOM    139   O  SGN B   7      21.981  24.552   6.1790  0.00  0.00     0.000 OA
ENDBRANCH 124 134
BRANCH 120 140
ATOM    140  O4  IDS B   8      23.862  20.026   3.1330  0.00  0.00     0.000 O
BRANCH 140 144
ATOM    141  C1  IDS B   8      21.225  19.471   0.7450  0.00  0.00     0.000 C
ATOM    142  C2  IDS B   8      20.904  19.731   2.2450  0.00  0.00     0.000 C
ATOM    143  C3  IDS B   8      21.743  18.862   3.2010  0.00  0.00     0.000 C
ATOM    144  C4  IDS B   8      23.210  18.799   2.7800  0.00  0.00     0.000 C
ATOM    145  C5  IDS B   8      23.317  18.562   1.2660  0.00  0.00     0.000 C
ATOM    146  O5  IDS B   8      22.627  19.565   0.5250  0.00  0.00     0.000 O
BRANCH 142 147
ATOM    147   O  IDS B   8      21.193  21.151   2.5750  0.00  0.00     0.000 O
ATOM    148   S  IDS B   8      20.013  22.154   3.0570  0.00  0.00     0.000 S
ATOM    149   O  IDS B   8      18.749  21.541   2.7130  0.00  0.00     0.000 OA
ATOM    150   O  IDS B   8      20.193  22.304   4.4890  0.00  0.00     0.000 OA
ATOM    151   O  IDS B   8      20.234  23.386   2.3230  0.00  0.00     0.000 OA
ENDBRANCH 142 147
BRANCH 145 152
ATOM    152   C  IDS B   8      24.749  18.589   0.7710  0.00  0.00     0.000 C
ATOM    153   O  IDS B   8      25.429  17.571   0.8320  0.00  0.00     0.000 OA
ATOM    154   O  IDS B   8      25.203  19.615   0.2980  0.00  0.00     0.000 OA
ENDBRANCH 145 152
ENDBRANCH 140 144
ENDBRANCH 120 140
ENDBRANCH 119 123
ENDBRANCH 103 119
ENDBRANCH 102 106
ENDBRANCH 82 102
ENDBRANCH 81 85
ENDBRANCH 65 81
ENDBRANCH 64 68
ENDBRANCH 41 64
ENDBRANCH 40 44
ENDBRANCH 24 40
ENDBRANCH 23 27
ENDBRANCH 1 23
TORSDOF 31
ENDMDL
MODEL 50
REMARK VINA RESULT:      -7.0      3.074      4.833
ROOT
ATOM      1  C1  SGN B   1      28.807  11.263  13.7750  0.00  0.00     0.000 C
ATOM      2  C2  SGN B   1      30.285  10.841  13.8100  0.00  0.00     0.000 C
ATOM      3  C3  SGN B   1      30.555   9.724  12.7960  0.00  0.00     0.000 C
ATOM      4  C4  SGN B   1      29.619   8.546  13.0500  0.00  0.00     0.000 C
ATOM      5  C5  SGN B   1      28.184   9.060  13.1430  0.00  0.00     0.000 C
ATOM      6  O5  SGN B   1      28.105  10.086  14.1510  0.00  0.00     0.000 O
ATOM      7   O  SGN B   1      31.913   9.305  12.8630  0.00  0.00     0.000 O
ATOM      9  HD  SGN B   1      31.634   9.124  13.6620  0.00  0.00     0.000 HD
ATOM      9   O  SGN B   1      29.737   7.615  11.9900  0.00  0.00     0.000 O
ATOM     11  HD  SGN B   1      29.457   7.434  12.7890  0.00  0.00     0.000 HD
ENDROOT
BRANCH 2 13
ATOM     11   N  SGN B   1      31.283  11.915  13.6410  0.00  0.00     0.000 N
ATOM     13  HD  SGN B   1      30.904  11.783  14.4080  0.00  0.00     0.000 HD
ATOM     13   S  SGN B   1      31.263  13.255  14.5310  0.00  0.00     0.000 S
ATOM     14   O  SGN B   1      30.218  13.194  15.4770  0.00  0.00     0.000 OA
ATOM     15   O  SGN B   1      32.591  13.523  14.9710  0.00  0.00     0.000 OA
ATOM     16   O  SGN B   1      30.941  14.273  13.3940  0.00  0.00     0.000 OA
ENDBRANCH 2 13
BRANCH 5 17
ATOM     17   C  SGN B   1      27.174   7.999  13.5020  0.00  0.00     0.000 C
ATOM     18   O  SGN B   1      26.203   7.836  12.4500  0.00  0.00     0.000 O
ATOM     19   S  SGN B   1      24.675   7.746  12.9130  0.00  0.00     0.000 S
ATOM     20   O  SGN B   1      23.945   7.354  11.7260  0.00  0.00     0.000 OA
ATOM     21   O  SGN B   1      24.679   6.739  13.9480  0.00  0.00     0.000 OA
ATOM     22   O  SGN B   1      24.345   9.073  13.3850  0.00  0.00     0.000 OA
ENDBRANCH 5 17
BRANCH 1 23
ATOM     23  O4  IDS B   2      27.977  12.142  13.1440  0.00  0.00     0.000 O
BRANCH 23 27
ATOM     24  C1  IDS B   2      25.304  14.646  15.0960  0.00  0.00     0.000 C
ATOM     25  C2  IDS B   2      24.980  13.137  15.1700  0.00  0.00     0.000 C
ATOM     26  C3  IDS B   2      26.163  12.301  14.6880  0.00  0.00     0.000 C
ATOM     27  C4  IDS B   2      26.647  12.680  13.2950  0.00  0.00     0.000 C
ATOM     28  C5  IDS B   2      26.552  14.207  13.1010  0.00  0.00     0.000 C
ATOM     29  O5  IDS B   2      26.508  14.876  14.3530  0.00  0.00     0.000 O
ATOM     30   O  IDS B   2      25.784  10.931  14.6530  0.00  0.00     0.000 O
ATOM     32  HD  IDS B   2      25.315  10.724  13.9550  0.00  0.00     0.000 HD
BRANCH 25 32
ATOM     32   O  IDS B   2      24.655  12.700  16.5500  0.00  0.00     0.000 O
ATOM     33   S  IDS B   2      23.333  11.770  16.8810  0.00  0.00     0.000 S
ATOM     34   O  IDS B   2      23.216  11.735  18.3300  0.00  0.00     0.000 OA
ATOM     35   O  IDS B   2      22.156  12.367  16.2670  0.00  0.00     0.000 OA
ATOM     36   O  IDS B   2      23.632  10.463  16.3450  0.00  0.00     0.000 OA
ENDBRANCH 25 32
BRANCH 28 37
ATOM     37   C  IDS B   2      27.620  14.890  12.2230  0.00  0.00     0.000 C
ATOM     38   O  IDS B   2      27.666  14.436  11.1040  0.00  0.00     0.000 OA
ATOM     39   O  IDS B   2      28.351  15.861  12.5410  0.00  0.00     0.000 OA
ENDBRANCH 28 37
BRANCH 24 40
ATOM     40  O4  SUS B   3      24.358  15.553  15.4170  0.00  0.00     0.000 O
BRANCH 40 44
ATOM     41  C1  SUS B   3      24.754  19.347  17.1490  0.00  0.00     0.000 C
ATOM     42  C2  SUS B   3      24.923  19.249  15.6190  0.00  0.00     0.000 C
ATOM     43  C3  SUS B   3      24.288  17.951  15.1250  0.00  0.00     0.000 C
ATOM     44  C4  SUS B   3      24.893  16.784  15.8900  0.00  0.00     0.000 C
ATOM     45  C5  SUS B   3      24.581  16.949  17.3630  0.00  0.00     0.000 C
ATOM     46  O5  SUS B   3      25.205  18.166  17.8220  0.00  0.00     0.000 O
BRANCH 42 49
ATOM     47   N  SUS B   3      25.555  19.815  14.4150  0.00  0.00     0.000 N
ATOM     49  HD  SUS B   3      26.358  19.545  14.2360  0.00  0.00     0.000 HD
ATOM     49   S  SUS B   3      25.557  21.417  14.4140  0.00  0.00     0.000 S
ATOM     50   O  SUS B   3      26.215  21.897  15.5650  0.00  0.00     0.000 OA
ATOM     51   O  SUS B   3      26.450  21.595  13.1600  0.00  0.00     0.000 OA
ATOM     52   O  SUS B   3      24.252  21.886  14.1660  0.00  0.00     0.000 OA
ENDBRANCH 42 49
BRANCH 43 53
ATOM     53   O  SUS B   3      24.587  17.818  13.6860  0.00  0.00     0.000 O
ATOM     54   S  SUS B   3      23.314  17.868  12.6470  0.00  0.00     0.000 S
ATOM     55   O  SUS B   3      22.823  19.238  12.6250  0.00  0.00     0.000 OA
ATOM     56   O  SUS B   3      23.874  17.425  11.3830  0.00  0.00     0.000 OA
ATOM     57   O  SUS B   3      22.304  16.951  13.1840  0.00  0.00     0.000 OA
ENDBRANCH 43 53
BRANCH 45 58
ATOM     58   C  SUS B   3      25.066  15.772  18.1800  0.00  0.00     0.000 C
ATOM     59   S  SUS B   3      24.791  14.630  20.4620  0.00  0.00     0.000 S
ATOM     60   O  SUS B   3      24.284  15.673  19.3820  0.00  0.00     0.000 O
ATOM     61   O  SUS B   3      25.906  15.281  21.1230  0.00  0.00     0.000 OA
ATOM     62   O  SUS B   3      23.628  14.529  21.3020  0.00  0.00     0.000 OA
ATOM     63   O  SUS B   3      25.117  13.456  19.7320  0.00  0.00     0.000 OA
ENDBRANCH 45 58
BRANCH 41 64
ATOM     64  O4  IDS B   4      23.510  19.777  17.5410  0.00  0.00     0.000 O
BRANCH 64 68
ATOM     65  C1  IDS B   4      21.798  22.019  19.8470  0.00  0.00     0.000 C
ATOM     66  C2  IDS B   4      23.310  22.146  19.6260  0.00  0.00     0.000 C
ATOM     67  C3  IDS B   4      24.064  20.827  19.6670  0.00  0.00     0.000 C
ATOM     68  C4  IDS B   4      23.321  19.702  18.9720  0.00  0.00     0.000 C
ATOM     69  C5  IDS B   4      21.848  19.768  19.3970  0.00  0.00     0.000 C
ATOM     70  O5  IDS B   4      21.293  21.018  18.9810  0.00  0.00     0.000 O
ATOM     71   O  IDS B   4      24.262  20.500  21.0270  0.00  0.00     0.000 O
ATOM     73  HD  IDS B   4      24.083  21.024  20.3610  0.00  0.00     0.000 HD
BRANCH 66 73
ATOM     73   O  IDS B   4      23.549  22.691  18.2830  0.00  0.00     0.000 O
ATOM     74   S  IDS B   4      24.342  24.096  18.1640  0.00  0.00     0.000 S
ATOM     75   O  IDS B   4      23.598  25.055  18.9530  0.00  0.00     0.000 OA
ATOM     76   O  IDS B   4      24.297  24.343  16.7450  0.00  0.00     0.000 OA
ATOM     77   O  IDS B   4      25.665  23.836  18.6800  0.00  0.00     0.000 OA
ENDBRANCH 66 73
BRANCH 69 78
ATOM     78   C  IDS B   4      21.012  18.574  18.9580  0.00  0.00     0.000 C
ATOM     79   O  IDS B   4      19.810  18.738  18.7510  0.00  0.00     0.000 OA
ATOM     80   O  IDS B   4      21.589  17.497  18.7190  0.00  0.00     0.000 OA
ENDBRANCH 69 78
BRANCH 65 81
ATOM     81  O4  SGN B   5      21.545  21.866  21.1760  0.00  0.00     0.000 O
BRANCH 81 85
ATOM     82  C1  SGN B   5      18.481  22.328  24.0100  0.00  0.00     0.000 C
ATOM     83  C2  SGN B   5      18.061  21.923  22.5890  0.00  0.00     0.000 C
ATOM     84  C3  SGN B   5      19.274  21.356  21.8380  0.00  0.00     0.000 C
ATOM     85  C4  SGN B   5      20.399  22.375  21.8610  0.00  0.00     0.000 C
ATOM     86  C5  SGN B   5      20.741  22.679  23.3180  0.00  0.00     0.000 C
ATOM     87  O5  SGN B   5      19.574  23.224  23.9620  0.00  0.00     0.000 O
ATOM     88   O  SGN B   5      18.910  21.034  20.5140  0.00  0.00     0.000 O
ATOM     90  HD  SGN B   5      19.002  20.466  21.1610  0.00  0.00     0.000 HD
BRANCH 83 92
ATOM     90   N  SGN B   5      16.731  22.322  23.0880  0.00  0.00     0.000 N
ATOM     92  HD  SGN B   5      16.668  23.183  23.1500  0.00  0.00     0.000 HD
ATOM     92   S  SGN B   5      15.448  21.593  22.4730  0.00  0.00     0.000 S
ATOM     93   O  SGN B   5      14.339  22.198  23.1480  0.00  0.00     0.000 OA
ATOM     94   O  SGN B   5      15.576  21.713  21.0610  0.00  0.00     0.000 OA
ATOM     95   O  SGN B   5      15.633  20.132  22.8210  0.00  0.00     0.000 OA
ENDBRANCH 83 92
BRANCH 86 96
ATOM     96   C  SGN B   5      21.864  23.680  23.4960  0.00  0.00     0.000 C
ATOM     97   O  SGN B   5      21.630  24.498  24.6440  0.00  0.00     0.000 O
ATOM     98   S  SGN B   5      22.843  24.616  25.6860  0.00  0.00     0.000 S
ATOM     99   O  SGN B   5      22.384  25.641  26.5940  0.00  0.00     0.000 OA
ATOM    100   O  SGN B   5      23.023  23.339  26.2770  0.00  0.00     0.000 OA
ATOM    101   O  SGN B   5      23.956  25.023  24.8910  0.00  0.00     0.000 OA
ENDBRANCH 86 96
BRANCH 82 102
ATOM    102  O4  IDS B   6      18.780  21.254  24.7950  0.00  0.00     0.000 O
BRANCH 102 106
ATOM    103  C1  IDS B   6      18.186  20.148  28.2120  0.00  0.00     0.000 C
ATOM    104  C2  IDS B   6      17.439  21.362  27.6380  0.00  0.00     0.000 C
ATOM    105  C3  IDS B   6      18.309  22.367  26.9090  0.00  0.00     0.000 C
ATOM    106  C4  IDS B   6      19.367  21.707  26.0420  0.00  0.00     0.000 C
ATOM    107  C5  IDS B   6      20.002  20.538  26.8000  0.00  0.00     0.000 C
ATOM    108  O5  IDS B   6      19.027  19.584  27.2240  0.00  0.00     0.000 O
ATOM    109   O  IDS B   6      18.908  23.215  27.8760  0.00  0.00     0.000 O
ATOM    111  HD  IDS B   6      18.891  22.746  28.6040  0.00  0.00     0.000 HD
BRANCH 104 111
ATOM    111   O  IDS B   6      16.464  20.896  26.6400  0.00  0.00     0.000 O
ATOM    112   S  IDS B   6      14.912  21.171  26.9180  0.00  0.00     0.000 S
ATOM    113   O  IDS B   6      14.645  20.513  28.1870  0.00  0.00     0.000 OA
ATOM    114   O  IDS B   6      14.690  22.621  26.9200  0.00  0.00     0.000 OA
ATOM    115   O  IDS B   6      14.345  20.490  25.7730  0.00  0.00     0.000 OA
ENDBRANCH 104 111
BRANCH 107 116
ATOM    116   C  IDS B   6      21.035  19.861  25.9090  0.00  0.00     0.000 C
ATOM    117   O  IDS B   6      22.016  20.503  25.6310  0.00  0.00     0.000 OA
ATOM    118   O  IDS B   6      20.867  18.726  25.4910  0.00  0.00     0.000 OA
ENDBRANCH 107 116
BRANCH 103 119
ATOM    119  O4  SGN B   7      18.687  20.606  29.3880  0.00  0.00     0.000 O
BRANCH 119 123
ATOM    120  C1  SGN B   7      19.992  18.834  32.9440  0.00  0.00     0.000 C
ATOM    121  C2  SGN B   7      21.059  19.191  31.8920  0.00  0.00     0.000 C
ATOM    122  C3  SGN B   7      20.489  20.172  30.8600  0.00  0.00     0.000 C
ATOM    123  C4  SGN B   7      19.206  19.610  30.2700  0.00  0.00     0.000 C
ATOM    124  C5  SGN B   7      18.213  19.281  31.3970  0.00  0.00     0.000 C
ATOM    125  O5  SGN B   7      18.791  18.354  32.3440  0.00  0.00     0.000 O
ATOM    126   O  SGN B   7      21.472  20.404  29.8450  0.00  0.00     0.000 O
ATOM    128  HD  SGN B   7      21.280  20.068  30.6190  0.00  0.00     0.000 HD
BRANCH 121 130
ATOM    128   N  SGN B   7      22.027  18.404  32.6600  0.00  0.00     0.000 N
ATOM    130  HD  SGN B   7      22.417  18.155  31.9280  0.00  0.00     0.000 HD
ATOM    130   S  SGN B   7      23.560  18.864  32.8390  0.00  0.00     0.000 S
ATOM    131   O  SGN B   7      23.494  20.217  33.2750  0.00  0.00     0.000 OA
ATOM    132   O  SGN B   7      24.230  17.890  33.6230  0.00  0.00     0.000 OA
ATOM    133   O  SGN B   7      24.093  18.636  31.3840  0.00  0.00     0.000 OA
ENDBRANCH 121 130
BRANCH 124 134
ATOM    134   C  SGN B   7      16.957  18.611  30.9230  0.00  0.00     0.000 C
ATOM    135   O  SGN B   7      17.318  17.439  30.1730  0.00  0.00     0.000 O
ATOM    136   S  SGN B   7      16.137  16.509  29.7170  0.00  0.00     0.000 S
ATOM    137   O  SGN B   7      16.727  15.472  28.9040  0.00  0.00     0.000 OA
ATOM    138   O  SGN B   7      15.244  17.369  28.9740  0.00  0.00     0.000 OA
ATOM    139   O  SGN B   7      15.603  16.036  30.9840  0.00  0.00     0.000 OA
ENDBRANCH 124 134
BRANCH 120 140
ATOM    140  O4  IDS B   8      19.457  19.630  33.8760  0.00  0.00     0.000 O
BRANCH 140 144
ATOM    141  C1  IDS B   8      18.105  22.678  35.2360  0.00  0.00     0.000 C
ATOM    142  C2  IDS B   8      19.277  22.709  34.2140  0.00  0.00     0.000 C
ATOM    143  C3  IDS B   8      20.417  21.738  34.5730  0.00  0.00     0.000 C
ATOM    144  C4  IDS B   8      19.890  20.375  35.0210  0.00  0.00     0.000 C
ATOM    145  C5  IDS B   8      18.724  20.556  36.0050  0.00  0.00     0.000 C
ATOM    146  O5  IDS B   8      17.674  21.338  35.4400  0.00  0.00     0.000 O
BRANCH 142 147
ATOM    147   O  IDS B   8      18.774  22.319  32.8710  0.00  0.00     0.000 O
ATOM    148   S  IDS B   8      18.361  23.441  31.7740  0.00  0.00     0.000 S
ATOM    149   O  IDS B   8      18.207  24.698  32.4710  0.00  0.00     0.000 OA
ATOM    150   O  IDS B   8      19.448  23.461  30.8130  0.00  0.00     0.000 OA
ATOM    151   O  IDS B   8      17.109  22.978  31.2080  0.00  0.00     0.000 OA
ENDBRANCH 142 147
BRANCH 145 152
ATOM    152   C  IDS B   8      18.092  19.239  36.4090  0.00  0.00     0.000 C
ATOM    153   O  IDS B   8      18.698  18.484  37.1610  0.00  0.00     0.000 OA
ATOM    154   O  IDS B   8      16.982  18.953  35.9990  0.00  0.00     0.000 OA
ENDBRANCH 145 152
ENDBRANCH 140 144
ENDBRANCH 120 140
ENDBRANCH 119 123
ENDBRANCH 103 119
ENDBRANCH 102 106
ENDBRANCH 82 102
ENDBRANCH 81 85
ENDBRANCH 65 81
ENDBRANCH 64 68
ENDBRANCH 41 64
ENDBRANCH 40 44
ENDBRANCH 24 40
ENDBRANCH 23 27
ENDBRANCH 1 23
TORSDOF 31
ENDMDL
MODEL 51
REMARK VINA RESULT:      -7.0      4.593      7.370
ROOT
ATOM      1  C1  SGN B   1      28.238  10.859  14.4240  0.00  0.00     0.000 C
ATOM      2  C2  SGN B   1      29.574  10.451  15.0680  0.00  0.00     0.000 C
ATOM      3  C3  SGN B   1      30.230   9.311  14.2800  0.00  0.00     0.000 C
ATOM      4  C4  SGN B   1      29.269   8.132  14.1620  0.00  0.00     0.000 C
ATOM      5  C5  SGN B   1      27.921   8.636  13.6510  0.00  0.00     0.000 C
ATOM      6  O5  SGN B   1      27.441   9.685  14.5130  0.00  0.00     0.000 O
ATOM      7   O  SGN B   1      31.443   8.906  14.9030  0.00  0.00     0.000 O
ATOM      9  HD  SGN B   1      30.862   8.742  15.5250  0.00  0.00     0.000 HD
ATOM      9   O  SGN B   1      29.805   7.176  13.2660  0.00  0.00     0.000 O
ATOM     11  HD  SGN B   1      29.225   7.012  13.8870  0.00  0.00     0.000 HD
ENDROOT
BRANCH 2 13
ATOM     11   N  SGN B   1      29.410  11.477  16.1150  0.00  0.00     0.000 N
ATOM     13  HD  SGN B   1      29.605  11.704  15.3020  0.00  0.00     0.000 HD
ATOM     13   S  SGN B   1      30.179  12.889  16.0610  0.00  0.00     0.000 S
ATOM     14   O  SGN B   1      30.945  12.981  14.8800  0.00  0.00     0.000 OA
ATOM     15   O  SGN B   1      29.248  13.921  16.3740  0.00  0.00     0.000 OA
ATOM     16   O  SGN B   1      31.089  12.695  17.3130  0.00  0.00     0.000 OA
ENDBRANCH 2 13
BRANCH 5 17
ATOM     17   C  SGN B   1      26.850   7.575  13.5960  0.00  0.00     0.000 C
ATOM     18   O  SGN B   1      25.874   7.881  12.5810  0.00  0.00     0.000 O
ATOM     19   S  SGN B   1      24.342   7.704  13.0050  0.00  0.00     0.000 S
ATOM     20   O  SGN B   1      23.594   7.838  11.7730  0.00  0.00     0.000 OA
ATOM     21   O  SGN B   1      24.285   6.378  13.5750  0.00  0.00     0.000 OA
ATOM     22   O  SGN B   1      24.088   8.764  13.9550  0.00  0.00     0.000 OA
ENDBRANCH 5 17
BRANCH 1 23
ATOM     23  O4  IDS B   2      27.738  11.714  13.4880  0.00  0.00     0.000 O
BRANCH 23 27
ATOM     24  C1  IDS B   2      25.491  15.011  14.6330  0.00  0.00     0.000 C
ATOM     25  C2  IDS B   2      24.771  13.648  14.7260  0.00  0.00     0.000 C
ATOM     26  C3  IDS B   2      25.761  12.496  14.5740  0.00  0.00     0.000 C
ATOM     27  C4  IDS B   2      26.597  12.577  13.3040  0.00  0.00     0.000 C
ATOM     28  C5  IDS B   2      26.950  14.047  12.9990  0.00  0.00     0.000 C
ATOM     29  O5  IDS B   2      26.837  14.849  14.1650  0.00  0.00     0.000 O
ATOM     30   O  IDS B   2      25.046  11.266  14.5400  0.00  0.00     0.000 O
ATOM     32  HD  IDS B   2      24.688  11.100  13.7690  0.00  0.00     0.000 HD
BRANCH 25 32
ATOM     32   O  IDS B   2      24.072  13.470  16.0230  0.00  0.00     0.000 O
ATOM     33   S  IDS B   2      22.444  13.694  16.1740  0.00  0.00     0.000 S
ATOM     34   O  IDS B   2      22.161  13.658  17.6000  0.00  0.00     0.000 OA
ATOM     35   O  IDS B   2      22.076  14.977  15.5910  0.00  0.00     0.000 OA
ATOM     36   O  IDS B   2      21.832  12.581  15.4860  0.00  0.00     0.000 OA
ENDBRANCH 25 32
BRANCH 28 37
ATOM     37   C  IDS B   2      28.315  14.338  12.3420  0.00  0.00     0.000 C
ATOM     38   O  IDS B   2      29.064  14.947  13.0690  0.00  0.00     0.000 OA
ATOM     39   O  IDS B   2      28.705  13.959  11.2100  0.00  0.00     0.000 OA
ENDBRANCH 28 37
BRANCH 24 40
ATOM     40  O4  SUS B   3      24.775  16.154  14.6760  0.00  0.00     0.000 O
BRANCH 40 44
ATOM     41  C1  SUS B   3      25.820  19.793  16.4700  0.00  0.00     0.000 C
ATOM     42  C2  SUS B   3      25.978  19.690  14.9400  0.00  0.00     0.000 C
ATOM     43  C3  SUS B   3      25.127  18.532  14.4230  0.00  0.00     0.000 C
ATOM     44  C4  SUS B   3      25.515  17.266  15.1700  0.00  0.00     0.000 C
ATOM     45  C5  SUS B   3      25.229  17.460  16.6450  0.00  0.00     0.000 C
ATOM     46  O5  SUS B   3      26.053  18.541  17.1250  0.00  0.00     0.000 O
BRANCH 42 49
ATOM     47   N  SUS B   3      27.127  20.611  14.9070  0.00  0.00     0.000 N
ATOM     49  HD  SUS B   3      27.328  21.006  15.6520  0.00  0.00     0.000 HD
ATOM     49   S  SUS B   3      26.987  21.733  13.7720  0.00  0.00     0.000 S
ATOM     50   O  SUS B   3      25.799  22.465  13.9640  0.00  0.00     0.000 OA
ATOM     51   O  SUS B   3      28.220  22.571  14.1950  0.00  0.00     0.000 OA
ATOM     52   O  SUS B   3      27.195  21.146  12.5080  0.00  0.00     0.000 OA
ENDBRANCH 42 49
BRANCH 43 53
ATOM     53   O  SUS B   3      25.407  18.370  12.9830  0.00  0.00     0.000 O
ATOM     54   S  SUS B   3      24.185  18.716  11.9390  0.00  0.00     0.000 S
ATOM     55   O  SUS B   3      24.000  20.160  11.9470  0.00  0.00     0.000 OA
ATOM     56   O  SUS B   3      24.651  18.193  10.6670  0.00  0.00     0.000 OA
ATOM     57   O  SUS B   3      22.996  18.025  12.4480  0.00  0.00     0.000 OA
ENDBRANCH 43 53
BRANCH 45 58
ATOM     58   C  SUS B   3      25.496  16.203  17.4450  0.00  0.00     0.000 C
ATOM     59   S  SUS B   3      24.806  14.972  19.5880  0.00  0.00     0.000 S
ATOM     60   O  SUS B   3      24.544  16.110  18.5180  0.00  0.00     0.000 O
ATOM     61   O  SUS B   3      25.863  15.487  20.4380  0.00  0.00     0.000 OA
ATOM     62   O  SUS B   3      23.530  14.930  20.2510  0.00  0.00     0.000 OA
ATOM     63   O  SUS B   3      25.139  13.814  18.8370  0.00  0.00     0.000 OA
ENDBRANCH 45 58
BRANCH 41 64
ATOM     64  O4  IDS B   4      24.669  20.428  16.8670  0.00  0.00     0.000 O
BRANCH 64 68
ATOM     65  C1  IDS B   4      22.309  22.426  18.7940  0.00  0.00     0.000 C
ATOM     66  C2  IDS B   4      23.249  23.100  17.7870  0.00  0.00     0.000 C
ATOM     67  C3  IDS B   4      24.696  22.643  17.8760  0.00  0.00     0.000 C
ATOM     68  C4  IDS B   4      24.830  21.150  18.1080  0.00  0.00     0.000 C
ATOM     69  C5  IDS B   4      23.819  20.742  19.1880  0.00  0.00     0.000 C
ATOM     70  O5  IDS B   4      22.496  21.024  18.7260  0.00  0.00     0.000 O
ATOM     71   O  IDS B   4      25.292  23.348  18.9460  0.00  0.00     0.000 O
ATOM     73  HD  IDS B   4      24.692  23.196  18.3410  0.00  0.00     0.000 HD
BRANCH 66 73
ATOM     73   O  IDS B   4      22.813  22.754  16.4270  0.00  0.00     0.000 O
ATOM     74   S  IDS B   4      22.168  23.925  15.5170  0.00  0.00     0.000 S
ATOM     75   O  IDS B   4      21.049  24.457  16.2660  0.00  0.00     0.000 OA
ATOM     76   O  IDS B   4      21.788  23.202  14.3290  0.00  0.00     0.000 OA
ATOM     77   O  IDS B   4      23.227  24.884  15.3150  0.00  0.00     0.000 OA
ENDBRANCH 66 73
BRANCH 69 78
ATOM     78   C  IDS B   4      23.979  19.314  19.6910  0.00  0.00     0.000 C
ATOM     79   O  IDS B   4      23.051  18.522  19.5290  0.00  0.00     0.000 OA
ATOM     80   O  IDS B   4      25.080  18.965  20.1540  0.00  0.00     0.000 OA
ENDBRANCH 69 78
BRANCH 65 81
ATOM     81  O4  SGN B   5      22.463  23.006  20.0170  0.00  0.00     0.000 O
BRANCH 81 85
ATOM     82  C1  SGN B   5      20.365  23.095  23.6540  0.00  0.00     0.000 C
ATOM     83  C2  SGN B   5      19.876  22.100  22.5910  0.00  0.00     0.000 C
ATOM     84  C3  SGN B   5      20.988  21.865  21.5590  0.00  0.00     0.000 C
ATOM     85  C4  SGN B   5      21.420  23.199  20.9750  0.00  0.00     0.000 C
ATOM     86  C5  SGN B   5      21.904  24.088  22.1170  0.00  0.00     0.000 C
ATOM     87  O5  SGN B   5      20.816  24.288  23.0400  0.00  0.00     0.000 O
ATOM     88   O  SGN B   5      20.526  20.996  20.5470  0.00  0.00     0.000 O
ATOM     90  HD  SGN B   5      21.042  20.771  21.2050  0.00  0.00     0.000 HD
BRANCH 83 92
ATOM     90   N  SGN B   5      18.822  21.965  23.6140  0.00  0.00     0.000 N
ATOM     92  HD  SGN B   5      18.432  22.725  23.7610  0.00  0.00     0.000 HD
ATOM     92   S  SGN B   5      17.839  20.708  23.5190  0.00  0.00     0.000 S
ATOM     93   O  SGN B   5      16.948  20.871  24.6280  0.00  0.00     0.000 OA
ATOM     94   O  SGN B   5      17.332  20.714  22.1900  0.00  0.00     0.000 OA
ATOM     95   O  SGN B   5      18.744  19.503  23.6520  0.00  0.00     0.000 OA
ENDBRANCH 83 92
BRANCH 86 96
ATOM     96   C  SGN B   5      22.381  25.457  21.6790  0.00  0.00     0.000 C
ATOM     97   O  SGN B   5      21.281  26.253  21.2330  0.00  0.00     0.000 O
ATOM     98   S  SGN B   5      21.162  27.717  21.8760  0.00  0.00     0.000 S
ATOM     99   O  SGN B   5      20.111  28.324  21.0950  0.00  0.00     0.000 OA
ATOM    100   O  SGN B   5      20.858  27.555  23.2530  0.00  0.00     0.000 OA
ATOM    101   O  SGN B   5      22.443  28.307  21.6550  0.00  0.00     0.000 OA
ENDBRANCH 86 96
BRANCH 82 102
ATOM    102  O4  IDS B   6      21.340  22.574  24.4510  0.00  0.00     0.000 O
BRANCH 102 106
ATOM    103  C1  IDS B   6      22.878  21.431  27.5480  0.00  0.00     0.000 C
ATOM    104  C2  IDS B   6      21.509  20.891  27.1040  0.00  0.00     0.000 C
ATOM    105  C3  IDS B   6      20.516  21.946  26.6550  0.00  0.00     0.000 C
ATOM    106  C4  IDS B   6      21.158  23.035  25.8140  0.00  0.00     0.000 C
ATOM    107  C5  IDS B   6      22.497  23.446  26.4340  0.00  0.00     0.000 C
ATOM    108  O5  IDS B   6      23.380  22.332  26.5800  0.00  0.00     0.000 O
ATOM    109   O  IDS B   6      19.905  22.496  27.8110  0.00  0.00     0.000 O
ATOM    111  HD  IDS B   6      20.474  22.337  28.4430  0.00  0.00     0.000 HD
BRANCH 104 111
ATOM    111   O  IDS B   6      21.695  20.013  25.9380  0.00  0.00     0.000 O
ATOM    112   S  IDS B   6      21.384  18.452  26.1140  0.00  0.00     0.000 S
ATOM    113   O  IDS B   6      22.271  18.020  27.1840  0.00  0.00     0.000 OA
ATOM    114   O  IDS B   6      19.954  18.294  26.4020  0.00  0.00     0.000 OA
ATOM    115   O  IDS B   6      21.777  17.987  24.8020  0.00  0.00     0.000 OA
ENDBRANCH 104 111
BRANCH 107 116
ATOM    116   C  IDS B   6      23.150  24.512  25.5630  0.00  0.00     0.000 C
ATOM    117   O  IDS B   6      22.609  25.588  25.5280  0.00  0.00     0.000 OA
ATOM    118   O  IDS B   6      24.165  24.279  24.9270  0.00  0.00     0.000 OA
ENDBRANCH 107 116
BRANCH 103 119
ATOM    119  O4  SGN B   7      22.669  21.818  28.8320  0.00  0.00     0.000 O
BRANCH 119 123
ATOM    120  C1  SGN B   7      24.936  21.996  32.3420  0.00  0.00     0.000 C
ATOM    121  C2  SGN B   7      25.067  23.166  31.3480  0.00  0.00     0.000 C
ATOM    122  C3  SGN B   7      23.906  23.152  30.3460  0.00  0.00     0.000 C
ATOM    123  C4  SGN B   7      23.816  21.788  29.6830  0.00  0.00     0.000 C
ATOM    124  C5  SGN B   7      23.695  20.693  30.7550  0.00  0.00     0.000 C
ATOM    125  O5  SGN B   7      24.808  20.742  31.6750  0.00  0.00     0.000 O
ATOM    126   O  SGN B   7      24.112  24.189  29.3800  0.00  0.00     0.000 O
ATOM    128  HD  SGN B   7      24.347  23.825  30.1290  0.00  0.00     0.000 HD
BRANCH 121 130
ATOM    128   N  SGN B   7      26.228  23.636  32.1080  0.00  0.00     0.000 N
ATOM    130  HD  SGN B   7      26.601  23.917  31.3780  0.00  0.00     0.000 HD
ATOM    130   S  SGN B   7      26.507  25.200  32.3690  0.00  0.00     0.000 S
ATOM    131   O  SGN B   7      25.282  25.718  32.8760  0.00  0.00     0.000 OA
ATOM    132   O  SGN B   7      27.703  25.320  33.1230  0.00  0.00     0.000 OA
ATOM    133   O  SGN B   7      26.902  25.660  30.9250  0.00  0.00     0.000 OA
ENDBRANCH 121 130
BRANCH 124 134
ATOM    134   C  SGN B   7      23.716  19.298  30.2030  0.00  0.00     0.000 C
ATOM    135   O  SGN B   7      24.771  18.565  30.8490  0.00  0.00     0.000 O
ATOM    136   S  SGN B   7      24.862  17.032  30.5200  0.00  0.00     0.000 S
ATOM    137   O  SGN B   7      26.042  16.542  31.1910  0.00  0.00     0.000 OA
ATOM    138   O  SGN B   7      24.961  16.959  29.0800  0.00  0.00     0.000 OA
ATOM    139   O  SGN B   7      23.615  16.520  31.0650  0.00  0.00     0.000 OA
ENDBRANCH 124 134
BRANCH 120 140
ATOM    140  O4  IDS B   8      24.009  21.823  33.2910  0.00  0.00     0.000 O
BRANCH 140 144
ATOM    141  C1  IDS B   8      22.229  20.700  36.2120  0.00  0.00     0.000 C
ATOM    142  C2  IDS B   8      21.479  20.991  34.8810  0.00  0.00     0.000 C
ATOM    143  C3  IDS B   8      21.856  22.348  34.2600  0.00  0.00     0.000 C
ATOM    144  C4  IDS B   8      23.362  22.601  34.3060  0.00  0.00     0.000 C
ATOM    145  C5  IDS B   8      23.919  22.231  35.6900  0.00  0.00     0.000 C
ATOM    146  O5  IDS B   8      23.628  20.878  36.0300  0.00  0.00     0.000 O
BRANCH 142 147
ATOM    147   O  IDS B   8      21.815  19.942  33.8830  0.00  0.00     0.000 O
ATOM    148   S  IDS B   8      20.655  19.048  33.1860  0.00  0.00     0.000 S
ATOM    149   O  IDS B   8      19.454  19.196  33.9770  0.00  0.00     0.000 OA
ATOM    150   O  IDS B   8      20.512  19.577  31.8430  0.00  0.00     0.000 OA
ATOM    151   O  IDS B   8      21.155  17.686  33.2110  0.00  0.00     0.000 OA
ENDBRANCH 142 147
BRANCH 145 152
ATOM    152   C  IDS B   8      25.426  22.366  35.7670  0.00  0.00     0.000 C
ATOM    153   O  IDS B   8      26.096  21.431  36.1900  0.00  0.00     0.000 OA
ATOM    154   O  IDS B   8      25.959  23.395  35.3890  0.00  0.00     0.000 OA
ENDBRANCH 145 152
ENDBRANCH 140 144
ENDBRANCH 120 140
ENDBRANCH 119 123
ENDBRANCH 103 119
ENDBRANCH 102 106
ENDBRANCH 82 102
ENDBRANCH 81 85
ENDBRANCH 65 81
ENDBRANCH 64 68
ENDBRANCH 41 64
ENDBRANCH 40 44
ENDBRANCH 24 40
ENDBRANCH 23 27
ENDBRANCH 1 23
TORSDOF 31
ENDMDL
MODEL 52
REMARK VINA RESULT:      -7.0      7.840     11.512
ROOT
ATOM      1  C1  SGN B   1      28.222  10.843  14.3920  0.00  0.00     0.000 C
ATOM      2  C2  SGN B   1      29.539  10.446  15.0780  0.00  0.00     0.000 C
ATOM      3  C3  SGN B   1      30.210   9.286  14.3350  0.00  0.00     0.000 C
ATOM      4  C4  SGN B   1      29.248   8.107  14.2200  0.00  0.00     0.000 C
ATOM      5  C5  SGN B   1      27.915   8.603  13.6640  0.00  0.00     0.000 C
ATOM      6  O5  SGN B   1      27.418   9.675  14.4880  0.00  0.00     0.000 O
ATOM      7   O  SGN B   1      31.405   8.891  14.9980  0.00  0.00     0.000 O
ATOM      9  HD  SGN B   1      30.809   8.744  15.6080  0.00  0.00     0.000 HD
ATOM      9   O  SGN B   1      29.803   7.129  13.3600  0.00  0.00     0.000 O
ATOM     11  HD  SGN B   1      29.206   6.982  13.9710  0.00  0.00     0.000 HD
ENDROOT
BRANCH 2 13
ATOM     11   N  SGN B   1      29.362  11.492  16.1030  0.00  0.00     0.000 N
ATOM     13  HD  SGN B   1      29.566  11.704  15.2880  0.00  0.00     0.000 HD
ATOM     13   S  SGN B   1      30.129  12.905  16.0290  0.00  0.00     0.000 S
ATOM     14   O  SGN B   1      30.906  12.975  14.8550  0.00  0.00     0.000 OA
ATOM     15   O  SGN B   1      29.192  13.940  16.3120  0.00  0.00     0.000 OA
ATOM     16   O  SGN B   1      31.026  12.738  17.2950  0.00  0.00     0.000 OA
ENDBRANCH 2 13
BRANCH 5 17
ATOM     17   C  SGN B   1      26.842   7.545  13.6060  0.00  0.00     0.000 C
ATOM     18   O  SGN B   1      25.869   7.854  12.5890  0.00  0.00     0.000 O
ATOM     19   S  SGN B   1      24.335   7.681  13.0090  0.00  0.00     0.000 S
ATOM     20   O  SGN B   1      23.591   7.816  11.7750  0.00  0.00     0.000 OA
ATOM     21   O  SGN B   1      24.274   6.355  13.5790  0.00  0.00     0.000 OA
ATOM     22   O  SGN B   1      24.082   8.742  13.9590  0.00  0.00     0.000 OA
ENDBRANCH 5 17
BRANCH 1 23
ATOM     23  O4  IDS B   2      27.749  11.678  13.4230  0.00  0.00     0.000 O
BRANCH 23 27
ATOM     24  C1  IDS B   2      25.715  15.167  14.3830  0.00  0.00     0.000 C
ATOM     25  C2  IDS B   2      24.932  13.854  14.6100  0.00  0.00     0.000 C
ATOM     26  C3  IDS B   2      25.857  12.644  14.5140  0.00  0.00     0.000 C
ATOM     27  C4  IDS B   2      26.645  12.583  13.2130  0.00  0.00     0.000 C
ATOM     28  C5  IDS B   2      27.059  14.004  12.7800  0.00  0.00     0.000 C
ATOM     29  O5  IDS B   2      27.031  14.898  13.8820  0.00  0.00     0.000 O
ATOM     30   O  IDS B   2      25.082  11.454  14.6040  0.00  0.00     0.000 O
ATOM     32  HD  IDS B   2      24.686  11.248  13.8620  0.00  0.00     0.000 HD
BRANCH 25 32
ATOM     32   O  IDS B   2      24.278  13.814  15.9410  0.00  0.00     0.000 O
ATOM     33   S  IDS B   2      22.640  13.701  16.1040  0.00  0.00     0.000 S
ATOM     34   O  IDS B   2      22.357  13.915  17.5140  0.00  0.00     0.000 OA
ATOM     35   O  IDS B   2      22.000  14.712  15.2740  0.00  0.00     0.000 OA
ATOM     36   O  IDS B   2      22.299  12.358  15.6960  0.00  0.00     0.000 OA
ENDBRANCH 25 32
BRANCH 28 37
ATOM     37   C  IDS B   2      28.409  14.171  12.0530  0.00  0.00     0.000 C
ATOM     38   O  IDS B   2      28.362  13.830  10.8950  0.00  0.00     0.000 OA
ATOM     39   O  IDS B   2      29.464  14.664  12.5230  0.00  0.00     0.000 OA
ENDBRANCH 28 37
BRANCH 24 40
ATOM     40  O4  SUS B   3      25.059  16.346  14.3620  0.00  0.00     0.000 O
BRANCH 40 44
ATOM     41  C1  SUS B   3      26.331  20.180  15.4690  0.00  0.00     0.000 C
ATOM     42  C2  SUS B   3      26.972  19.561  14.2110  0.00  0.00     0.000 C
ATOM     43  C3  SUS B   3      26.081  18.432  13.6960  0.00  0.00     0.000 C
ATOM     44  C4  SUS B   3      25.846  17.439  14.8230  0.00  0.00     0.000 C
ATOM     45  C5  SUS B   3      25.132  18.144  15.9580  0.00  0.00     0.000 C
ATOM     46  O5  SUS B   3      25.992  19.192  16.4480  0.00  0.00     0.000 O
BRANCH 42 49
ATOM     47   N  SUS B   3      27.996  20.598  14.4230  0.00  0.00     0.000 N
ATOM     49  HD  SUS B   3      27.725  21.344  14.7700  0.00  0.00     0.000 HD
ATOM     49   S  SUS B   3      28.815  20.939  13.0890  0.00  0.00     0.000 S
ATOM     50   O  SUS B   3      27.928  21.350  12.0730  0.00  0.00     0.000 OA
ATOM     51   O  SUS B   3      29.591  22.154  13.6600  0.00  0.00     0.000 OA
ATOM     52   O  SUS B   3      29.696  19.879  12.7980  0.00  0.00     0.000 OA
ENDBRANCH 42 49
BRANCH 43 53
ATOM     53   O  SUS B   3      26.785  17.769  12.5820  0.00  0.00     0.000 O
ATOM     54   S  SUS B   3      26.031  17.753  11.1210  0.00  0.00     0.000 S
ATOM     55   O  SUS B   3      26.062  19.112  10.6000  0.00  0.00     0.000 OA
ATOM     56   O  SUS B   3      26.803  16.806  10.3370  0.00  0.00     0.000 OA
ATOM     57   O  SUS B   3      24.655  17.312  11.3700  0.00  0.00     0.000 OA
ENDBRANCH 43 53
BRANCH 45 58
ATOM     58   C  SUS B   3      24.772  17.195  17.0790  0.00  0.00     0.000 C
ATOM     59   S  SUS B   3      24.866  16.933  19.6300  0.00  0.00     0.000 S
ATOM     60   O  SUS B   3      24.984  17.847  18.3420  0.00  0.00     0.000 O
ATOM     61   O  SUS B   3      26.115  16.197  19.6880  0.00  0.00     0.000 OA
ATOM     62   O  SUS B   3      24.762  17.932  20.6590  0.00  0.00     0.000 OA
ATOM     63   O  SUS B   3      23.704  16.143  19.4300  0.00  0.00     0.000 OA
ENDBRANCH 45 58
BRANCH 41 64
ATOM     64  O4  IDS B   4      25.321  21.069  15.1940  0.00  0.00     0.000 O
BRANCH 64 68
ATOM     65  C1  IDS B   4      23.542  24.220  15.6220  0.00  0.00     0.000 C
ATOM     66  C2  IDS B   4      25.066  24.164  15.7920  0.00  0.00     0.000 C
ATOM     67  C3  IDS B   4      25.560  23.009  16.6470  0.00  0.00     0.000 C
ATOM     68  C4  IDS B   4      24.811  21.717  16.3810  0.00  0.00     0.000 C
ATOM     69  C5  IDS B   4      23.313  22.040  16.3050  0.00  0.00     0.000 C
ATOM     70  O5  IDS B   4      23.081  22.943  15.2210  0.00  0.00     0.000 O
ATOM     71   O  IDS B   4      25.396  23.387  17.9980  0.00  0.00     0.000 O
ATOM     73  HD  IDS B   4      25.458  23.521  17.1450  0.00  0.00     0.000 HD
BRANCH 66 73
ATOM     73   O  IDS B   4      25.682  23.966  14.4730  0.00  0.00     0.000 O
ATOM     74   S  IDS B   4      26.821  25.015  14.0030  0.00  0.00     0.000 S
ATOM     75   O  IDS B   4      26.218  26.330  14.0660  0.00  0.00     0.000 OA
ATOM     76   O  IDS B   4      27.105  24.564  12.6650  0.00  0.00     0.000 OA
ATOM     77   O  IDS B   4      27.911  24.842  14.9330  0.00  0.00     0.000 OA
ENDBRANCH 66 73
BRANCH 69 78
ATOM     78   C  IDS B   4      22.406  20.817  16.2610  0.00  0.00     0.000 C
ATOM     79   O  IDS B   4      22.462  20.007  17.1860  0.00  0.00     0.000 OA
ATOM     80   O  IDS B   4      21.565  20.731  15.3470  0.00  0.00     0.000 OA
ENDBRANCH 69 78
BRANCH 65 81
ATOM     81  O4  SGN B   5      22.981  24.752  16.7430  0.00  0.00     0.000 O
BRANCH 81 85
ATOM     82  C1  SGN B   5      19.222  25.728  18.3430  0.00  0.00     0.000 C
ATOM     83  C2  SGN B   5      19.923  24.487  18.9160  0.00  0.00     0.000 C
ATOM     84  C3  SGN B   5      21.420  24.543  18.5810  0.00  0.00     0.000 C
ATOM     85  C4  SGN B   5      21.593  24.686  17.0790  0.00  0.00     0.000 C
ATOM     86  C5  SGN B   5      20.877  25.959  16.6340  0.00  0.00     0.000 C
ATOM     87  O5  SGN B   5      19.479  25.840  16.9560  0.00  0.00     0.000 O
ATOM     88   O  SGN B   5      22.061  23.378  19.0550  0.00  0.00     0.000 O
ATOM     90  HD  SGN B   5      22.083  24.155  19.4380  0.00  0.00     0.000 HD
BRANCH 83 92
ATOM     90   N  SGN B   5      18.678  24.534  19.7060  0.00  0.00     0.000 N
ATOM     92  HD  SGN B   5      17.993  24.683  19.1980  0.00  0.00     0.000 HD
ATOM     92   S  SGN B   5      18.457  23.417  20.8280  0.00  0.00     0.000 S
ATOM     93   O  SGN B   5      17.181  23.732  21.3950  0.00  0.00     0.000 OA
ATOM     94   O  SGN B   5      18.659  22.169  20.1760  0.00  0.00     0.000 OA
ATOM     95   O  SGN B   5      19.604  23.612  21.7950  0.00  0.00     0.000 OA
ENDBRANCH 83 92
BRANCH 86 96
ATOM     96   C  SGN B   5      20.976  26.240  15.1490  0.00  0.00     0.000 C
ATOM     97   O  SGN B   5      20.414  25.163  14.3960  0.00  0.00     0.000 O
ATOM     98   S  SGN B   5      19.337  25.568  13.2790  0.00  0.00     0.000 S
ATOM     99   O  SGN B   5      19.122  24.325  12.5780  0.00  0.00     0.000 OA
ATOM    100   O  SGN B   5      18.195  26.073  13.9530  0.00  0.00     0.000 OA
ATOM    101   O  SGN B   5      19.999  26.555  12.4900  0.00  0.00     0.000 OA
ENDBRANCH 86 96
BRANCH 82 102
ATOM    102  O4  IDS B   6      19.579  26.875  18.9860  0.00  0.00     0.000 O
BRANCH 102 106
ATOM    103  C1  IDS B   6      18.951  29.845  20.9980  0.00  0.00     0.000 C
ATOM    104  C2  IDS B   6      18.319  28.495  21.3710  0.00  0.00     0.000 C
ATOM    105  C3  IDS B   6      17.670  27.749  20.2210  0.00  0.00     0.000 C
ATOM    106  C4  IDS B   6      18.483  27.824  18.9400  0.00  0.00     0.000 C
ATOM    107  C5  IDS B   6      19.005  29.250  18.7420  0.00  0.00     0.000 C
ATOM    108  O5  IDS B   6      19.777  29.695  19.8590  0.00  0.00     0.000 O
ATOM    109   O  IDS B   6      16.371  28.284  20.0250  0.00  0.00     0.000 O
ATOM    111  HD  IDS B   6      16.419  29.078  20.3670  0.00  0.00     0.000 HD
BRANCH 104 111
ATOM    111   O  IDS B   6      19.369  27.596  21.8730  0.00  0.00     0.000 O
ATOM    112   S  IDS B   6      19.238  27.048  23.3710  0.00  0.00     0.000 S
ATOM    113   O  IDS B   6      19.199  28.245  24.1970  0.00  0.00     0.000 OA
ATOM    114   O  IDS B   6      18.038  26.207  23.4550  0.00  0.00     0.000 OA
ATOM    115   O  IDS B   6      20.481  26.312  23.4610  0.00  0.00     0.000 OA
ENDBRANCH 104 111
BRANCH 107 116
ATOM    116   C  IDS B   6      19.849  29.306  17.4750  0.00  0.00     0.000 C
ATOM    117   O  IDS B   6      21.030  29.500  17.6180  0.00  0.00     0.000 OA
ATOM    118   O  IDS B   6      19.347  29.170  16.3700  0.00  0.00     0.000 OA
ENDBRANCH 107 116
BRANCH 103 119
ATOM    119  O4  SGN B   7      17.900  30.704  21.0000  0.00  0.00     0.000 O
BRANCH 119 123
ATOM    120  C1  SGN B   7      17.256  34.710  22.0140  0.00  0.00     0.000 C
ATOM    121  C2  SGN B   7      17.933  34.416  20.6620  0.00  0.00     0.000 C
ATOM    122  C3  SGN B   7      17.731  32.947  20.2670  0.00  0.00     0.000 C
ATOM    123  C4  SGN B   7      18.195  32.043  21.3970  0.00  0.00     0.000 C
ATOM    124  C5  SGN B   7      17.469  32.419  22.6990  0.00  0.00     0.000 C
ATOM    125  O5  SGN B   7      17.688  33.808  23.0320  0.00  0.00     0.000 O
ATOM    126   O  SGN B   7      18.454  32.686  19.0580  0.00  0.00     0.000 O
ATOM    128  HD  SGN B   7      18.158  33.268  19.6270  0.00  0.00     0.000 HD
BRANCH 121 130
ATOM    128   N  SGN B   7      18.505  35.751  20.4690  0.00  0.00     0.000 N
ATOM    130  HD  SGN B   7      19.040  35.441  19.8620  0.00  0.00     0.000 HD
ATOM    130   S  SGN B   7      18.194  36.638  19.1620  0.00  0.00     0.000 S
ATOM    131   O  SGN B   7      16.776  36.634  19.0370  0.00  0.00     0.000 OA
ATOM    132   O  SGN B   7      18.900  37.863  19.2760  0.00  0.00     0.000 OA
ATOM    133   O  SGN B   7      18.982  35.827  18.0770  0.00  0.00     0.000 OA
ENDBRANCH 121 130
BRANCH 124 134
ATOM    134   C  SGN B   7      17.945  31.657  23.9010  0.00  0.00     0.000 C
ATOM    135   O  SGN B   7      18.404  32.598  24.8870  0.00  0.00     0.000 O
ATOM    136   S  SGN B   7      18.803  32.006  26.2860  0.00  0.00     0.000 S
ATOM    137   O  SGN B   7      19.322  33.108  27.0600  0.00  0.00     0.000 OA
ATOM    138   O  SGN B   7      19.798  30.997  26.0010  0.00  0.00     0.000 OA
ATOM    139   O  SGN B   7      17.537  31.482  26.7770  0.00  0.00     0.000 OA
ENDBRANCH 124 134
BRANCH 120 140
ATOM    140  O4  IDS B   8      15.948  34.728  22.2930  0.00  0.00     0.000 O
BRANCH 140 144
ATOM    141  C1  IDS B   8      12.503  33.685  22.2460  0.00  0.00     0.000 C
ATOM    142  C2  IDS B   8      13.392  33.565  20.9760  0.00  0.00     0.000 C
ATOM    143  C3  IDS B   8      14.170  34.856  20.6590  0.00  0.00     0.000 C
ATOM    144  C4  IDS B   8      14.786  35.475  21.9120  0.00  0.00     0.000 C
ATOM    145  C5  IDS B   8      13.763  35.482  23.0580  0.00  0.00     0.000 C
ATOM    146  O5  IDS B   8      13.276  34.171  23.3360  0.00  0.00     0.000 O
BRANCH 142 147
ATOM    147   O  IDS B   8      14.394  32.485  21.1730  0.00  0.00     0.000 O
ATOM    148   S  IDS B   8      14.155  31.001  20.5630  0.00  0.00     0.000 S
ATOM    149   O  IDS B   8      12.755  30.888  20.2220  0.00  0.00     0.000 OA
ATOM    150   O  IDS B   8      15.025  30.914  19.4050  0.00  0.00     0.000 OA
ATOM    151   O  IDS B   8      14.529  30.087  21.6260  0.00  0.00     0.000 OA
ENDBRANCH 142 147
BRANCH 145 152
ATOM    152   C  IDS B   8      14.347  35.994  24.3580  0.00  0.00     0.000 C
ATOM    153   O  IDS B   8      14.749  37.151  24.4260  0.00  0.00     0.000 OA
ATOM    154   O  IDS B   8      14.393  35.260  25.3290  0.00  0.00     0.000 OA
ENDBRANCH 145 152
ENDBRANCH 140 144
ENDBRANCH 120 140
ENDBRANCH 119 123
ENDBRANCH 103 119
ENDBRANCH 102 106
ENDBRANCH 82 102
ENDBRANCH 81 85
ENDBRANCH 65 81
ENDBRANCH 64 68
ENDBRANCH 41 64
ENDBRANCH 40 44
ENDBRANCH 24 40
ENDBRANCH 23 27
ENDBRANCH 1 23
TORSDOF 31
ENDMDL
MODEL 53
REMARK VINA RESULT:      -7.0     10.905     16.506
ROOT
ATOM      1  C1  SGN B   1      29.557  10.722  15.6780  0.00  0.00     0.000 C
ATOM      2  C2  SGN B   1      31.025  10.319  15.4670  0.00  0.00     0.000 C
ATOM      3  C3  SGN B   1      31.261   9.864  14.0230  0.00  0.00     0.000 C
ATOM      4  C4  SGN B   1      30.301   8.734  13.6640  0.00  0.00     0.000 C
ATOM      5  C5  SGN B   1      28.879   9.151  14.0310  0.00  0.00     0.000 C
ATOM      6  O5  SGN B   1      28.831   9.528  15.4210  0.00  0.00     0.000 O
ATOM      7   O  SGN B   1      32.610   9.449  13.8430  0.00  0.00     0.000 O
ATOM      9  HD  SGN B   1      32.333   8.892  14.4460  0.00  0.00     0.000 HD
ATOM      9   O  SGN B   1      30.389   8.465  12.2760  0.00  0.00     0.000 O
ATOM     11  HD  SGN B   1      30.112   7.909  12.8790  0.00  0.00     0.000 HD
ENDROOT
BRANCH 2 13
ATOM     11   N  SGN B   1      31.482  10.588  16.8440  0.00  0.00     0.000 N
ATOM     13  HD  SGN B   1      31.171  11.228  16.3500  0.00  0.00     0.000 HD
ATOM     13   S  SGN B   1      32.063  12.020  17.2910  0.00  0.00     0.000 S
ATOM     14   O  SGN B   1      32.007  12.926  16.2110  0.00  0.00     0.000 OA
ATOM     15   O  SGN B   1      31.469  12.378  18.5360  0.00  0.00     0.000 OA
ATOM     16   O  SGN B   1      33.530  11.582  17.5900  0.00  0.00     0.000 OA
ENDBRANCH 2 13
BRANCH 5 17
ATOM     17   C  SGN B   1      27.848   8.069  13.8230  0.00  0.00     0.000 C
ATOM     18   O  SGN B   1      26.697   8.583  13.1240  0.00  0.00     0.000 O
ATOM     19   S  SGN B   1      25.272   8.159  13.7130  0.00  0.00     0.000 S
ATOM     20   O  SGN B   1      24.311   8.593  12.7210  0.00  0.00     0.000 OA
ATOM     21   O  SGN B   1      25.359   6.723  13.8450  0.00  0.00     0.000 OA
ATOM     22   O  SGN B   1      25.161   8.859  14.9740  0.00  0.00     0.000 OA
ENDBRANCH 5 17
BRANCH 1 23
ATOM     23  O4  IDS B   2      28.741  11.812  15.5930  0.00  0.00     0.000 O
BRANCH 23 27
ATOM     24  C1  IDS B   2      25.985  14.761  14.6240  0.00  0.00     0.000 C
ATOM     25  C2  IDS B   2      25.394  13.468  15.2290  0.00  0.00     0.000 C
ATOM     26  C3  IDS B   2      26.494  12.588  15.8160  0.00  0.00     0.000 C
ATOM     27  C4  IDS B   2      27.604  12.261  14.8270  0.00  0.00     0.000 C
ATOM     28  C5  IDS B   2      27.883  13.481  13.9260  0.00  0.00     0.000 C
ATOM     29  O5  IDS B   2      27.414  14.677  14.5320  0.00  0.00     0.000 O
ATOM     30   O  IDS B   2      25.927  11.357  16.2480  0.00  0.00     0.000 O
ATOM     32  HD  IDS B   2      25.786  10.800  15.6000  0.00  0.00     0.000 HD
BRANCH 25 32
ATOM     32   O  IDS B   2      24.419  13.750  16.3110  0.00  0.00     0.000 O
ATOM     33   S  IDS B   2      22.869  13.184  16.2560  0.00  0.00     0.000 S
ATOM     34   O  IDS B   2      22.162  13.836  17.3470  0.00  0.00     0.000 OA
ATOM     35   O  IDS B   2      22.279  13.514  14.9670  0.00  0.00     0.000 OA
ATOM     36   O  IDS B   2      22.967  11.759  16.4690  0.00  0.00     0.000 OA
ENDBRANCH 25 32
BRANCH 28 37
ATOM     37   C  IDS B   2      29.335  13.713  13.4570  0.00  0.00     0.000 C
ATOM     38   O  IDS B   2      29.733  12.841  12.7220  0.00  0.00     0.000 OA
ATOM     39   O  IDS B   2      30.061  14.705  13.7110  0.00  0.00     0.000 OA
ENDBRANCH 28 37
BRANCH 24 40
ATOM     40  O4  SUS B   3      25.178  15.640  13.9950  0.00  0.00     0.000 O
BRANCH 40 44
ATOM     41  C1  SUS B   3      25.396  19.815  13.7380  0.00  0.00     0.000 C
ATOM     42  C2  SUS B   3      26.573  19.010  13.1520  0.00  0.00     0.000 C
ATOM     43  C3  SUS B   3      26.122  17.574  12.8960  0.00  0.00     0.000 C
ATOM     44  C4  SUS B   3      25.561  16.997  14.1860  0.00  0.00     0.000 C
ATOM     45  C5  SUS B   3      24.360  17.817  14.6080  0.00  0.00     0.000 C
ATOM     46  O5  SUS B   3      24.803  19.165  14.8680  0.00  0.00     0.000 O
BRANCH 42 49
ATOM     47   N  SUS B   3      27.032  19.860  12.0390  0.00  0.00     0.000 N
ATOM     49  HD  SUS B   3      26.967  19.525  11.2440  0.00  0.00     0.000 HD
ATOM     49   S  SUS B   3      28.533  20.382  12.2390  0.00  0.00     0.000 S
ATOM     50   O  SUS B   3      29.406  19.286  12.3880  0.00  0.00     0.000 OA
ATOM     51   O  SUS B   3      28.690  21.018  10.8340  0.00  0.00     0.000 OA
ATOM     52   O  SUS B   3      28.553  21.374  13.2400  0.00  0.00     0.000 OA
ENDBRANCH 42 49
BRANCH 43 53
ATOM     53   O  SUS B   3      27.302  16.796  12.4690  0.00  0.00     0.000 O
ATOM     54   S  SUS B   3      27.367  16.337  10.8920  0.00  0.00     0.000 S
ATOM     55   O  SUS B   3      27.616  17.533  10.1000  0.00  0.00     0.000 OA
ATOM     56   O  SUS B   3      28.450  15.371  10.8520  0.00  0.00     0.000 OA
ATOM     57   O  SUS B   3      26.060  15.754  10.5760  0.00  0.00     0.000 OA
ENDBRANCH 43 53
BRANCH 45 58
ATOM     58   C  SUS B   3      23.684  17.243  15.8340  0.00  0.00     0.000 C
ATOM     59   S  SUS B   3      23.740  17.299  18.3990  0.00  0.00     0.000 S
ATOM     60   O  SUS B   3      24.175  17.915  17.0070  0.00  0.00     0.000 O
ATOM     61   O  SUS B   3      24.593  16.141  18.5850  0.00  0.00     0.000 OA
ATOM     62   O  SUS B   3      24.071  18.382  19.2860  0.00  0.00     0.000 OA
ATOM     63   O  SUS B   3      22.353  17.018  18.2740  0.00  0.00     0.000 OA
ENDBRANCH 45 58
BRANCH 41 64
ATOM     64  O4  IDS B   4      24.492  20.241  12.7960  0.00  0.00     0.000 O
BRANCH 64 68
ATOM     65  C1  IDS B   4      22.065  22.289  11.0110  0.00  0.00     0.000 C
ATOM     66  C2  IDS B   4      23.565  22.587  10.8900  0.00  0.00     0.000 C
ATOM     67  C3  IDS B   4      24.311  22.598  12.2130  0.00  0.00     0.000 C
ATOM     68  C4  IDS B   4      23.865  21.493  13.1510  0.00  0.00     0.000 C
ATOM     69  C5  IDS B   4      22.331  21.436  13.1260  0.00  0.00     0.000 C
ATOM     70  O5  IDS B   4      21.893  21.127  11.8010  0.00  0.00     0.000 O
ATOM     71   O  IDS B   4      24.083  23.856  12.8130  0.00  0.00     0.000 O
ATOM     73  HD  IDS B   4      24.104  23.287  12.1610  0.00  0.00     0.000 HD
BRANCH 66 73
ATOM     73   O  IDS B   4      24.195  21.525  10.0930  0.00  0.00     0.000 O
ATOM     74   S  IDS B   4      24.998  21.956   8.7570  0.00  0.00     0.000 S
ATOM     75   O  IDS B   4      24.061  22.690   7.9340  0.00  0.00     0.000 OA
ATOM     76   O  IDS B   4      25.378  20.676   8.2150  0.00  0.00     0.000 OA
ATOM     77   O  IDS B   4      26.107  22.759   9.2150  0.00  0.00     0.000 OA
ENDBRANCH 66 73
BRANCH 69 78
ATOM     78   C  IDS B   4      21.718  20.525  14.1810  0.00  0.00     0.000 C
ATOM     79   O  IDS B   4      21.336  19.405  13.8450  0.00  0.00     0.000 OA
ATOM     80   O  IDS B   4      21.720  20.902  15.3680  0.00  0.00     0.000 OA
ENDBRANCH 69 78
BRANCH 65 81
ATOM     81  O4  SGN B   5      21.412  23.412  11.4220  0.00  0.00     0.000 O
BRANCH 81 85
ATOM     82  C1  SGN B   5      17.372  24.433  11.9480  0.00  0.00     0.000 C
ATOM     83  C2  SGN B   5      18.343  24.827  13.0710  0.00  0.00     0.000 C
ATOM     84  C3  SGN B   5      19.781  24.812  12.5340  0.00  0.00     0.000 C
ATOM     85  C4  SGN B   5      20.079  23.448  11.9380  0.00  0.00     0.000 C
ATOM     86  C5  SGN B   5      19.070  23.179  10.8250  0.00  0.00     0.000 C
ATOM     87  O5  SGN B   5      17.745  23.187  11.3910  0.00  0.00     0.000 O
ATOM     88   O  SGN B   5      20.684  25.118  13.5740  0.00  0.00     0.000 O
ATOM     90  HD  SGN B   5      20.423  25.668  12.9580  0.00  0.00     0.000 HD
BRANCH 83 92
ATOM     90   N  SGN B   5      17.665  26.066  13.4980  0.00  0.00     0.000 N
ATOM     92  HD  SGN B   5      17.143  26.366  12.8750  0.00  0.00     0.000 HD
ATOM     92   S  SGN B   5      17.054  26.117  14.9740  0.00  0.00     0.000 S
ATOM     93   O  SGN B   5      16.473  27.422  15.0730  0.00  0.00     0.000 OA
ATOM     94   O  SGN B   5      16.234  24.960  15.0930  0.00  0.00     0.000 OA
ATOM     95   O  SGN B   5      18.244  25.923  15.8890  0.00  0.00     0.000 OA
ENDBRANCH 83 92
BRANCH 86 96
ATOM     96   C  SGN B   5      19.255  21.848  10.1270  0.00  0.00     0.000 C
ATOM     97   O  SGN B   5      18.760  20.782  10.9400  0.00  0.00     0.000 O
ATOM     98   S  SGN B   5      17.746  19.763  10.2280  0.00  0.00     0.000 S
ATOM     99   O  SGN B   5      17.598  18.720  11.2150  0.00  0.00     0.000 OA
ATOM    100   O  SGN B   5      16.556  20.478   9.9400  0.00  0.00     0.000 OA
ATOM    101   O  SGN B   5      18.437  19.336   9.0550  0.00  0.00     0.000 OA
ENDBRANCH 86 96
BRANCH 82 102
ATOM    102  O4  IDS B   6      17.285  25.381  10.9730  0.00  0.00     0.000 O
BRANCH 102 106
ATOM    103  C1  IDS B   6      15.556  27.853   8.9330  0.00  0.00     0.000 C
ATOM    104  C2  IDS B   6      15.317  27.780  10.4490  0.00  0.00     0.000 C
ATOM    105  C3  IDS B   6      15.067  26.387  10.9940  0.00  0.00     0.000 C
ATOM    106  C4  IDS B   6      15.969  25.340  10.3650  0.00  0.00     0.000 C
ATOM    107  C5  IDS B   6      16.059  25.575   8.8540  0.00  0.00     0.000 C
ATOM    108  O5  IDS B   6      16.520  26.892   8.5470  0.00  0.00     0.000 O
ATOM    109   O  IDS B   6      13.701  26.069  10.7820  0.00  0.00     0.000 O
ATOM    111  HD  IDS B   6      13.466  26.585  10.1270  0.00  0.00     0.000 HD
BRANCH 104 111
ATOM    111   O  IDS B   6      16.520  28.259  11.1470  0.00  0.00     0.000 O
ATOM    112   S  IDS B   6      16.453  29.686  11.8690  0.00  0.00     0.000 S
ATOM    113   O  IDS B   6      16.115  30.619  10.8060  0.00  0.00     0.000 OA
ATOM    114   O  IDS B   6      15.469  29.612  12.9550  0.00  0.00     0.000 OA
ATOM    115   O  IDS B   6      17.824  29.784  12.3220  0.00  0.00     0.000 OA
ENDBRANCH 104 111
BRANCH 107 116
ATOM    116   C  IDS B   6      16.994  24.543   8.2380  0.00  0.00     0.000 C
ATOM    117   O  IDS B   6      18.040  24.951   7.8020  0.00  0.00     0.000 OA
ATOM    118   O  IDS B   6      16.688  23.362   8.1830  0.00  0.00     0.000 OA
ENDBRANCH 107 116
BRANCH 103 119
ATOM    119  O4  SGN B   7      14.303  27.845   8.4100  0.00  0.00     0.000 O
BRANCH 119 123
ATOM    120  C1  SGN B   7      12.361  29.603   5.1490  0.00  0.00     0.000 C
ATOM    121  C2  SGN B   7      13.314  28.427   4.8630  0.00  0.00     0.000 C
ATOM    122  C3  SGN B   7      13.618  27.654   6.1530  0.00  0.00     0.000 C
ATOM    123  C4  SGN B   7      14.124  28.612   7.2180  0.00  0.00     0.000 C
ATOM    124  C5  SGN B   7      13.110  29.748   7.4250  0.00  0.00     0.000 C
ATOM    125  O5  SGN B   7      12.855  30.449   6.1860  0.00  0.00     0.000 O
ATOM    126   O  SGN B   7      14.581  26.633   5.8680  0.00  0.00     0.000 O
ATOM    128  HD  SGN B   7      14.036  27.235   5.5670  0.00  0.00     0.000 HD
BRANCH 121 130
ATOM    128   N  SGN B   7      12.685  28.514   3.5430  0.00  0.00     0.000 N
ATOM    130  HD  SGN B   7      13.379  28.929   3.2310  0.00  0.00     0.000 HD
ATOM    130   S  SGN B   7      13.172  27.615   2.2980  0.00  0.00     0.000 S
ATOM    131   O  SGN B   7      13.209  26.282   2.7940  0.00  0.00     0.000 OA
ATOM    132   O  SGN B   7      12.371  27.940   1.1730  0.00  0.00     0.000 OA
ATOM    133   O  SGN B   7      14.560  28.276   2.0000  0.00  0.00     0.000 OA
ENDBRANCH 121 130
BRANCH 124 134
ATOM    134   C  SGN B   7      13.573  30.811   8.3770  0.00  0.00     0.000 C
ATOM    135   O  SGN B   7      13.221  32.096   7.8370  0.00  0.00     0.000 O
ATOM    136   S  SGN B   7      13.484  33.339   8.7600  0.00  0.00     0.000 S
ATOM    137   O  SGN B   7      13.155  34.505   7.9750  0.00  0.00     0.000 OA
ATOM    138   O  SGN B   7      14.887  33.266   9.1020  0.00  0.00     0.000 OA
ATOM    139   O  SGN B   7      12.579  33.100   9.8730  0.00  0.00     0.000 OA
ENDBRANCH 124 134
BRANCH 120 140
ATOM    140  O4  IDS B   8      11.076  29.550   5.5180  0.00  0.00     0.000 O
BRANCH 140 144
ATOM    141  C1  IDS B   8       8.133  28.443   7.2700  0.00  0.00     0.000 C
ATOM    142  C2  IDS B   8       9.220  27.429   6.8140  0.00  0.00     0.000 C
ATOM    143  C3  IDS B   8       9.637  27.614   5.3430  0.00  0.00     0.000 C
ATOM    144  C4  IDS B   8       9.831  29.085   4.9820  0.00  0.00     0.000 C
ATOM    145  C5  IDS B   8       8.671  29.924   5.5400  0.00  0.00     0.000 C
ATOM    146  O5  IDS B   8       8.539  29.768   6.9510  0.00  0.00     0.000 O
BRANCH 142 147
ATOM    147   O  IDS B   8      10.441  27.605   7.6430  0.00  0.00     0.000 O
ATOM    148   S  IDS B   8      10.746  26.626   8.8990  0.00  0.00     0.000 S
ATOM    149   O  IDS B   8       9.518  25.938   9.2280  0.00  0.00     0.000 OA
ATOM    150   O  IDS B   8      11.789  25.725   8.4440  0.00  0.00     0.000 OA
ATOM    151   O  IDS B   8      11.179  27.503   9.9700  0.00  0.00     0.000 OA
ENDBRANCH 142 147
BRANCH 145 152
ATOM    152   C  IDS B   8       8.857  31.409   5.3000  0.00  0.00     0.000 C
ATOM    153   O  IDS B   8       8.847  31.841   4.1530  0.00  0.00     0.000 OA
ATOM    154   O  IDS B   8       8.993  32.160   6.2490  0.00  0.00     0.000 OA
ENDBRANCH 145 152
ENDBRANCH 140 144
ENDBRANCH 120 140
ENDBRANCH 119 123
ENDBRANCH 103 119
ENDBRANCH 102 106
ENDBRANCH 82 102
ENDBRANCH 81 85
ENDBRANCH 65 81
ENDBRANCH 64 68
ENDBRANCH 41 64
ENDBRANCH 40 44
ENDBRANCH 24 40
ENDBRANCH 23 27
ENDBRANCH 1 23
TORSDOF 31
ENDMDL
MODEL 54
REMARK VINA RESULT:      -7.0      5.189      8.796
ROOT
ATOM      1  C1  SGN B   1      25.688  16.770  13.8590  0.00  0.00     0.000 C
ATOM      2  C2  SGN B   1      24.541  17.026  12.8670  0.00  0.00     0.000 C
ATOM      3  C3  SGN B   1      23.279  16.267  13.2890  0.00  0.00     0.000 C
ATOM      4  C4  SGN B   1      23.583  14.780  13.4380  0.00  0.00     0.000 C
ATOM      5  C5  SGN B   1      24.817  14.609  14.3210  0.00  0.00     0.000 C
ATOM      6  O5  SGN B   1      25.911  15.369  13.7720  0.00  0.00     0.000 O
ATOM      7   O  SGN B   1      22.234  16.470  12.3450  0.00  0.00     0.000 O
ATOM      9  HD  SGN B   1      22.840  16.090  11.8580  0.00  0.00     0.000 HD
ATOM      9   O  SGN B   1      22.471  14.128  14.0220  0.00  0.00     0.000 O
ATOM     11  HD  SGN B   1      23.077  13.748  13.5340  0.00  0.00     0.000 HD
ENDROOT
BRANCH 2 13
ATOM     11   N  SGN B   1      25.265  17.923  11.9460  0.00  0.00     0.000 N
ATOM     13  HD  SGN B   1      25.162  18.137  12.7790  0.00  0.00     0.000 HD
ATOM     13   S  SGN B   1      25.314  19.517  12.1600  0.00  0.00     0.000 S
ATOM     14   O  SGN B   1      24.629  19.869  13.3420  0.00  0.00     0.000 OA
ATOM     15   O  SGN B   1      26.656  19.956  11.9720  0.00  0.00     0.000 OA
ATOM     16   O  SGN B   1      24.510  19.937  10.8910  0.00  0.00     0.000 OA
ENDBRANCH 2 13
BRANCH 5 17
ATOM     17   C  SGN B   1      25.284  13.181  14.4540  0.00  0.00     0.000 C
ATOM     18   O  SGN B   1      24.257  12.355  15.0370  0.00  0.00     0.000 O
ATOM     19   S  SGN B   1      24.731  11.354  16.1900  0.00  0.00     0.000 S
ATOM     20   O  SGN B   1      23.592  10.495  16.4330  0.00  0.00     0.000 OA
ATOM     21   O  SGN B   1      25.863  10.665  15.6140  0.00  0.00     0.000 OA
ATOM     22   O  SGN B   1      25.068  12.203  17.3120  0.00  0.00     0.000 OA
ENDBRANCH 5 17
BRANCH 1 23
ATOM     23  O4  IDS B   2      26.217  17.275  15.0100  0.00  0.00     0.000 O
BRANCH 23 27
ATOM     24  C1  IDS B   2      25.642  18.654  18.8820  0.00  0.00     0.000 C
ATOM     25  C2  IDS B   2      24.461  18.876  17.9130  0.00  0.00     0.000 C
ATOM     26  C3  IDS B   2      24.654  18.080  16.6250  0.00  0.00     0.000 C
ATOM     27  C4  IDS B   2      25.980  18.360  15.9310  0.00  0.00     0.000 C
ATOM     28  C5  IDS B   2      27.092  18.560  16.9800  0.00  0.00     0.000 C
ATOM     29  O5  IDS B   2      26.726  17.983  18.2240  0.00  0.00     0.000 O
ATOM     30   O  IDS B   2      23.613  18.406  15.7120  0.00  0.00     0.000 O
ATOM     32  HD  IDS B   2      23.742  19.158  15.3020  0.00  0.00     0.000 HD
BRANCH 25 32
ATOM     32   O  IDS B   2      23.164  18.464  18.5050  0.00  0.00     0.000 O
ATOM     33   S  IDS B   2      21.978  19.557  18.8530  0.00  0.00     0.000 S
ATOM     34   O  IDS B   2      20.971  18.834  19.6140  0.00  0.00     0.000 OA
ATOM     35   O  IDS B   2      22.543  20.654  19.6270  0.00  0.00     0.000 OA
ATOM     36   O  IDS B   2      21.462  19.993  17.5770  0.00  0.00     0.000 OA
ENDBRANCH 25 32
BRANCH 28 37
ATOM     37   C  IDS B   2      28.514  18.082  16.6230  0.00  0.00     0.000 C
ATOM     38   O  IDS B   2      28.771  16.995  17.0850  0.00  0.00     0.000 OA
ATOM     39   O  IDS B   2      29.345  18.666  15.8850  0.00  0.00     0.000 OA
ENDBRANCH 28 37
BRANCH 24 40
ATOM     40  O4  SUS B   3      25.689  19.327  20.0510  0.00  0.00     0.000 O
BRANCH 40 44
ATOM     41  C1  SUS B   3      27.215  18.124  23.7620  0.00  0.00     0.000 C
ATOM     42  C2  SUS B   3      28.193  18.809  22.7860  0.00  0.00     0.000 C
ATOM     43  C3  SUS B   3      27.398  19.587  21.7410  0.00  0.00     0.000 C
ATOM     44  C4  SUS B   3      26.413  18.643  21.0680  0.00  0.00     0.000 C
ATOM     45  C5  SUS B   3      25.454  18.110  22.1120  0.00  0.00     0.000 C
ATOM     46  O5  SUS B   3      26.215  17.359  23.0800  0.00  0.00     0.000 O
BRANCH 42 49
ATOM     47   N  SUS B   3      29.299  18.084  23.4360  0.00  0.00     0.000 N
ATOM     49  HD  SUS B   3      29.132  17.740  24.2130  0.00  0.00     0.000 HD
ATOM     49   S  SUS B   3      30.629  18.969  23.5580  0.00  0.00     0.000 S
ATOM     50   O  SUS B   3      30.354  20.153  24.2720  0.00  0.00     0.000 OA
ATOM     51   O  SUS B   3      31.427  17.973  24.4380  0.00  0.00     0.000 OA
ATOM     52   O  SUS B   3      31.224  19.096  22.2870  0.00  0.00     0.000 OA
ENDBRANCH 42 49
BRANCH 43 53
ATOM     53   O  SUS B   3      28.350  20.113  20.7430  0.00  0.00     0.000 O
ATOM     54   S  SUS B   3      28.539  21.745  20.6750  0.00  0.00     0.000 S
ATOM     55   O  SUS B   3      29.259  22.151  21.8750  0.00  0.00     0.000 OA
ATOM     56   O  SUS B   3      29.281  21.962  19.4460  0.00  0.00     0.000 OA
ATOM     57   O  SUS B   3      27.191  22.318  20.6460  0.00  0.00     0.000 OA
ENDBRANCH 43 53
BRANCH 45 58
ATOM     58   C  SUS B   3      24.379  17.238  21.5010  0.00  0.00     0.000 C
ATOM     59   S  SUS B   3      23.180  14.987  21.7890  0.00  0.00     0.000 S
ATOM     60   O  SUS B   3      24.122  16.121  22.3690  0.00  0.00     0.000 O
ATOM     61   O  SUS B   3      24.020  14.221  20.8880  0.00  0.00     0.000 OA
ATOM     62   O  SUS B   3      22.854  14.269  22.9910  0.00  0.00     0.000 OA
ATOM     63   O  SUS B   3      22.096  15.670  21.1760  0.00  0.00     0.000 OA
ENDBRANCH 45 58
BRANCH 41 64
ATOM     64  O4  IDS B   4      26.719  18.963  24.7280  0.00  0.00     0.000 O
BRANCH 64 68
ATOM     65  C1  IDS B   4      26.006  19.701  28.2240  0.00  0.00     0.000 C
ATOM     66  C2  IDS B   4      27.128  18.723  27.8550  0.00  0.00     0.000 C
ATOM     67  C3  IDS B   4      26.744  17.693  26.8060  0.00  0.00     0.000 C
ATOM     68  C4  IDS B   4      25.892  18.275  25.6930  0.00  0.00     0.000 C
ATOM     69  C5  IDS B   4      24.822  19.171  26.3300  0.00  0.00     0.000 C
ATOM     70  O5  IDS B   4      25.460  20.239  27.0340  0.00  0.00     0.000 O
ATOM     71   O  IDS B   4      26.031  16.668  27.4660  0.00  0.00     0.000 O
ATOM     73  HD  IDS B   4      26.559  17.352  27.4140  0.00  0.00     0.000 HD
BRANCH 66 73
ATOM     73   O  IDS B   4      28.242  19.481  27.2690  0.00  0.00     0.000 O
ATOM     74   S  IDS B   4      29.631  19.549  28.0970  0.00  0.00     0.000 S
ATOM     75   O  IDS B   4      29.306  20.090  29.3990  0.00  0.00     0.000 OA
ATOM     76   O  IDS B   4      30.422  20.430  27.2760  0.00  0.00     0.000 OA
ATOM     77   O  IDS B   4      30.116  18.190  28.1480  0.00  0.00     0.000 OA
ENDBRANCH 66 73
BRANCH 69 78
ATOM     78   C  IDS B   4      23.750  19.656  25.3620  0.00  0.00     0.000 C
ATOM     79   O  IDS B   4      23.409  20.837  25.4020  0.00  0.00     0.000 OA
ATOM     80   O  IDS B   4      23.331  18.869  24.4940  0.00  0.00     0.000 OA
ENDBRANCH 69 78
BRANCH 65 81
ATOM     81  O4  SGN B   5      25.136  19.091  29.0770  0.00  0.00     0.000 O
BRANCH 81 85
ATOM     82  C1  SGN B   5      22.503  19.761  32.2800  0.00  0.00     0.000 C
ATOM     83  C2  SGN B   5      22.168  20.446  30.9460  0.00  0.00     0.000 C
ATOM     84  C3  SGN B   5      22.924  19.749  29.8070  0.00  0.00     0.000 C
ATOM     85  C4  SGN B   5      24.410  19.745  30.1200  0.00  0.00     0.000 C
ATOM     86  C5  SGN B   5      24.618  19.021  31.4480  0.00  0.00     0.000 C
ATOM     87  O5  SGN B   5      23.903  19.730  32.4780  0.00  0.00     0.000 O
ATOM     88   O  SGN B   5      22.667  20.408  28.5860  0.00  0.00     0.000 O
ATOM     90  HD  SGN B   5      22.301  19.666  28.8440  0.00  0.00     0.000 HD
BRANCH 83 92
ATOM     90   N  SGN B   5      20.757  20.460  31.3800  0.00  0.00     0.000 N
ATOM     92  HD  SGN B   5      20.668  20.094  32.1590  0.00  0.00     0.000 HD
ATOM     92   S  SGN B   5      19.919  21.803  31.1630  0.00  0.00     0.000 S
ATOM     93   O  SGN B   5      18.620  21.498  31.6830  0.00  0.00     0.000 OA
ATOM     94   O  SGN B   5      20.695  22.842  31.7480  0.00  0.00     0.000 OA
ATOM     95   O  SGN B   5      19.926  22.024  29.6660  0.00  0.00     0.000 OA
ENDBRANCH 83 92
BRANCH 86 96
ATOM     96   C  SGN B   5      26.066  18.930  31.8850  0.00  0.00     0.000 C
ATOM     97   O  SGN B   5      26.393  17.591  32.2620  0.00  0.00     0.000 O
ATOM     98   S  SGN B   5      27.709  16.969  31.5870  0.00  0.00     0.000 S
ATOM     99   O  SGN B   5      27.878  15.728  32.3040  0.00  0.00     0.000 OA
ATOM    100   O  SGN B   5      27.447  16.820  30.2010  0.00  0.00     0.000 OA
ATOM    101   O  SGN B   5      28.733  17.924  31.8600  0.00  0.00     0.000 OA
ENDBRANCH 86 96
BRANCH 82 102
ATOM    102  O4  IDS B   6      21.983  18.503  32.3680  0.00  0.00     0.000 O
BRANCH 102 106
ATOM    103  C1  IDS B   6      19.841  16.099  34.0660  0.00  0.00     0.000 C
ATOM    104  C2  IDS B   6      19.512  17.600  34.0910  0.00  0.00     0.000 C
ATOM    105  C3  IDS B   6      20.679  18.508  34.4240  0.00  0.00     0.000 C
ATOM    106  C4  IDS B   6      21.970  18.074  33.7530  0.00  0.00     0.000 C
ATOM    107  C5  IDS B   6      22.120  16.554  33.8540  0.00  0.00     0.000 C
ATOM    108  O5  IDS B   6      21.000  15.869  33.2880  0.00  0.00     0.000 O
ATOM    109   O  IDS B   6      20.829  18.536  35.8340  0.00  0.00     0.000 O
ATOM    111  HD  IDS B   6      20.455  17.800  36.0980  0.00  0.00     0.000 HD
BRANCH 104 111
ATOM    111   O  IDS B   6      19.066  18.015  32.7520  0.00  0.00     0.000 O
ATOM    112   S  IDS B   6      17.503  17.929  32.4190  0.00  0.00     0.000 S
ATOM    113   O  IDS B   6      17.160  16.531  32.6230  0.00  0.00     0.000 OA
ATOM    114   O  IDS B   6      16.790  18.869  33.2920  0.00  0.00     0.000 OA
ATOM    115   O  IDS B   6      17.538  18.328  31.0280  0.00  0.00     0.000 OA
ENDBRANCH 104 111
BRANCH 107 116
ATOM    116   C  IDS B   6      23.399  16.125  33.1470  0.00  0.00     0.000 C
ATOM    117   O  IDS B   6      24.366  15.941  33.8410  0.00  0.00     0.000 OA
ATOM    118   O  IDS B   6      23.438  15.985  31.9350  0.00  0.00     0.000 OA
ENDBRANCH 107 116
BRANCH 103 119
ATOM    119  O4  SGN B   7      19.784  15.736  35.3740  0.00  0.00     0.000 O
BRANCH 119 123
ATOM    120  C1  SGN B   7      19.515  12.156  37.5190  0.00  0.00     0.000 C
ATOM    121  C2  SGN B   7      20.896  12.552  36.9620  0.00  0.00     0.000 C
ATOM    122  C3  SGN B   7      20.913  14.035  36.5710  0.00  0.00     0.000 C
ATOM    123  C4  SGN B   7      19.760  14.331  35.6260  0.00  0.00     0.000 C
ATOM    124  C5  SGN B   7      18.433  13.895  36.2680  0.00  0.00     0.000 C
ATOM    125  O5  SGN B   7      18.461  12.493  36.6180  0.00  0.00     0.000 O
ATOM    126   O  SGN B   7      22.175  14.344  35.9680  0.00  0.00     0.000 O
ATOM    128  HD  SGN B   7      21.688  13.778  36.4070  0.00  0.00     0.000 HD
BRANCH 121 130
ATOM    128   N  SGN B   7      21.382  11.587  37.9520  0.00  0.00     0.000 N
ATOM    130  HD  SGN B   7      21.300  10.945  37.3760  0.00  0.00     0.000 HD
ATOM    130   S  SGN B   7      22.850  10.931  37.8640  0.00  0.00     0.000 S
ATOM    131   O  SGN B   7      23.739  12.030  37.6970  0.00  0.00     0.000 OA
ATOM    132   O  SGN B   7      23.007  10.041  38.9570  0.00  0.00     0.000 OA
ATOM    133   O  SGN B   7      22.667   9.999  36.6180  0.00  0.00     0.000 OA
ENDBRANCH 121 130
BRANCH 124 134
ATOM    134   C  SGN B   7      17.245  14.039  35.3630  0.00  0.00     0.000 C
ATOM    135   O  SGN B   7      16.848  12.732  34.9160  0.00  0.00     0.000 O
ATOM    136   S  SGN B   7      15.522  12.651  34.0770  0.00  0.00     0.000 S
ATOM    137   O  SGN B   7      15.389  11.276  33.6590  0.00  0.00     0.000 OA
ATOM    138   O  SGN B   7      15.718  13.561  32.9710  0.00  0.00     0.000 OA
ATOM    139   O  SGN B   7      14.517  13.078  35.0380  0.00  0.00     0.000 OA
ENDBRANCH 124 134
BRANCH 120 140
ATOM    140  O4  IDS B   8      18.946  12.549  38.6630  0.00  0.00     0.000 O
BRANCH 140 144
ATOM    141  C1  IDS B   8      17.938  11.260  41.8700  0.00  0.00     0.000 C
ATOM    142  C2  IDS B   8      17.840  10.383  40.5900  0.00  0.00     0.000 C
ATOM    143  C3  IDS B   8      17.156  11.106  39.4140  0.00  0.00     0.000 C
ATOM    144  C4  IDS B   8      17.645  12.546  39.2640  0.00  0.00     0.000 C
ATOM    145  C5  IDS B   8      17.696  13.234  40.6370  0.00  0.00     0.000 C
ATOM    146  O5  IDS B   8      18.520  12.519  41.5540  0.00  0.00     0.000 O
BRANCH 142 147
ATOM    147   O  IDS B   8      19.206  10.008  40.1400  0.00  0.00     0.000 O
ATOM    148   S  IDS B   8      19.476   8.611  39.3610  0.00  0.00     0.000 S
ATOM    149   O  IDS B   8      18.326   7.762  39.5750  0.00  0.00     0.000 OA
ATOM    150   O  IDS B   8      19.656   8.973  37.9680  0.00  0.00     0.000 OA
ATOM    151   O  IDS B   8      20.674   8.062  39.9660  0.00  0.00     0.000 OA
ENDBRANCH 142 147
BRANCH 145 152
ATOM    152   C  IDS B   8      18.268  14.635  40.5660  0.00  0.00     0.000 C
ATOM    153   O  IDS B   8      17.763  15.456  39.8090  0.00  0.00     0.000 OA
ATOM    154   O  IDS B   8      19.210  14.937  41.2760  0.00  0.00     0.000 OA
ENDBRANCH 145 152
ENDBRANCH 140 144
ENDBRANCH 120 140
ENDBRANCH 119 123
ENDBRANCH 103 119
ENDBRANCH 102 106
ENDBRANCH 82 102
ENDBRANCH 81 85
ENDBRANCH 65 81
ENDBRANCH 64 68
ENDBRANCH 41 64
ENDBRANCH 40 44
ENDBRANCH 24 40
ENDBRANCH 23 27
ENDBRANCH 1 23
TORSDOF 31
ENDMDL
MODEL 55
REMARK VINA RESULT:      -6.9      9.207     12.571
ROOT
ATOM      1  C1  SGN B   1      29.179  10.663  15.7920  0.00  0.00     0.000 C
ATOM      2  C2  SGN B   1      30.600  10.153  15.4990  0.00  0.00     0.000 C
ATOM      3  C3  SGN B   1      30.698   9.613  14.0680  0.00  0.00     0.000 C
ATOM      4  C4  SGN B   1      29.645   8.532  13.8400  0.00  0.00     0.000 C
ATOM      5  C5  SGN B   1      28.284   9.061  14.2850  0.00  0.00     0.000 C
ATOM      6  O5  SGN B   1      28.364   9.508  15.6520  0.00  0.00     0.000 O
ATOM      7   O  SGN B   1      32.001   9.101  13.8150  0.00  0.00     0.000 O
ATOM      9  HD  SGN B   1      31.736   8.595  14.4660  0.00  0.00     0.000 HD
ATOM      9   O  SGN B   1      29.612   8.190  12.4670  0.00  0.00     0.000 O
ATOM     11  HD  SGN B   1      29.347   7.684  13.1180  0.00  0.00     0.000 HD
ENDROOT
BRANCH 2 13
ATOM     11   N  SGN B   1      31.141  10.475  16.8330  0.00  0.00     0.000 N
ATOM     13  HD  SGN B   1      30.871  11.105  16.3040  0.00  0.00     0.000 HD
ATOM     13   S  SGN B   1      31.875  11.871  17.1490  0.00  0.00     0.000 S
ATOM     14   O  SGN B   1      31.858  12.698  16.0060  0.00  0.00     0.000 OA
ATOM     15   O  SGN B   1      31.375  12.374  18.3840  0.00  0.00     0.000 OA
ATOM     16   O  SGN B   1      33.306  11.314  17.4240  0.00  0.00     0.000 OA
ENDBRANCH 2 13
BRANCH 5 17
ATOM     17   C  SGN B   1      27.175   8.040  14.2100  0.00  0.00     0.000 C
ATOM     18   O  SGN B   1      26.511   8.094  12.9320  0.00  0.00     0.000 O
ATOM     19   S  SGN B   1      24.913   8.059  12.9690  0.00  0.00     0.000 S
ATOM     20   O  SGN B   1      24.509   7.887  11.5900  0.00  0.00     0.000 OA
ATOM     21   O  SGN B   1      24.605   6.925  13.8080  0.00  0.00     0.000 OA
ATOM     22   O  SGN B   1      24.520   9.332  13.5340  0.00  0.00     0.000 OA
ENDBRANCH 5 17
BRANCH 1 23
ATOM     23  O4  IDS B   2      28.429  11.799  15.7060  0.00  0.00     0.000 O
BRANCH 23 27
ATOM     24  C1  IDS B   2      26.132  15.053  14.5360  0.00  0.00     0.000 C
ATOM     25  C2  IDS B   2      25.341  13.818  15.0200  0.00  0.00     0.000 C
ATOM     26  C3  IDS B   2      26.265  12.809  15.6980  0.00  0.00     0.000 C
ATOM     27  C4  IDS B   2      27.444  12.387  14.8310  0.00  0.00     0.000 C
ATOM     28  C5  IDS B   2      27.955  13.592  14.0150  0.00  0.00     0.000 C
ATOM     29  O5  IDS B   2      27.545  14.816  14.6050  0.00  0.00     0.000 O
ATOM     30   O  IDS B   2      25.525  11.636  16.0160  0.00  0.00     0.000 O
ATOM     32  HD  IDS B   2      25.404  11.114  15.3360  0.00  0.00     0.000 HD
BRANCH 25 32
ATOM     32   O  IDS B   2      24.280  14.177  15.9930  0.00  0.00     0.000 O
ATOM     33   S  IDS B   2      22.678  13.988  15.6440  0.00  0.00     0.000 S
ATOM     34   O  IDS B   2      21.950  14.643  16.7180  0.00  0.00     0.000 OA
ATOM     35   O  IDS B   2      22.388  14.600  14.3540  0.00  0.00     0.000 OA
ATOM     36   O  IDS B   2      22.444  12.563  15.6420  0.00  0.00     0.000 OA
ENDBRANCH 25 32
BRANCH 28 37
ATOM     37   C  IDS B   2      29.468  13.676  13.7240  0.00  0.00     0.000 C
ATOM     38   O  IDS B   2      29.983  14.654  14.2110  0.00  0.00     0.000 OA
ATOM     39   O  IDS B   2      30.169  12.829  13.1180  0.00  0.00     0.000 OA
ENDBRANCH 28 37
BRANCH 24 40
ATOM     40  O4  SUS B   3      25.502  16.029  13.8510  0.00  0.00     0.000 O
BRANCH 40 44
ATOM     41  C1  SUS B   3      26.098  20.175  13.8650  0.00  0.00     0.000 C
ATOM     42  C2  SUS B   3      27.229  19.302  13.2850  0.00  0.00     0.000 C
ATOM     43  C3  SUS B   3      26.669  17.930  12.9200  0.00  0.00     0.000 C
ATOM     44  C4  SUS B   3      25.992  17.333  14.1440  0.00  0.00     0.000 C
ATOM     45  C5  SUS B   3      24.847  18.233  14.5590  0.00  0.00     0.000 C
ATOM     46  O5  SUS B   3      25.392  19.517  14.9220  0.00  0.00     0.000 O
BRANCH 42 49
ATOM     47   N  SUS B   3      27.819  20.169  12.2500  0.00  0.00     0.000 N
ATOM     49  HD  SUS B   3      27.768  19.885  11.4330  0.00  0.00     0.000 HD
ATOM     49   S  SUS B   3      29.347  20.541  12.5530  0.00  0.00     0.000 S
ATOM     50   O  SUS B   3      30.113  19.364  12.6780  0.00  0.00     0.000 OA
ATOM     51   O  SUS B   3      29.634  21.238  11.1990  0.00  0.00     0.000 OA
ATOM     52   O  SUS B   3      29.400  21.469  13.6120  0.00  0.00     0.000 OA
ENDBRANCH 42 49
BRANCH 43 53
ATOM     53   O  SUS B   3      27.796  17.074  12.5020  0.00  0.00     0.000 O
ATOM     54   S  SUS B   3      27.878  16.665  10.9120  0.00  0.00     0.000 S
ATOM     55   O  SUS B   3      28.248  17.863  10.1710  0.00  0.00     0.000 OA
ATOM     56   O  SUS B   3      28.881  15.616  10.8700  0.00  0.00     0.000 OA
ATOM     57   O  SUS B   3      26.540  16.200  10.5340  0.00  0.00     0.000 OA
ENDBRANCH 43 53
BRANCH 45 58
ATOM     58   C  SUS B   3      24.060  17.652  15.7140  0.00  0.00     0.000 C
ATOM     59   S  SUS B   3      23.972  17.573  18.2770  0.00  0.00     0.000 S
ATOM     60   O  SUS B   3      24.532  18.223  16.9460  0.00  0.00     0.000 O
ATOM     61   O  SUS B   3      24.723  16.344  18.4440  0.00  0.00     0.000 OA
ATOM     62   O  SUS B   3      24.333  18.580  19.2380  0.00  0.00     0.000 OA
ATOM     63   O  SUS B   3      22.577  17.410  18.0630  0.00  0.00     0.000 OA
ENDBRANCH 45 58
BRANCH 41 64
ATOM     64  O4  IDS B   4      25.286  20.734  12.9090  0.00  0.00     0.000 O
BRANCH 64 68
ATOM     65  C1  IDS B   4      22.863  23.047  11.4760  0.00  0.00     0.000 C
ATOM     66  C2  IDS B   4      24.029  23.576  12.3210  0.00  0.00     0.000 C
ATOM     67  C3  IDS B   4      24.255  22.822  13.6210  0.00  0.00     0.000 C
ATOM     68  C4  IDS B   4      24.090  21.322  13.4690  0.00  0.00     0.000 C
ATOM     69  C5  IDS B   4      22.832  21.062  12.6300  0.00  0.00     0.000 C
ATOM     70  O5  IDS B   4      23.000  21.645  11.3350  0.00  0.00     0.000 O
ATOM     71   O  IDS B   4      23.318  23.312  14.5580  0.00  0.00     0.000 O
ATOM     73  HD  IDS B   4      23.787  23.331  13.8300  0.00  0.00     0.000 HD
BRANCH 66 73
ATOM     73   O  IDS B   4      25.274  23.421  11.5570  0.00  0.00     0.000 O
ATOM     74   S  IDS B   4      26.040  24.762  11.0750  0.00  0.00     0.000 S
ATOM     75   O  IDS B   4      25.085  25.522  10.2980  0.00  0.00     0.000 OA
ATOM     76   O  IDS B   4      27.128  24.219  10.3010  0.00  0.00     0.000 OA
ATOM     77   O  IDS B   4      26.449  25.429  12.2880  0.00  0.00     0.000 OA
ENDBRANCH 66 73
BRANCH 69 78
ATOM     78   C  IDS B   4      22.405  19.601  12.5700  0.00  0.00     0.000 C
ATOM     79   O  IDS B   4      22.879  18.882  11.6910  0.00  0.00     0.000 OA
ATOM     80   O  IDS B   4      21.675  19.157  13.4750  0.00  0.00     0.000 OA
ENDBRANCH 69 78
BRANCH 65 81
ATOM     81  O4  SGN B   5      21.687  23.499  11.9940  0.00  0.00     0.000 O
BRANCH 81 85
ATOM     82  C1  SGN B   5      17.807  24.760  10.9950  0.00  0.00     0.000 C
ATOM     83  C2  SGN B   5      18.136  23.275  10.7780  0.00  0.00     0.000 C
ATOM     84  C3  SGN B   5      19.376  22.898  11.6010  0.00  0.00     0.000 C
ATOM     85  C4  SGN B   5      20.522  23.824  11.2320  0.00  0.00     0.000 C
ATOM     86  C5  SGN B   5      20.087  25.260  11.5120  0.00  0.00     0.000 C
ATOM     87  O5  SGN B   5      18.936  25.561  10.7000  0.00  0.00     0.000 O
ATOM     88   O  SGN B   5      19.718  21.550  11.3620  0.00  0.00     0.000 O
ATOM     90  HD  SGN B   5      19.301  21.847  12.0610  0.00  0.00     0.000 HD
BRANCH 83 92
ATOM     90   N  SGN B   5      16.708  23.335  10.4110  0.00  0.00     0.000 N
ATOM     92  HD  SGN B   5      16.534  24.049   9.9530  0.00  0.00     0.000 HD
ATOM     92   S  SGN B   5      16.014  21.999   9.8720  0.00  0.00     0.000 S
ATOM     93   O  SGN B   5      14.662  22.385   9.6040  0.00  0.00     0.000 OA
ATOM     94   O  SGN B   5      16.845  21.533   8.8150  0.00  0.00     0.000 OA
ATOM     95   O  SGN B   5      16.139  21.014  11.0130  0.00  0.00     0.000 OA
ENDBRANCH 83 92
BRANCH 86 96
ATOM     96   C  SGN B   5      21.143  26.300  11.2000  0.00  0.00     0.000 C
ATOM     97   O  SGN B   5      21.741  26.043   9.9270  0.00  0.00     0.000 O
ATOM     98   S  SGN B   5      21.798  27.281   8.9100  0.00  0.00     0.000 S
ATOM     99   O  SGN B   5      22.617  26.773   7.8360  0.00  0.00     0.000 OA
ATOM    100   O  SGN B   5      20.464  27.592   8.5420  0.00  0.00     0.000 OA
ATOM    101   O  SGN B   5      22.426  28.324   9.6560  0.00  0.00     0.000 OA
ENDBRANCH 86 96
BRANCH 82 102
ATOM    102  O4  IDS B   6      17.358  25.019  12.2560  0.00  0.00     0.000 O
BRANCH 102 106
ATOM    103  C1  IDS B   6      14.713  26.338  14.3830  0.00  0.00     0.000 C
ATOM    104  C2  IDS B   6      14.396  25.789  12.9820  0.00  0.00     0.000 C
ATOM    105  C3  IDS B   6      15.310  26.281  11.8770  0.00  0.00     0.000 C
ATOM    106  C4  IDS B   6      16.766  26.342  12.3040  0.00  0.00     0.000 C
ATOM    107  C5  IDS B   6      16.868  26.933  13.7130  0.00  0.00     0.000 C
ATOM    108  O5  IDS B   6      16.093  26.193  14.6590  0.00  0.00     0.000 O
ATOM    109   O  IDS B   6      14.853  27.557  11.4610  0.00  0.00     0.000 O
ATOM    111  HD  IDS B   6      14.407  27.851  12.1430  0.00  0.00     0.000 HD
BRANCH 104 111
ATOM    111   O  IDS B   6      14.552  24.326  12.9940  0.00  0.00     0.000 O
ATOM    112   S  IDS B   6      13.230  23.427  12.9290  0.00  0.00     0.000 S
ATOM    113   O  IDS B   6      12.454  23.833  14.0910  0.00  0.00     0.000 OA
ATOM    114   O  IDS B   6      12.571  23.663  11.6400  0.00  0.00     0.000 OA
ATOM    115   O  IDS B   6      13.831  22.117  13.0540  0.00  0.00     0.000 OA
ENDBRANCH 104 111
BRANCH 107 116
ATOM    116   C  IDS B   6      18.328  26.956  14.1460  0.00  0.00     0.000 C
ATOM    117   O  IDS B   6      18.671  26.118  14.9400  0.00  0.00     0.000 OA
ATOM    118   O  IDS B   6      19.106  27.792  13.7140  0.00  0.00     0.000 OA
ENDBRANCH 107 116
BRANCH 103 119
ATOM    119  O4  SGN B   7      14.114  27.556  14.3930  0.00  0.00     0.000 O
BRANCH 119 123
ATOM    120  C1  SGN B   7      12.685  30.123  17.3690  0.00  0.00     0.000 C
ATOM    121  C2  SGN B   7      14.094  30.395  16.8090  0.00  0.00     0.000 C
ATOM    122  C3  SGN B   7      14.300  29.647  15.4850  0.00  0.00     0.000 C
ATOM    123  C4  SGN B   7      13.987  28.172  15.6750  0.00  0.00     0.000 C
ATOM    124  C5  SGN B   7      12.567  28.008  16.2420  0.00  0.00     0.000 C
ATOM    125  O5  SGN B   7      12.419  28.727  17.4870  0.00  0.00     0.000 O
ATOM    126   O  SGN B   7      15.649  29.842  15.0450  0.00  0.00     0.000 O
ATOM    128  HD  SGN B   7      15.015  30.061  15.5930  0.00  0.00     0.000 HD
BRANCH 121 130
ATOM    128   N  SGN B   7      14.595  31.213  17.9170  0.00  0.00     0.000 N
ATOM    130  HD  SGN B   7      15.404  31.132  17.6200  0.00  0.00     0.000 HD
ATOM    130   S  SGN B   7      15.104  32.726  17.7070  0.00  0.00     0.000 S
ATOM    131   O  SGN B   7      14.062  33.372  16.9850  0.00  0.00     0.000 OA
ATOM    132   O  SGN B   7      15.528  33.232  18.9620  0.00  0.00     0.000 OA
ATOM    133   O  SGN B   7      16.431  32.469  16.9150  0.00  0.00     0.000 OA
ENDBRANCH 121 130
BRANCH 124 134
ATOM    134   C  SGN B   7      12.206  26.590  16.5740  0.00  0.00     0.000 C
ATOM    135   O  SGN B   7      12.822  26.241  17.8250  0.00  0.00     0.000 O
ATOM    136   S  SGN B   7      12.440  24.841  18.4270  0.00  0.00     0.000 S
ATOM    137   O  SGN B   7      13.249  24.674  19.6110  0.00  0.00     0.000 OA
ATOM    138   O  SGN B   7      12.753  23.885  17.3890  0.00  0.00     0.000 OA
ATOM    139   O  SGN B   7      11.019  24.993  18.6970  0.00  0.00     0.000 OA
ENDBRANCH 124 134
BRANCH 120 140
ATOM    140  O4  IDS B   8      11.509  30.518  16.8680  0.00  0.00     0.000 O
BRANCH 140 144
ATOM    141  C1  IDS B   8       8.789  32.862  17.1210  0.00  0.00     0.000 C
ATOM    142  C2  IDS B   8       9.536  32.364  18.3910  0.00  0.00     0.000 C
ATOM    143  C3  IDS B   8       9.696  30.833  18.4360  0.00  0.00     0.000 C
ATOM    144  C4  IDS B   8      10.116  30.261  17.0840  0.00  0.00     0.000 C
ATOM    145  C5  IDS B   8       9.282  30.893  15.9590  0.00  0.00     0.000 C
ATOM    146  O5  IDS B   8       9.392  32.314  15.9560  0.00  0.00     0.000 O
BRANCH 142 147
ATOM    147   O  IDS B   8      10.902  32.950  18.4230  0.00  0.00     0.000 O
ATOM    148   S  IDS B   8      11.603  33.360  19.8280  0.00  0.00     0.000 S
ATOM    149   O  IDS B   8      10.567  33.419  20.8340  0.00  0.00     0.000 OA
ATOM    150   O  IDS B   8      12.582  32.321  20.0900  0.00  0.00     0.000 OA
ATOM    151   O  IDS B   8      12.202  34.659  19.5900  0.00  0.00     0.000 OA
ENDBRANCH 142 147
BRANCH 145 152
ATOM    152   C  IDS B   8       9.721  30.438  14.5810  0.00  0.00     0.000 C
ATOM    153   O  IDS B   8      10.188  31.254  13.7960  0.00  0.00     0.000 OA
ATOM    154   O  IDS B   8       9.625  29.262  14.2770  0.00  0.00     0.000 OA
ENDBRANCH 145 152
ENDBRANCH 140 144
ENDBRANCH 120 140
ENDBRANCH 119 123
ENDBRANCH 103 119
ENDBRANCH 102 106
ENDBRANCH 82 102
ENDBRANCH 81 85
ENDBRANCH 65 81
ENDBRANCH 64 68
ENDBRANCH 41 64
ENDBRANCH 40 44
ENDBRANCH 24 40
ENDBRANCH 23 27
ENDBRANCH 1 23
TORSDOF 31
ENDMDL
MODEL 56
REMARK VINA RESULT:      -6.9      4.858      8.130
ROOT
ATOM      1  C1  SGN B   1      26.107  14.694  14.4420  0.00  0.00     0.000 C
ATOM      2  C2  SGN B   1      25.938  14.917  12.9310  0.00  0.00     0.000 C
ATOM      3  C3  SGN B   1      24.579  15.555  12.6250  0.00  0.00     0.000 C
ATOM      4  C4  SGN B   1      23.455  14.703  13.2050  0.00  0.00     0.000 C
ATOM      5  C5  SGN B   1      23.761  14.403  14.6700  0.00  0.00     0.000 C
ATOM      6  O5  SGN B   1      25.061  13.791  14.7750  0.00  0.00     0.000 O
ATOM      7   O  SGN B   1      24.408  15.720  11.2220  0.00  0.00     0.000 O
ATOM      9  HD  SGN B   1      24.491  14.860  11.2900  0.00  0.00     0.000 HD
ATOM      9   O  SGN B   1      22.229  15.403  13.0950  0.00  0.00     0.000 O
ATOM     11  HD  SGN B   1      22.313  14.544  13.1630  0.00  0.00     0.000 HD
ENDROOT
BRANCH 2 13
ATOM     11   N  SGN B   1      27.227  14.387  12.4470  0.00  0.00     0.000 N
ATOM     13  HD  SGN B   1      27.205  15.027  13.0310  0.00  0.00     0.000 HD
ATOM     13   S  SGN B   1      28.560  15.286  12.3930  0.00  0.00     0.000 S
ATOM     14   O  SGN B   1      28.299  16.573  12.9090  0.00  0.00     0.000 OA
ATOM     15   O  SGN B   1      29.640  14.524  12.9250  0.00  0.00     0.000 OA
ATOM     16   O  SGN B   1      28.742  15.322  10.8440  0.00  0.00     0.000 OA
ENDBRANCH 2 13
BRANCH 5 17
ATOM     17   C  SGN B   1      22.771  13.472  15.3260  0.00  0.00     0.000 C
ATOM     18   O  SGN B   1      23.238  13.058  16.6260  0.00  0.00     0.000 O
ATOM     19   S  SGN B   1      23.099  11.499  16.9560  0.00  0.00     0.000 S
ATOM     20   O  SGN B   1      23.406  11.386  18.3660  0.00  0.00     0.000 OA
ATOM     21   O  SGN B   1      21.724  11.192  16.6370  0.00  0.00     0.000 OA
ATOM     22   O  SGN B   1      24.062  10.844  16.0990  0.00  0.00     0.000 OA
ENDBRANCH 5 17
BRANCH 1 23
ATOM     23  O4  IDS B   2      26.571  15.329  15.5560  0.00  0.00     0.000 O
BRANCH 23 27
ATOM     24  C1  IDS B   2      26.364  17.808  18.8790  0.00  0.00     0.000 C
ATOM     25  C2  IDS B   2      25.221  17.971  17.8530  0.00  0.00     0.000 C
ATOM     26  C3  IDS B   2      25.228  16.828  16.8410  0.00  0.00     0.000 C
ATOM     27  C4  IDS B   2      26.565  16.651  16.1340  0.00  0.00     0.000 C
ATOM     28  C5  IDS B   2      27.721  16.922  17.1180  0.00  0.00     0.000 C
ATOM     29  O5  IDS B   2      27.284  16.791  18.4630  0.00  0.00     0.000 O
ATOM     30   O  IDS B   2      24.245  17.079  15.8440  0.00  0.00     0.000 O
ATOM     32  HD  IDS B   2      24.503  17.650  15.2460  0.00  0.00     0.000 HD
BRANCH 25 32
ATOM     32   O  IDS B   2      23.885  17.990  18.4980  0.00  0.00     0.000 O
ATOM     33   S  IDS B   2      22.927  19.333  18.4800  0.00  0.00     0.000 S
ATOM     34   O  IDS B   2      21.823  19.055  19.3860  0.00  0.00     0.000 OA
ATOM     35   O  IDS B   2      23.700  20.485  18.9210  0.00  0.00     0.000 OA
ATOM     36   O  IDS B   2      22.468  19.466  17.1170  0.00  0.00     0.000 OA
ENDBRANCH 25 32
BRANCH 28 37
ATOM     37   C  IDS B   2      29.019  16.105  16.9480  0.00  0.00     0.000 C
ATOM     38   O  IDS B   2      29.595  16.352  15.9150  0.00  0.00     0.000 OA
ATOM     39   O  IDS B   2      29.522  15.305  17.7750  0.00  0.00     0.000 OA
ENDBRANCH 28 37
BRANCH 24 40
ATOM     40  O4  SUS B   3      26.566  18.757  19.8170  0.00  0.00     0.000 O
BRANCH 40 44
ATOM     41  C1  SUS B   3      27.620  18.102  23.8180  0.00  0.00     0.000 C
ATOM     42  C2  SUS B   3      28.665  18.791  22.9170  0.00  0.00     0.000 C
ATOM     43  C3  SUS B   3      27.966  19.370  21.6890  0.00  0.00     0.000 C
ATOM     44  C4  SUS B   3      27.189  18.261  20.9970  0.00  0.00     0.000 C
ATOM     45  C5  SUS B   3      26.138  17.731  21.9500  0.00  0.00     0.000 C
ATOM     46  O5  SUS B   3      26.811  17.168  23.0950  0.00  0.00     0.000 O
BRANCH 42 49
ATOM     47   N  SUS B   3      30.091  19.053  22.6570  0.00  0.00     0.000 N
ATOM     49  HD  SUS B   3      30.511  18.465  22.1790  0.00  0.00     0.000 HD
ATOM     49   S  SUS B   3      30.930  19.294  24.0000  0.00  0.00     0.000 S
ATOM     50   O  SUS B   3      30.801  18.180  24.8530  0.00  0.00     0.000 OA
ATOM     51   O  SUS B   3      32.330  19.314  23.3350  0.00  0.00     0.000 OA
ATOM     52   O  SUS B   3      30.611  20.561  24.5280  0.00  0.00     0.000 OA
ENDBRANCH 42 49
BRANCH 43 53
ATOM     53   O  SUS B   3      29.004  19.896  20.7810  0.00  0.00     0.000 O
ATOM     54   S  SUS B   3      29.040  21.523  20.5460  0.00  0.00     0.000 S
ATOM     55   O  SUS B   3      29.521  22.131  21.7780  0.00  0.00     0.000 OA
ATOM     56   O  SUS B   3      29.937  21.696  19.4180  0.00  0.00     0.000 OA
ATOM     57   O  SUS B   3      27.662  21.930  20.2560  0.00  0.00     0.000 OA
ENDBRANCH 43 53
BRANCH 45 58
ATOM     58   C  SUS B   3      25.255  16.690  21.2980  0.00  0.00     0.000 C
ATOM     59   S  SUS B   3      22.843  15.814  21.2460  0.00  0.00     0.000 S
ATOM     60   O  SUS B   3      23.885  16.932  21.6610  0.00  0.00     0.000 O
ATOM     61   O  SUS B   3      23.017  14.753  22.2200  0.00  0.00     0.000 OA
ATOM     62   O  SUS B   3      21.605  16.526  21.4150  0.00  0.00     0.000 OA
ATOM     63   O  SUS B   3      23.169  15.469  19.9080  0.00  0.00     0.000 OA
ENDBRANCH 45 58
BRANCH 41 64
ATOM     64  O4  IDS B   4      26.906  18.973  24.6030  0.00  0.00     0.000 O
BRANCH 64 68
ATOM     65  C1  IDS B   4      25.940  19.577  28.0640  0.00  0.00     0.000 C
ATOM     66  C2  IDS B   4      27.016  18.535  27.7330  0.00  0.00     0.000 C
ATOM     67  C3  IDS B   4      26.652  17.596  26.5950  0.00  0.00     0.000 C
ATOM     68  C4  IDS B   4      25.948  18.302  25.4510  0.00  0.00     0.000 C
ATOM     69  C5  IDS B   4      24.894  19.244  26.0470  0.00  0.00     0.000 C
ATOM     70  O5  IDS B   4      25.544  20.220  26.8660  0.00  0.00     0.000 O
ATOM     71   O  IDS B   4      25.809  16.596  27.1300  0.00  0.00     0.000 O
ATOM     73  HD  IDS B   4      26.389  17.239  27.1640  0.00  0.00     0.000 HD
BRANCH 66 73
ATOM     73   O  IDS B   4      28.231  19.233  27.2910  0.00  0.00     0.000 O
ATOM     74   S  IDS B   4      29.538  19.156  28.2410  0.00  0.00     0.000 S
ATOM     75   O  IDS B   4      29.134  19.658  29.5360  0.00  0.00     0.000 OA
ATOM     76   O  IDS B   4      30.463  20.012  27.5420  0.00  0.00     0.000 OA
ATOM     77   O  IDS B   4      29.918  17.763  28.2610  0.00  0.00     0.000 OA
ENDBRANCH 66 73
BRANCH 69 78
ATOM     78   C  IDS B   4      23.952  19.863  25.0240  0.00  0.00     0.000 C
ATOM     79   O  IDS B   4      23.320  20.871  25.3360  0.00  0.00     0.000 OA
ATOM     80   O  IDS B   4      23.932  19.392  23.8720  0.00  0.00     0.000 OA
ENDBRANCH 69 78
BRANCH 65 81
ATOM     81  O4  SGN B   5      24.956  18.993  28.8020  0.00  0.00     0.000 O
BRANCH 81 85
ATOM     82  C1  SGN B   5      22.335  19.617  32.0240  0.00  0.00     0.000 C
ATOM     83  C2  SGN B   5      21.933  20.221  30.6700  0.00  0.00     0.000 C
ATOM     84  C3  SGN B   5      22.716  19.529  29.5460  0.00  0.00     0.000 C
ATOM     85  C4  SGN B   5      24.204  19.640  29.8310  0.00  0.00     0.000 C
ATOM     86  C5  SGN B   5      24.483  18.989  31.1830  0.00  0.00     0.000 C
ATOM     87  O5  SGN B   5      23.737  19.690  32.1970  0.00  0.00     0.000 O
ATOM     88   O  SGN B   5      22.394  20.118  28.3050  0.00  0.00     0.000 O
ATOM     90  HD  SGN B   5      22.084  19.365  28.5990  0.00  0.00     0.000 HD
BRANCH 83 92
ATOM     90   N  SGN B   5      20.479  20.097  30.8920  0.00  0.00     0.000 N
ATOM     92  HD  SGN B   5      20.309  19.555  31.5460  0.00  0.00     0.000 HD
ATOM     92   S  SGN B   5      19.599  21.432  30.8740  0.00  0.00     0.000 S
ATOM     93   O  SGN B   5      18.263  20.979  31.1210  0.00  0.00     0.000 OA
ATOM     94   O  SGN B   5      20.231  22.322  31.7860  0.00  0.00     0.000 OA
ATOM     95   O  SGN B   5      19.790  21.999  29.4840  0.00  0.00     0.000 OA
ENDBRANCH 83 92
BRANCH 86 96
ATOM     96   C  SGN B   5      25.940  19.014  31.5960  0.00  0.00     0.000 C
ATOM     97   O  SGN B   5      26.136  18.258  32.7930  0.00  0.00     0.000 O
ATOM     98   S  SGN B   5      27.309  17.165  32.7540  0.00  0.00     0.000 S
ATOM     99   O  SGN B   5      27.388  16.734  34.1290  0.00  0.00     0.000 OA
ATOM    100   O  SGN B   5      26.920  16.154  31.8380  0.00  0.00     0.000 OA
ATOM    101   O  SGN B   5      28.458  17.894  32.3230  0.00  0.00     0.000 OA
ENDBRANCH 86 96
BRANCH 82 102
ATOM    102  O4  IDS B   6      21.904  18.333  32.1740  0.00  0.00     0.000 O
BRANCH 102 106
ATOM    103  C1  IDS B   6      19.781  15.944  33.9180  0.00  0.00     0.000 C
ATOM    104  C2  IDS B   6      19.378  17.423  33.8120  0.00  0.00     0.000 C
ATOM    105  C3  IDS B   6      20.477  18.414  34.1450  0.00  0.00     0.000 C
ATOM    106  C4  IDS B   6      21.827  18.003  33.5840  0.00  0.00     0.000 C
ATOM    107  C5  IDS B   6      22.044  16.503  33.8050  0.00  0.00     0.000 C
ATOM    108  O5  IDS B   6      20.996  15.722  33.2270  0.00  0.00     0.000 O
ATOM    109   O  IDS B   6      20.538  18.549  35.5550  0.00  0.00     0.000 O
ATOM    111  HD  IDS B   6      20.184  17.815  35.8500  0.00  0.00     0.000 HD
BRANCH 104 111
ATOM    111   O  IDS B   6      18.996  17.718  32.4230  0.00  0.00     0.000 O
ATOM    112   S  IDS B   6      17.451  17.595  32.0240  0.00  0.00     0.000 S
ATOM    113   O  IDS B   6      17.102  16.217  32.3320  0.00  0.00     0.000 OA
ATOM    114   O  IDS B   6      16.695  18.602  32.7780  0.00  0.00     0.000 OA
ATOM    115   O  IDS B   6      17.552  17.873  30.6080  0.00  0.00     0.000 OA
ENDBRANCH 104 111
BRANCH 107 116
ATOM    116   C  IDS B   6      23.383  16.094  33.2070  0.00  0.00     0.000 C
ATOM    117   O  IDS B   6      23.436  16.005  32.0060  0.00  0.00     0.000 OA
ATOM    118   O  IDS B   6      24.350  15.859  33.9140  0.00  0.00     0.000 OA
ENDBRANCH 107 116
BRANCH 103 119
ATOM    119  O4  SGN B   7      19.661  15.672  35.2420  0.00  0.00     0.000 O
BRANCH 119 123
ATOM    120  C1  SGN B   7      19.000  12.276  37.5920  0.00  0.00     0.000 C
ATOM    121  C2  SGN B   7      20.429  12.514  37.0690  0.00  0.00     0.000 C
ATOM    122  C3  SGN B   7      20.592  13.962  36.5880  0.00  0.00     0.000 C
ATOM    123  C4  SGN B   7      19.504  14.293  35.5800  0.00  0.00     0.000 C
ATOM    124  C5  SGN B   7      18.121  14.016  36.1930  0.00  0.00     0.000 C
ATOM    125  O5  SGN B   7      18.013  12.643  36.6300  0.00  0.00     0.000 O
ATOM    126   O  SGN B   7      21.896  14.120  36.0190  0.00  0.00     0.000 O
ATOM    128  HD  SGN B   7      21.346  13.628  36.4720  0.00  0.00     0.000 HD
BRANCH 121 130
ATOM    128   N  SGN B   7      20.885  11.138  37.2820  0.00  0.00     0.000 N
ATOM    130  HD  SGN B   7      21.546  11.265  36.7370  0.00  0.00     0.000 HD
ATOM    130   S  SGN B   7      22.199  10.793  38.1480  0.00  0.00     0.000 S
ATOM    131   O  SGN B   7      22.038  11.506  39.3690  0.00  0.00     0.000 OA
ATOM    132   O  SGN B   7      22.369   9.385  38.1570  0.00  0.00     0.000 OA
ATOM    133   O  SGN B   7      23.316  11.320  37.1860  0.00  0.00     0.000 OA
ENDBRANCH 121 130
BRANCH 124 134
ATOM    134   C  SGN B   7      16.983  14.204  35.2330  0.00  0.00     0.000 C
ATOM    135   O  SGN B   7      16.285  12.954  35.1010  0.00  0.00     0.000 O
ATOM    136   S  SGN B   7      14.962  12.977  34.2540  0.00  0.00     0.000 S
ATOM    137   O  SGN B   7      14.506  11.610  34.1770  0.00  0.00     0.000 OA
ATOM    138   O  SGN B   7      15.345  13.518  32.9700  0.00  0.00     0.000 OA
ATOM    139   O  SGN B   7      14.102  13.845  35.0420  0.00  0.00     0.000 OA
ENDBRANCH 124 134
BRANCH 120 140
ATOM    140  O4  IDS B   8      18.428  12.790  38.6860  0.00  0.00     0.000 O
BRANCH 140 144
ATOM    141  C1  IDS B   8      17.672  15.296  41.1570  0.00  0.00     0.000 C
ATOM    142  C2  IDS B   8      19.092  15.193  40.5320  0.00  0.00     0.000 C
ATOM    143  C3  IDS B   8      19.650  13.757  40.5350  0.00  0.00     0.000 C
ATOM    144  C4  IDS B   8      18.600  12.734  40.1070  0.00  0.00     0.000 C
ATOM    145  C5  IDS B   8      17.265  13.018  40.8120  0.00  0.00     0.000 C
ATOM    146  O5  IDS B   8      16.805  14.343  40.5550  0.00  0.00     0.000 O
BRANCH 142 147
ATOM    147   O  IDS B   8      19.044  15.643  39.1160  0.00  0.00     0.000 O
ATOM    148   S  IDS B   8      19.508  17.140  38.6980  0.00  0.00     0.000 S
ATOM    149   O  IDS B   8      19.549  17.938  39.9030  0.00  0.00     0.000 OA
ATOM    150   O  IDS B   8      20.814  16.983  38.0840  0.00  0.00     0.000 OA
ATOM    151   O  IDS B   8      18.496  17.609  37.7720  0.00  0.00     0.000 OA
ENDBRANCH 142 147
BRANCH 145 152
ATOM    152   C  IDS B   8      16.154  12.095  40.3520  0.00  0.00     0.000 C
ATOM    153   O  IDS B   8      15.034  12.550  40.1530  0.00  0.00     0.000 OA
ATOM    154   O  IDS B   8      16.391  10.915  40.1660  0.00  0.00     0.000 OA
ENDBRANCH 145 152
ENDBRANCH 140 144
ENDBRANCH 120 140
ENDBRANCH 119 123
ENDBRANCH 103 119
ENDBRANCH 102 106
ENDBRANCH 82 102
ENDBRANCH 81 85
ENDBRANCH 65 81
ENDBRANCH 64 68
ENDBRANCH 41 64
ENDBRANCH 40 44
ENDBRANCH 24 40
ENDBRANCH 23 27
ENDBRANCH 1 23
TORSDOF 31
ENDMDL
MODEL 57
REMARK VINA RESULT:      -6.9     10.042     13.791
ROOT
ATOM      1  C1  SGN B   1      37.124  17.510  26.8000  0.00  0.00     0.000 C
ATOM      2  C2  SGN B   1      37.611  18.473  25.7060  0.00  0.00     0.000 C
ATOM      3  C3  SGN B   1      37.057  18.064  24.3370  0.00  0.00     0.000 C
ATOM      4  C4  SGN B   1      37.429  16.617  24.0300  0.00  0.00     0.000 C
ATOM      5  C5  SGN B   1      37.044  15.740  25.2190  0.00  0.00     0.000 C
ATOM      6  O5  SGN B   1      37.662  16.252  26.4150  0.00  0.00     0.000 O
ATOM      7   O  SGN B   1      37.545  18.931  23.3200  0.00  0.00     0.000 O
ATOM      9  HD  SGN B   1      38.279  18.587  23.6250  0.00  0.00     0.000 HD
ATOM      9   O  SGN B   1      36.744  16.191  22.8660  0.00  0.00     0.000 O
ATOM     11  HD  SGN B   1      37.477  15.847  23.1720  0.00  0.00     0.000 HD
ENDROOT
BRANCH 2 13
ATOM     11   N  SGN B   1      38.386  19.306  26.6440  0.00  0.00     0.000 N
ATOM     13  HD  SGN B   1      37.521  19.287  26.6850  0.00  0.00     0.000 HD
ATOM     13   S  SGN B   1      37.791  20.653  27.2920  0.00  0.00     0.000 S
ATOM     14   O  SGN B   1      36.460  20.849  26.8670  0.00  0.00     0.000 OA
ATOM     15   O  SGN B   1      38.089  20.653  28.6850  0.00  0.00     0.000 OA
ATOM     16   O  SGN B   1      38.758  21.673  26.6150  0.00  0.00     0.000 OA
ENDBRANCH 2 13
BRANCH 5 17
ATOM     17   C  SGN B   1      37.464  14.297  25.0790  0.00  0.00     0.000 C
ATOM     18   O  SGN B   1      36.910  13.495  26.1410  0.00  0.00     0.000 O
ATOM     19   S  SGN B   1      37.916  12.468  26.8410  0.00  0.00     0.000 S
ATOM     20   O  SGN B   1      37.080  11.639  27.6840  0.00  0.00     0.000 OA
ATOM     21   O  SGN B   1      38.515  11.753  25.7380  0.00  0.00     0.000 OA
ATOM     22   O  SGN B   1      38.845  13.294  27.5810  0.00  0.00     0.000 OA
ENDBRANCH 5 17
BRANCH 1 23
ATOM     23  O4  IDS B   2      36.093  17.347  27.6790  0.00  0.00     0.000 O
BRANCH 23 27
ATOM     24  C1  IDS B   2      32.320  17.824  29.3410  0.00  0.00     0.000 C
ATOM     25  C2  IDS B   2      32.664  18.785  28.1810  0.00  0.00     0.000 C
ATOM     26  C3  IDS B   2      33.931  18.335  27.4580  0.00  0.00     0.000 C
ATOM     27  C4  IDS B   2      35.127  18.156  28.3820  0.00  0.00     0.000 C
ATOM     28  C5  IDS B   2      34.667  17.570  29.7320  0.00  0.00     0.000 C
ATOM     29  O5  IDS B   2      33.407  16.928  29.6030  0.00  0.00     0.000 O
ATOM     30   O  IDS B   2      34.284  19.309  26.4820  0.00  0.00     0.000 O
ATOM     32  HD  IDS B   2      34.685  19.999  26.8180  0.00  0.00     0.000 HD
BRANCH 25 32
ATOM     32   O  IDS B   2      31.577  18.863  27.1750  0.00  0.00     0.000 O
ATOM     33   S  IDS B   2      30.858  20.294  26.7780  0.00  0.00     0.000 S
ATOM     34   O  IDS B   2      29.711  19.956  25.9500  0.00  0.00     0.000 OA
ATOM     35   O  IDS B   2      30.451  20.985  27.9930  0.00  0.00     0.000 OA
ATOM     36   O  IDS B   2      31.848  21.034  26.0290  0.00  0.00     0.000 OA
ENDBRANCH 25 32
BRANCH 28 37
ATOM     37   C  IDS B   2      35.627  16.611  30.4660  0.00  0.00     0.000 C
ATOM     38   O  IDS B   2      35.199  15.483  30.5350  0.00  0.00     0.000 OA
ATOM     39   O  IDS B   2      36.770  16.881  30.9090  0.00  0.00     0.000 OA
ENDBRANCH 28 37
BRANCH 24 40
ATOM     40  O4  SUS B   3      31.269  18.090  30.1450  0.00  0.00     0.000 O
BRANCH 40 44
ATOM     41  C1  SUS B   3      28.818  15.504  32.3470  0.00  0.00     0.000 C
ATOM     42  C2  SUS B   3      30.311  15.555  32.7280  0.00  0.00     0.000 C
ATOM     43  C3  SUS B   3      30.924  16.845  32.1870  0.00  0.00     0.000 C
ATOM     44  C4  SUS B   3      30.666  16.923  30.6900  0.00  0.00     0.000 C
ATOM     45  C5  SUS B   3      29.170  16.957  30.4530  0.00  0.00     0.000 C
ATOM     46  O5  SUS B   3      28.607  15.726  30.9480  0.00  0.00     0.000 O
BRANCH 42 49
ATOM     47   N  SUS B   3      30.297  14.151  33.1730  0.00  0.00     0.000 N
ATOM     49  HD  SUS B   3      29.521  13.771  33.2310  0.00  0.00     0.000 HD
ATOM     49   S  SUS B   3      31.061  13.936  34.5640  0.00  0.00     0.000 S
ATOM     50   O  SUS B   3      30.487  14.754  35.5580  0.00  0.00     0.000 OA
ATOM     51   O  SUS B   3      30.649  12.456  34.7690  0.00  0.00     0.000 OA
ATOM     52   O  SUS B   3      32.451  14.042  34.3550  0.00  0.00     0.000 OA
ENDBRANCH 42 49
BRANCH 43 53
ATOM     53   O  SUS B   3      32.377  16.800  32.4430  0.00  0.00     0.000 O
ATOM     54   S  SUS B   3      32.973  17.843  33.5660  0.00  0.00     0.000 S
ATOM     55   O  SUS B   3      32.523  17.382  34.8720  0.00  0.00     0.000 OA
ATOM     56   O  SUS B   3      34.411  17.772  33.3830  0.00  0.00     0.000 OA
ATOM     57   O  SUS B   3      32.414  19.160  33.2460  0.00  0.00     0.000 OA
ENDBRANCH 43 53
BRANCH 45 58
ATOM     58   C  SUS B   3      28.833  17.136  28.9890  0.00  0.00     0.000 C
ATOM     59   S  SUS B   3      27.055  16.566  27.2280  0.00  0.00     0.000 S
ATOM     60   O  SUS B   3      27.499  16.658  28.7450  0.00  0.00     0.000 O
ATOM     61   O  SUS B   3      27.685  15.362  26.7210  0.00  0.00     0.000 OA
ATOM     62   O  SUS B   3      25.631  16.429  27.3740  0.00  0.00     0.000 OA
ATOM     63   O  SUS B   3      27.491  17.778  26.6300  0.00  0.00     0.000 OA
ENDBRANCH 45 58
BRANCH 41 64
ATOM     64  O4  IDS B   4      28.012  16.259  33.1630  0.00  0.00     0.000 O
BRANCH 64 68
ATOM     65  C1  IDS B   4      24.999  15.919  35.1840  0.00  0.00     0.000 C
ATOM     66  C2  IDS B   4      25.662  14.679  34.5710  0.00  0.00     0.000 C
ATOM     67  C3  IDS B   4      26.042  14.829  33.1070  0.00  0.00     0.000 C
ATOM     68  C4  IDS B   4      26.619  16.195  32.7850  0.00  0.00     0.000 C
ATOM     69  C5  IDS B   4      25.749  17.255  33.4730  0.00  0.00     0.000 C
ATOM     70  O5  IDS B   4      25.793  17.054  34.8880  0.00  0.00     0.000 O
ATOM     71   O  IDS B   4      24.872  14.613  32.3460  0.00  0.00     0.000 O
ATOM     73  HD  IDS B   4      25.369  14.575  33.0540  0.00  0.00     0.000 HD
BRANCH 66 73
ATOM     73   O  IDS B   4      26.924  14.419  35.2780  0.00  0.00     0.000 O
ATOM     74   S  IDS B   4      27.028  13.075  36.1720  0.00  0.00     0.000 S
ATOM     75   O  IDS B   4      25.939  13.131  37.1250  0.00  0.00     0.000 OA
ATOM     76   O  IDS B   4      28.334  13.214  36.7650  0.00  0.00     0.000 OA
ATOM     77   O  IDS B   4      26.913  11.980  35.2380  0.00  0.00     0.000 OA
ENDBRANCH 66 73
BRANCH 69 78
ATOM     78   C  IDS B   4      26.066  18.688  33.0690  0.00  0.00     0.000 C
ATOM     79   O  IDS B   4      27.240  19.003  32.8790  0.00  0.00     0.000 OA
ATOM     80   O  IDS B   4      25.121  19.466  32.8400  0.00  0.00     0.000 OA
ENDBRANCH 69 78
BRANCH 65 81
ATOM     81  O4  SGN B   5      23.692  15.969  34.8040  0.00  0.00     0.000 O
BRANCH 81 85
ATOM     82  C1  SGN B   5      19.838  16.794  36.2550  0.00  0.00     0.000 C
ATOM     83  C2  SGN B   5      20.595  17.952  35.5870  0.00  0.00     0.000 C
ATOM     84  C3  SGN B   5      21.736  17.391  34.7260  0.00  0.00     0.000 C
ATOM     85  C4  SGN B   5      22.627  16.512  35.5860  0.00  0.00     0.000 C
ATOM     86  C5  SGN B   5      21.773  15.391  36.1730  0.00  0.00     0.000 C
ATOM     87  O5  SGN B   5      20.735  15.977  36.9830  0.00  0.00     0.000 O
ATOM     88   O  SGN B   5      22.471  18.451  34.1550  0.00  0.00     0.000 O
ATOM     90  HD  SGN B   5      21.878  17.972  33.7430  0.00  0.00     0.000 HD
BRANCH 83 92
ATOM     90   N  SGN B   5      19.327  18.596  35.9800  0.00  0.00     0.000 N
ATOM     92  HD  SGN B   5      19.128  18.415  36.8030  0.00  0.00     0.000 HD
ATOM     92   S  SGN B   5      19.090  20.115  35.5450  0.00  0.00     0.000 S
ATOM     93   O  SGN B   5      17.798  20.438  36.0740  0.00  0.00     0.000 OA
ATOM     94   O  SGN B   5      20.239  20.827  35.9870  0.00  0.00     0.000 OA
ATOM     95   O  SGN B   5      19.126  20.093  34.0330  0.00  0.00     0.000 OA
ENDBRANCH 83 92
BRANCH 86 96
ATOM     96   C  SGN B   5      22.538  14.422  37.0510  0.00  0.00     0.000 C
ATOM     97   O  SGN B   5      22.132  14.553  38.4150  0.00  0.00     0.000 O
ATOM     98   S  SGN B   5      21.728  13.194  39.1650  0.00  0.00     0.000 S
ATOM     99   O  SGN B   5      21.574  13.621  40.5350  0.00  0.00     0.000 OA
ATOM    100   O  SGN B   5      20.540  12.710  38.5590  0.00  0.00     0.000 OA
ATOM    101   O  SGN B   5      22.847  12.332  38.9640  0.00  0.00     0.000 OA
ENDBRANCH 86 96
BRANCH 82 102
ATOM    102  O4  IDS B   6      19.132  16.044  35.3620  0.00  0.00     0.000 O
BRANCH 102 106
ATOM    103  C1  IDS B   6      15.833  14.719  34.5740  0.00  0.00     0.000 C
ATOM    104  C2  IDS B   6      15.994  15.910  35.5320  0.00  0.00     0.000 C
ATOM    105  C3  IDS B   6      17.057  15.738  36.5990  0.00  0.00     0.000 C
ATOM    106  C4  IDS B   6      18.317  15.076  36.0700  0.00  0.00     0.000 C
ATOM    107  C5  IDS B   6      17.942  13.907  35.1550  0.00  0.00     0.000 C
ATOM    108  O5  IDS B   6      17.098  14.321  34.0790  0.00  0.00     0.000 O
ATOM    109   O  IDS B   6      16.498  14.982  37.6610  0.00  0.00     0.000 O
ATOM    111  HD  IDS B   6      15.846  14.551  37.2880  0.00  0.00     0.000 HD
BRANCH 104 111
ATOM    111   O  IDS B   6      16.405  17.094  34.7610  0.00  0.00     0.000 O
ATOM    112   S  IDS B   6      15.332  18.261  34.5420  0.00  0.00     0.000 S
ATOM    113   O  IDS B   6      14.219  17.613  33.8650  0.00  0.00     0.000 OA
ATOM    114   O  IDS B   6      15.001  18.838  35.8510  0.00  0.00     0.000 OA
ATOM    115   O  IDS B   6      16.108  19.137  33.6920  0.00  0.00     0.000 OA
ENDBRANCH 104 111
BRANCH 107 116
ATOM    116   C  IDS B   6      19.212  13.273  34.6010  0.00  0.00     0.000 C
ATOM    117   O  IDS B   6      19.489  13.525  33.4560  0.00  0.00     0.000 OA
ATOM    118   O  IDS B   6      19.905  12.538  35.2860  0.00  0.00     0.000 OA
ENDBRANCH 107 116
BRANCH 103 119
ATOM    119  O4  SGN B   7      15.041  13.858  35.2620  0.00  0.00     0.000 O
BRANCH 119 123
ATOM    120  C1  SGN B   7      12.686  10.608  34.0870  0.00  0.00     0.000 C
ATOM    121  C2  SGN B   7      13.942  10.312  34.9270  0.00  0.00     0.000 C
ATOM    122  C3  SGN B   7      14.452  11.592  35.6020  0.00  0.00     0.000 C
ATOM    123  C4  SGN B   7      14.652  12.678  34.5580  0.00  0.00     0.000 C
ATOM    124  C5  SGN B   7      13.348  12.893  33.7720  0.00  0.00     0.000 C
ATOM    125  O5  SGN B   7      12.906  11.664  33.1530  0.00  0.00     0.000 O
ATOM    126   O  SGN B   7      15.673  11.300  36.2920  0.00  0.00     0.000 O
ATOM    128  HD  SGN B   7      14.977  11.003  35.8700  0.00  0.00     0.000 HD
BRANCH 121 130
ATOM    128   N  SGN B   7      13.287   9.012  35.0910  0.00  0.00     0.000 N
ATOM    130  HD  SGN B   7      13.739   8.692  34.4250  0.00  0.00     0.000 HD
ATOM    130   S  SGN B   7      14.056   7.733  35.6970  0.00  0.00     0.000 S
ATOM    131   O  SGN B   7      14.654   8.194  36.9030  0.00  0.00     0.000 OA
ATOM    132   O  SGN B   7      13.154   6.638  35.7170  0.00  0.00     0.000 OA
ATOM    133   O  SGN B   7      15.040   7.413  34.5210  0.00  0.00     0.000 OA
ENDBRANCH 121 130
BRANCH 124 134
ATOM    134   C  SGN B   7      13.477  13.868  32.6380  0.00  0.00     0.000 C
ATOM    135   O  SGN B   7      13.549  13.130  31.4060  0.00  0.00     0.000 O
ATOM    136   S  SGN B   7      13.533  13.976  30.0830  0.00  0.00     0.000 S
ATOM    137   O  SGN B   7      13.719  13.039  29.0000  0.00  0.00     0.000 OA
ATOM    138   O  SGN B   7      14.629  14.909  30.2160  0.00  0.00     0.000 OA
ATOM    139   O  SGN B   7      12.214  14.586  30.1170  0.00  0.00     0.000 OA
ENDBRANCH 124 134
BRANCH 120 140
ATOM    140  O4  IDS B   8      11.471  10.962  34.5200  0.00  0.00     0.000 O
BRANCH 140 144
ATOM    141  C1  IDS B   8       8.114  12.105  35.1410  0.00  0.00     0.000 C
ATOM    142  C2  IDS B   8       9.325  13.071  35.2750  0.00  0.00     0.000 C
ATOM    143  C3  IDS B   8      10.475  12.484  36.1140  0.00  0.00     0.000 C
ATOM    144  C4  IDS B   8      10.756  11.024  35.7600  0.00  0.00     0.000 C
ATOM    145  C5  IDS B   8       9.438  10.243  35.6490  0.00  0.00     0.000 C
ATOM    146  O5  IDS B   8       8.557  10.830  34.6930  0.00  0.00     0.000 O
BRANCH 142 147
ATOM    147   O  IDS B   8       9.873  13.370  33.9260  0.00  0.00     0.000 O
ATOM    148   S  IDS B   8       9.520  14.761  33.1700  0.00  0.00     0.000 S
ATOM    149   O  IDS B   8       8.374  15.341  33.8320  0.00  0.00     0.000 OA
ATOM    150   O  IDS B   8      10.712  15.579  33.2890  0.00  0.00     0.000 OA
ATOM    151   O  IDS B   8       9.222  14.385  31.8010  0.00  0.00     0.000 OA
ENDBRANCH 142 147
BRANCH 145 152
ATOM    152   C  IDS B   8       9.644   8.810  35.2020  0.00  0.00     0.000 C
ATOM    153   O  IDS B   8       9.144   8.427  34.1500  0.00  0.00     0.000 OA
ATOM    154   O  IDS B   8      10.322   8.060  35.8810  0.00  0.00     0.000 OA
ENDBRANCH 145 152
ENDBRANCH 140 144
ENDBRANCH 120 140
ENDBRANCH 119 123
ENDBRANCH 103 119
ENDBRANCH 102 106
ENDBRANCH 82 102
ENDBRANCH 81 85
ENDBRANCH 65 81
ENDBRANCH 64 68
ENDBRANCH 41 64
ENDBRANCH 40 44
ENDBRANCH 24 40
ENDBRANCH 23 27
ENDBRANCH 1 23
TORSDOF 31
ENDMDL
MODEL 58
REMARK VINA RESULT:      -6.9      5.245      9.409
ROOT
ATOM      1  C1  SGN B   1      34.779  20.774   8.9370  0.00  0.00     0.000 C
ATOM      2  C2  SGN B   1      36.270  20.487   8.6990  0.00  0.00     0.000 C
ATOM      3  C3  SGN B   1      37.137  21.247   9.7080  0.00  0.00     0.000 C
ATOM      4  C4  SGN B   1      36.827  22.739   9.6500  0.00  0.00     0.000 C
ATOM      5  C5  SGN B   1      35.317  22.939   9.7510  0.00  0.00     0.000 C
ATOM      6  O5  SGN B   1      34.660  22.174   8.7230  0.00  0.00     0.000 O
ATOM      7   O  SGN B   1      38.518  21.014   9.4560  0.00  0.00     0.000 O
ATOM      9  HD  SGN B   1      38.265  21.386   8.7160  0.00  0.00     0.000 HD
ATOM      9   O  SGN B   1      37.480  23.397  10.7190  0.00  0.00     0.000 O
ATOM     11  HD  SGN B   1      37.227  23.770   9.9800  0.00  0.00     0.000 HD
ENDROOT
BRANCH 2 13
ATOM     11   N  SGN B   1      36.251  19.553   7.5570  0.00  0.00     0.000 N
ATOM     13  HD  SGN B   1      35.765  19.401   8.2570  0.00  0.00     0.000 HD
ATOM     13   S  SGN B   1      35.937  17.985   7.7340  0.00  0.00     0.000 S
ATOM     14   O  SGN B   1      35.649  17.697   9.0840  0.00  0.00     0.000 OA
ATOM     15   O  SGN B   1      35.013  17.593   6.7220  0.00  0.00     0.000 OA
ATOM     16   O  SGN B   1      37.335  17.430   7.3200  0.00  0.00     0.000 OA
ENDBRANCH 2 13
BRANCH 5 17
ATOM     17   C  SGN B   1      34.876  24.374   9.5950  0.00  0.00     0.000 C
ATOM     18   O  SGN B   1      33.454  24.453   9.3700  0.00  0.00     0.000 O
ATOM     19   S  SGN B   1      32.983  25.440   8.2030  0.00  0.00     0.000 S
ATOM     20   O  SGN B   1      31.544  25.519   8.3360  0.00  0.00     0.000 OA
ATOM     21   O  SGN B   1      33.660  26.682   8.4970  0.00  0.00     0.000 OA
ATOM     22   O  SGN B   1      33.418  24.809   6.9760  0.00  0.00     0.000 OA
ENDBRANCH 5 17
BRANCH 1 23
ATOM     23  O4  IDS B   2      33.715  20.301   9.6470  0.00  0.00     0.000 O
BRANCH 23 27
ATOM     24  C1  IDS B   2      31.302  19.481  12.9240  0.00  0.00     0.000 C
ATOM     25  C2  IDS B   2      32.703  20.043  13.2510  0.00  0.00     0.000 C
ATOM     26  C3  IDS B   2      33.382  20.583  11.9950  0.00  0.00     0.000 C
ATOM     27  C4  IDS B   2      33.460  19.567  10.8630  0.00  0.00     0.000 C
ATOM     28  C5  IDS B   2      32.179  18.710  10.8350  0.00  0.00     0.000 C
ATOM     29  O5  IDS B   2      31.114  19.366  11.5070  0.00  0.00     0.000 O
ATOM     30   O  IDS B   2      34.712  20.975  12.3130  0.00  0.00     0.000 O
ATOM     32  HD  IDS B   2      35.262  20.308  12.3610  0.00  0.00     0.000 HD
BRANCH 25 32
ATOM     32   O  IDS B   2      32.647  21.148  14.2400  0.00  0.00     0.000 O
ATOM     33   S  IDS B   2      33.539  21.121  15.6280  0.00  0.00     0.000 S
ATOM     34   O  IDS B   2      33.063  22.232  16.4370  0.00  0.00     0.000 OA
ATOM     35   O  IDS B   2      33.343  19.847  16.3060  0.00  0.00     0.000 OA
ATOM     36   O  IDS B   2      34.909  21.320  15.2150  0.00  0.00     0.000 OA
ENDBRANCH 25 32
BRANCH 28 37
ATOM     37   C  IDS B   2      31.663  18.231   9.4620  0.00  0.00     0.000 C
ATOM     38   O  IDS B   2      30.539  18.608   9.2270  0.00  0.00     0.000 OA
ATOM     39   O  IDS B   2      32.302  17.578   8.6010  0.00  0.00     0.000 OA
ENDBRANCH 28 37
BRANCH 24 40
ATOM     40  O4  SUS B   3      30.569  18.895  13.8940  0.00  0.00     0.000 O
BRANCH 40 44
ATOM     41  C1  SUS B   3      26.413  18.848  14.4160  0.00  0.00     0.000 C
ATOM     42  C2  SUS B   3      27.034  17.696  13.6000  0.00  0.00     0.000 C
ATOM     43  C3  SUS B   3      28.526  17.605  13.9150  0.00  0.00     0.000 C
ATOM     44  C4  SUS B   3      29.166  18.960  13.6580  0.00  0.00     0.000 C
ATOM     45  C5  SUS B   3      28.536  19.982  14.5810  0.00  0.00     0.000 C
ATOM     46  O5  SUS B   3      27.133  20.075  14.2590  0.00  0.00     0.000 O
BRANCH 42 49
ATOM     47   N  SUS B   3      26.115  16.583  13.8950  0.00  0.00     0.000 N
ATOM     49  HD  SUS B   3      26.448  15.912  14.3290  0.00  0.00     0.000 HD
ATOM     49   S  SUS B   3      25.388  16.019  12.5840  0.00  0.00     0.000 S
ATOM     50   O  SUS B   3      26.351  15.601  11.6440  0.00  0.00     0.000 OA
ATOM     51   O  SUS B   3      24.720  14.795  13.2620  0.00  0.00     0.000 OA
ATOM     52   O  SUS B   3      24.415  16.943  12.1560  0.00  0.00     0.000 OA
ENDBRANCH 42 49
BRANCH 43 53
ATOM     53   O  SUS B   3      29.118  16.592  13.0190  0.00  0.00     0.000 O
ATOM     54   S  SUS B   3      29.571  15.165  13.6970  0.00  0.00     0.000 S
ATOM     55   O  SUS B   3      28.355  14.441  14.0430  0.00  0.00     0.000 OA
ATOM     56   O  SUS B   3      30.362  14.520  12.6640  0.00  0.00     0.000 OA
ATOM     57   O  SUS B   3      30.348  15.502  14.8930  0.00  0.00     0.000 OA
ENDBRANCH 43 53
BRANCH 45 58
ATOM     58   C  SUS B   3      29.192  21.340  14.4560  0.00  0.00     0.000 C
ATOM     59   S  SUS B   3      29.441  23.338  12.8650  0.00  0.00     0.000 S
ATOM     60   O  SUS B   3      28.704  21.998  13.2750  0.00  0.00     0.000 O
ATOM     61   O  SUS B   3      30.678  22.915  12.2370  0.00  0.00     0.000 OA
ATOM     62   O  SUS B   3      28.499  23.885  11.9250  0.00  0.00     0.000 OA
ATOM     63   O  SUS B   3      29.592  24.073  14.0710  0.00  0.00     0.000 OA
ENDBRANCH 45 58
BRANCH 41 64
ATOM     64  O4  IDS B   4      26.143  18.518  15.7220  0.00  0.00     0.000 O
BRANCH 64 68
ATOM     65  C1  IDS B   4      24.174  18.149  18.7650  0.00  0.00     0.000 C
ATOM     66  C2  IDS B   4      23.593  17.718  17.4130  0.00  0.00     0.000 C
ATOM     67  C3  IDS B   4      23.786  18.730  16.2960  0.00  0.00     0.000 C
ATOM     68  C4  IDS B   4      25.155  19.384  16.3220  0.00  0.00     0.000 C
ATOM     69  C5  IDS B   4      25.475  19.761  17.7750  0.00  0.00     0.000 C
ATOM     70  O5  IDS B   4      25.511  18.575  18.5720  0.00  0.00     0.000 O
ATOM     71   O  IDS B   4      22.783  19.714  16.4430  0.00  0.00     0.000 O
ATOM     73  HD  IDS B   4      23.154  18.942  16.5720  0.00  0.00     0.000 HD
BRANCH 66 73
ATOM     73   O  IDS B   4      24.288  16.503  16.9650  0.00  0.00     0.000 O
ATOM     74   S  IDS B   4      23.440  15.127  16.8970  0.00  0.00     0.000 S
ATOM     75   O  IDS B   4      22.895  14.915  18.2210  0.00  0.00     0.000 OA
ATOM     76   O  IDS B   4      24.453  14.174  16.5200  0.00  0.00     0.000 OA
ATOM     77   O  IDS B   4      22.428  15.347  15.8910  0.00  0.00     0.000 OA
ENDBRANCH 66 73
BRANCH 69 78
ATOM     78   C  IDS B   4      26.718  20.624  17.9410  0.00  0.00     0.000 C
ATOM     79   O  IDS B   4      27.682  20.161  18.5490  0.00  0.00     0.000 OA
ATOM     80   O  IDS B   4      26.759  21.728  17.3670  0.00  0.00     0.000 OA
ENDBRANCH 69 78
BRANCH 65 81
ATOM     81  O4  SGN B   5      23.327  19.034  19.3610  0.00  0.00     0.000 O
BRANCH 81 85
ATOM     82  C1  SGN B   5      21.830  19.977  23.1690  0.00  0.00     0.000 C
ATOM     83  C2  SGN B   5      22.789  20.990  22.5260  0.00  0.00     0.000 C
ATOM     84  C3  SGN B   5      22.862  20.739  21.0140  0.00  0.00     0.000 C
ATOM     85  C4  SGN B   5      23.263  19.296  20.7640  0.00  0.00     0.000 C
ATOM     86  C5  SGN B   5      22.228  18.390  21.4270  0.00  0.00     0.000 C
ATOM     87  O5  SGN B   5      22.219  18.657  22.8420  0.00  0.00     0.000 O
ATOM     88   O  SGN B   5      23.784  21.629  20.4240  0.00  0.00     0.000 O
ATOM     90  HD  SGN B   5      22.923  21.713  20.4040  0.00  0.00     0.000 HD
BRANCH 83 92
ATOM     90   N  SGN B   5      22.772  21.525  23.9020  0.00  0.00     0.000 N
ATOM     92  HD  SGN B   5      23.174  20.988  24.4490  0.00  0.00     0.000 HD
ATOM     92   S  SGN B   5      23.102  23.075  24.1090  0.00  0.00     0.000 S
ATOM     93   O  SGN B   5      23.010  23.270  25.5250  0.00  0.00     0.000 OA
ATOM     94   O  SGN B   5      24.335  23.300  23.4360  0.00  0.00     0.000 OA
ATOM     95   O  SGN B   5      22.025  23.804  23.3360  0.00  0.00     0.000 OA
ENDBRANCH 83 92
BRANCH 86 96
ATOM     96   C  SGN B   5      22.495  16.909  21.2490  0.00  0.00     0.000 C
ATOM     97   O  SGN B   5      23.620  16.504  22.0320  0.00  0.00     0.000 O
ATOM     98   S  SGN B   5      23.400  15.225  22.9750  0.00  0.00     0.000 S
ATOM     99   O  SGN B   5      24.732  14.954  23.4580  0.00  0.00     0.000 OA
ATOM    100   O  SGN B   5      22.468  15.593  23.9800  0.00  0.00     0.000 OA
ATOM    101   O  SGN B   5      22.901  14.218  22.0960  0.00  0.00     0.000 OA
ENDBRANCH 86 96
BRANCH 82 102
ATOM    102  O4  IDS B   6      20.530  20.189  22.8180  0.00  0.00     0.000 O
BRANCH 102 106
ATOM    103  C1  IDS B   6      17.143  20.180  24.1540  0.00  0.00     0.000 C
ATOM    104  C2  IDS B   6      18.359  20.222  25.0940  0.00  0.00     0.000 C
ATOM    105  C3  IDS B   6      19.452  19.221  24.7760  0.00  0.00     0.000 C
ATOM    106  C4  IDS B   6      19.710  19.088  23.2850  0.00  0.00     0.000 C
ATOM    107  C5  IDS B   6      18.377  19.044  22.5320  0.00  0.00     0.000 C
ATOM    108  O5  IDS B   6      17.572  20.192  22.8060  0.00  0.00     0.000 O
ATOM    109   O  IDS B   6      19.084  17.972  25.3370  0.00  0.00     0.000 O
ATOM    111  HD  IDS B   6      18.223  18.023  25.4120  0.00  0.00     0.000 HD
BRANCH 104 111
ATOM    111   O  IDS B   6      18.998  21.543  24.9910  0.00  0.00     0.000 O
ATOM    112   S  IDS B   6      19.423  22.282  26.3460  0.00  0.00     0.000 S
ATOM    113   O  IDS B   6      18.184  22.409  27.0970  0.00  0.00     0.000 OA
ATOM    114   O  IDS B   6      20.460  21.481  27.0060  0.00  0.00     0.000 OA
ATOM    115   O  IDS B   6      19.905  23.528  25.7910  0.00  0.00     0.000 OA
ENDBRANCH 104 111
BRANCH 107 116
ATOM    116   C  IDS B   6      18.646  18.948  21.0360  0.00  0.00     0.000 C
ATOM    117   O  IDS B   6      18.937  17.860  20.6060  0.00  0.00     0.000 OA
ATOM    118   O  IDS B   6      18.579  19.930  20.3130  0.00  0.00     0.000 OA
ENDBRANCH 107 116
BRANCH 103 119
ATOM    119  O4  SGN B   7      16.392  19.162  24.6470  0.00  0.00     0.000 O
BRANCH 119 123
ATOM    120  C1  SGN B   7      12.315  18.366  25.1330  0.00  0.00     0.000 C
ATOM    121  C2  SGN B   7      12.924  18.139  23.7370  0.00  0.00     0.000 C
ATOM    122  C3  SGN B   7      14.455  18.081  23.8220  0.00  0.00     0.000 C
ATOM    123  C4  SGN B   7      14.978  19.322  24.5270  0.00  0.00     0.000 C
ATOM    124  C5  SGN B   7      14.306  19.462  25.9030  0.00  0.00     0.000 C
ATOM    125  O5  SGN B   7      12.867  19.514  25.7750  0.00  0.00     0.000 O
ATOM    126   O  SGN B   7      14.991  17.968  22.4980  0.00  0.00     0.000 O
ATOM    128  HD  SGN B   7      14.296  17.951  23.0140  0.00  0.00     0.000 HD
BRANCH 121 130
ATOM    128   N  SGN B   7      11.720  18.199  22.9050  0.00  0.00     0.000 N
ATOM    130  HD  SGN B   7      12.206  18.194  22.1880  0.00  0.00     0.000 HD
ATOM    130   S  SGN B   7      11.192  16.931  22.0650  0.00  0.00     0.000 S
ATOM    131   O  SGN B   7      11.153  15.857  22.9970  0.00  0.00     0.000 OA
ATOM    132   O  SGN B   7      10.020  17.316  21.3650  0.00  0.00     0.000 OA
ATOM    133   O  SGN B   7      12.300  16.843  20.9620  0.00  0.00     0.000 OA
ENDBRANCH 121 130
BRANCH 124 134
ATOM    134   C  SGN B   7      14.671  20.723  26.6300  0.00  0.00     0.000 C
ATOM    135   O  SGN B   7      13.685  21.726  26.3330  0.00  0.00     0.000 O
ATOM    136   S  SGN B   7      13.803  23.079  27.1220  0.00  0.00     0.000 S
ATOM    137   O  SGN B   7      12.786  23.952  26.5850  0.00  0.00     0.000 OA
ATOM    138   O  SGN B   7      15.145  23.551  26.8650  0.00  0.00     0.000 OA
ATOM    139   O  SGN B   7      13.562  22.663  28.4940  0.00  0.00     0.000 OA
ENDBRANCH 124 134
BRANCH 120 140
ATOM    140  O4  IDS B   8      12.308  17.527  26.1750  0.00  0.00     0.000 O
BRANCH 140 144
ATOM    141  C1  IDS B   8      12.798  15.599  29.1760  0.00  0.00     0.000 C
ATOM    142  C2  IDS B   8      13.798  15.500  27.9890  0.00  0.00     0.000 C
ATOM    143  C3  IDS B   8      13.104  15.289  26.6310  0.00  0.00     0.000 C
ATOM    144  C4  IDS B   8      11.882  16.190  26.4670  0.00  0.00     0.000 C
ATOM    145  C5  IDS B   8      11.035  16.174  27.7490  0.00  0.00     0.000 C
ATOM    146  O5  IDS B   8      11.797  16.568  28.8880  0.00  0.00     0.000 O
BRANCH 142 147
ATOM    147   O  IDS B   8      14.580  16.760  27.8930  0.00  0.00     0.000 O
ATOM    148   S  IDS B   8      16.163  16.791  28.2480  0.00  0.00     0.000 S
ATOM    149   O  IDS B   8      16.470  15.588  28.9870  0.00  0.00     0.000 OA
ATOM    150   O  IDS B   8      16.845  16.855  26.9690  0.00  0.00     0.000 OA
ATOM    151   O  IDS B   8      16.350  17.984  29.0530  0.00  0.00     0.000 OA
ENDBRANCH 142 147
BRANCH 145 152
ATOM    152   C  IDS B   8       9.859  17.128  27.6840  0.00  0.00     0.000 C
ATOM    153   O  IDS B   8       9.862  18.139  28.3770  0.00  0.00     0.000 OA
ATOM    154   O  IDS B   8       8.933  16.890  26.9290  0.00  0.00     0.000 OA
ENDBRANCH 145 152
ENDBRANCH 140 144
ENDBRANCH 120 140
ENDBRANCH 119 123
ENDBRANCH 103 119
ENDBRANCH 102 106
ENDBRANCH 82 102
ENDBRANCH 81 85
ENDBRANCH 65 81
ENDBRANCH 64 68
ENDBRANCH 41 64
ENDBRANCH 40 44
ENDBRANCH 24 40
ENDBRANCH 23 27
ENDBRANCH 1 23
TORSDOF 31
ENDMDL
MODEL 59
REMARK VINA RESULT:      -6.9      3.616      5.714
ROOT
ATOM      1  C1  SGN B   1      26.582  17.203  12.9780  0.00  0.00     0.000 C
ATOM      2  C2  SGN B   1      25.975  16.643  11.6810  0.00  0.00     0.000 C
ATOM      3  C3  SGN B   1      26.374  15.177  11.4830  0.00  0.00     0.000 C
ATOM      4  C4  SGN B   1      27.893  15.036  11.5100  0.00  0.00     0.000 C
ATOM      5  C5  SGN B   1      28.437  15.737  12.7530  0.00  0.00     0.000 C
ATOM      6  O5  SGN B   1      27.985  17.105  12.7720  0.00  0.00     0.000 O
ATOM      7   O  SGN B   1      25.848  14.676  10.2600  0.00  0.00     0.000 O
ATOM      9  HD  SGN B   1      26.358  15.318   9.9820  0.00  0.00     0.000 HD
ATOM      9   O  SGN B   1      28.238  13.663  11.5320  0.00  0.00     0.000 O
ATOM     11  HD  SGN B   1      28.748  14.305  11.2550  0.00  0.00     0.000 HD
ENDROOT
BRANCH 2 13
ATOM     11   N  SGN B   1      25.241  17.820  11.1790  0.00  0.00     0.000 N
ATOM     13  HD  SGN B   1      25.095  17.518  11.9770  0.00  0.00     0.000 HD
ATOM     13   S  SGN B   1      23.765  18.198  11.6960  0.00  0.00     0.000 S
ATOM     14   O  SGN B   1      23.352  17.288  12.6920  0.00  0.00     0.000 OA
ATOM     15   O  SGN B   1      23.727  19.596  11.9650  0.00  0.00     0.000 OA
ATOM     16   O  SGN B   1      22.995  17.965  10.3600  0.00  0.00     0.000 OA
ENDBRANCH 2 13
BRANCH 5 17
ATOM     17   C  SGN B   1      29.943  15.760  12.8340  0.00  0.00     0.000 C
ATOM     18   O  SGN B   1      30.462  17.034  12.4020  0.00  0.00     0.000 O
ATOM     19   S  SGN B   1      31.715  16.981  11.4100  0.00  0.00     0.000 S
ATOM     20   O  SGN B   1      32.181  18.349  11.3200  0.00  0.00     0.000 OA
ATOM     21   O  SGN B   1      32.647  16.094  12.0660  0.00  0.00     0.000 OA
ATOM     22   O  SGN B   1      31.189  16.465  10.1650  0.00  0.00     0.000 OA
ENDBRANCH 5 17
BRANCH 1 23
ATOM     23  O4  IDS B   2      26.296  17.332  14.3050  0.00  0.00     0.000 O
BRANCH 23 27
ATOM     24  C1  IDS B   2      25.530  18.533  18.2040  0.00  0.00     0.000 C
ATOM     25  C2  IDS B   2      24.635  19.174  17.1200  0.00  0.00     0.000 C
ATOM     26  C3  IDS B   2      24.794  18.453  15.7840  0.00  0.00     0.000 C
ATOM     27  C4  IDS B   2      26.237  18.367  15.3090  0.00  0.00     0.000 C
ATOM     28  C5  IDS B   2      27.176  18.143  16.5110  0.00  0.00     0.000 C
ATOM     29  O5  IDS B   2      26.463  17.615  17.6200  0.00  0.00     0.000 O
ATOM     30   O  IDS B   2      24.053  19.147  14.7870  0.00  0.00     0.000 O
ATOM     32  HD  IDS B   2      24.459  19.851  14.4890  0.00  0.00     0.000 HD
BRANCH 25 32
ATOM     32   O  IDS B   2      23.197  19.133  17.4840  0.00  0.00     0.000 O
ATOM     33   S  IDS B   2      22.310  20.510  17.6870  0.00  0.00     0.000 S
ATOM     34   O  IDS B   2      21.035  20.091  18.2480  0.00  0.00     0.000 OA
ATOM     35   O  IDS B   2      23.016  21.413  18.5840  0.00  0.00     0.000 OA
ATOM     36   O  IDS B   2      22.144  21.065  16.3640  0.00  0.00     0.000 OA
ENDBRANCH 25 32
BRANCH 28 37
ATOM     37   C  IDS B   2      28.437  17.282  16.2910  0.00  0.00     0.000 C
ATOM     38   O  IDS B   2      29.325  17.886  15.7370  0.00  0.00     0.000 OA
ATOM     39   O  IDS B   2      28.622  16.101  16.6760  0.00  0.00     0.000 OA
ENDBRANCH 28 37
BRANCH 24 40
ATOM     40  O4  SUS B   3      25.581  19.072  19.4400  0.00  0.00     0.000 O
BRANCH 40 44
ATOM     41  C1  SUS B   3      24.598  17.068  22.9840  0.00  0.00     0.000 C
ATOM     42  C2  SUS B   3      26.040  17.595  22.8490  0.00  0.00     0.000 C
ATOM     43  C3  SUS B   3      26.082  18.675  21.7700  0.00  0.00     0.000 C
ATOM     44  C4  SUS B   3      25.509  18.105  20.4820  0.00  0.00     0.000 C
ATOM     45  C5  SUS B   3      24.066  17.710  20.7200  0.00  0.00     0.000 C
ATOM     46  O5  SUS B   3      24.043  16.675  21.7240  0.00  0.00     0.000 O
BRANCH 42 49
ATOM     47   N  SUS B   3      26.962  18.155  23.8520  0.00  0.00     0.000 N
ATOM     49  HD  SUS B   3      27.593  18.669  23.5540  0.00  0.00     0.000 HD
ATOM     49   S  SUS B   3      27.632  17.028  24.7730  0.00  0.00     0.000 S
ATOM     50   O  SUS B   3      28.317  16.096  23.9680  0.00  0.00     0.000 OA
ATOM     51   O  SUS B   3      28.633  17.962  25.5000  0.00  0.00     0.000 OA
ATOM     52   O  SUS B   3      26.671  16.530  25.6750  0.00  0.00     0.000 OA
ENDBRANCH 42 49
BRANCH 43 53
ATOM     53   O  SUS B   3      27.493  19.059  21.5660  0.00  0.00     0.000 O
ATOM     54   S  SUS B   3      27.886  20.633  21.8240  0.00  0.00     0.000 S
ATOM     55   O  SUS B   3      27.819  20.870  23.2590  0.00  0.00     0.000 OA
ATOM     56   O  SUS B   3      29.223  20.757  21.2720  0.00  0.00     0.000 OA
ATOM     57   O  SUS B   3      26.889  21.433  21.1070  0.00  0.00     0.000 OA
ENDBRANCH 43 53
BRANCH 45 58
ATOM     58   C  SUS B   3      23.395  17.226  19.4530  0.00  0.00     0.000 C
ATOM     59   S  SUS B   3      23.188  15.181  17.9170  0.00  0.00     0.000 S
ATOM     60   O  SUS B   3      23.633  15.816  19.2970  0.00  0.00     0.000 O
ATOM     61   O  SUS B   3      24.224  15.559  16.9740  0.00  0.00     0.000 OA
ATOM     62   O  SUS B   3      23.220  13.780  18.2450  0.00  0.00     0.000 OA
ATOM     63   O  SUS B   3      21.899  15.713  17.6500  0.00  0.00     0.000 OA
ENDBRANCH 45 58
BRANCH 41 64
ATOM     64  O4  IDS B   4      23.779  17.880  23.7300  0.00  0.00     0.000 O
BRANCH 64 68
ATOM     65  C1  IDS B   4      21.099  18.849  26.0000  0.00  0.00     0.000 C
ATOM     66  C2  IDS B   4      22.124  17.789  26.4230  0.00  0.00     0.000 C
ATOM     67  C3  IDS B   4      22.399  16.727  25.3720  0.00  0.00     0.000 C
ATOM     68  C4  IDS B   4      22.480  17.295  23.9670  0.00  0.00     0.000 C
ATOM     69  C5  IDS B   4      21.321  18.285  23.7850  0.00  0.00     0.000 C
ATOM     70  O5  IDS B   4      21.461  19.351  24.7260  0.00  0.00     0.000 O
ATOM     71   O  IDS B   4      21.352  15.782  25.4450  0.00  0.00     0.000 O
ATOM     73  HD  IDS B   4      21.848  16.431  25.7320  0.00  0.00     0.000 HD
BRANCH 66 73
ATOM     73   O  IDS B   4      23.415  18.448  26.6610  0.00  0.00     0.000 O
ATOM     74   S  IDS B   4      24.117  18.242  28.1030  0.00  0.00     0.000 S
ATOM     75   O  IDS B   4      23.157  18.683  29.0930  0.00  0.00     0.000 OA
ATOM     76   O  IDS B   4      25.277  19.091  27.9920  0.00  0.00     0.000 OA
ATOM     77   O  IDS B   4      24.419  16.833  28.1880  0.00  0.00     0.000 OA
ENDBRANCH 66 73
BRANCH 69 78
ATOM     78   C  IDS B   4      21.132  18.776  22.3560  0.00  0.00     0.000 C
ATOM     79   O  IDS B   4      21.592  19.874  22.0430  0.00  0.00     0.000 OA
ATOM     80   O  IDS B   4      20.614  18.008  21.5260  0.00  0.00     0.000 OA
ENDBRANCH 69 78
BRANCH 65 81
ATOM     81  O4  SGN B   5      19.842  18.338  26.1230  0.00  0.00     0.000 O
BRANCH 81 85
ATOM     82  C1  SGN B   5      15.905  19.431  27.0930  0.00  0.00     0.000 C
ATOM     83  C2  SGN B   5      16.271  19.393  25.6010  0.00  0.00     0.000 C
ATOM     84  C3  SGN B   5      17.541  18.552  25.4060  0.00  0.00     0.000 C
ATOM     85  C4  SGN B   5      18.650  19.111  26.2790  0.00  0.00     0.000 C
ATOM     86  C5  SGN B   5      18.181  19.077  27.7310  0.00  0.00     0.000 C
ATOM     87  O5  SGN B   5      17.002  19.895  27.8560  0.00  0.00     0.000 O
ATOM     88   O  SGN B   5      17.916  18.560  24.0460  0.00  0.00     0.000 O
ATOM     90  HD  SGN B   5      17.508  17.912  24.4510  0.00  0.00     0.000 HD
BRANCH 83 92
ATOM     90   N  SGN B   5      14.829  19.203  25.3520  0.00  0.00     0.000 N
ATOM     92  HD  SGN B   5      14.380  19.226  26.0920  0.00  0.00     0.000 HD
ATOM     92   S  SGN B   5      14.166  19.998  24.1340  0.00  0.00     0.000 S
ATOM     93   O  SGN B   5      12.788  19.610  24.1660  0.00  0.00     0.000 OA
ATOM     94   O  SGN B   5      14.528  21.362  24.3210  0.00  0.00     0.000 OA
ATOM     95   O  SGN B   5      14.898  19.501  22.9070  0.00  0.00     0.000 OA
ENDBRANCH 83 92
BRANCH 86 96
ATOM     96   C  SGN B   5      19.199  19.597  28.7250  0.00  0.00     0.000 C
ATOM     97   O  SGN B   5      19.571  20.940  28.4050  0.00  0.00     0.000 O
ATOM     98   S  SGN B   5      19.493  22.000  29.6070  0.00  0.00     0.000 S
ATOM     99   O  SGN B   5      20.110  23.173  29.0360  0.00  0.00     0.000 OA
ATOM    100   O  SGN B   5      18.125  22.156  29.9480  0.00  0.00     0.000 OA
ATOM    101   O  SGN B   5      20.263  21.408  30.6520  0.00  0.00     0.000 OA
ENDBRANCH 86 96
BRANCH 82 102
ATOM    102  O4  IDS B   6      15.479  18.223  27.5590  0.00  0.00     0.000 O
BRANCH 102 106
ATOM    103  C1  IDS B   6      12.884  16.263  29.1970  0.00  0.00     0.000 C
ATOM    104  C2  IDS B   6      12.528  17.527  28.3980  0.00  0.00     0.000 C
ATOM    105  C3  IDS B   6      13.388  18.740  28.6960  0.00  0.00     0.000 C
ATOM    106  C4  IDS B   6      14.857  18.391  28.8590  0.00  0.00     0.000 C
ATOM    107  C5  IDS B   6      14.997  17.118  29.6980  0.00  0.00     0.000 C
ATOM    108  O5  IDS B   6      14.277  16.023  29.1290  0.00  0.00     0.000 O
ATOM    109   O  IDS B   6      12.885  19.360  29.8680  0.00  0.00     0.000 O
ATOM    111  HD  IDS B   6      12.458  18.725  30.2730  0.00  0.00     0.000 HD
BRANCH 104 111
ATOM    111   O  IDS B   6      12.721  17.257  26.9650  0.00  0.00     0.000 O
ATOM    112   S  IDS B   6      11.431  16.897  26.0860  0.00  0.00     0.000 S
ATOM    113   O  IDS B   6      10.873  15.715  26.7240  0.00  0.00     0.000 OA
ATOM    114   O  IDS B   6      10.540  18.063  26.0700  0.00  0.00     0.000 OA
ATOM    115   O  IDS B   6      12.078  16.632  24.8200  0.00  0.00     0.000 OA
ENDBRANCH 104 111
BRANCH 107 116
ATOM    116   C  IDS B   6      16.471  16.757  29.8250  0.00  0.00     0.000 C
ATOM    117   O  IDS B   6      16.845  15.784  29.2210  0.00  0.00     0.000 OA
ATOM    118   O  IDS B   6      17.231  17.419  30.5140  0.00  0.00     0.000 OA
ENDBRANCH 107 116
BRANCH 103 119
ATOM    119  O4  SGN B   7      12.256  16.449  30.3870  0.00  0.00     0.000 O
BRANCH 119 123
ATOM    120  C1  SGN B   7      10.462  14.023  33.2830  0.00  0.00     0.000 C
ATOM    121  C2  SGN B   7      11.985  13.897  33.0910  0.00  0.00     0.000 C
ATOM    122  C3  SGN B   7      12.530  15.101  32.3130  0.00  0.00     0.000 C
ATOM    123  C4  SGN B   7      11.758  15.267  31.0150  0.00  0.00     0.000 C
ATOM    124  C5  SGN B   7      10.254  15.377  31.3120  0.00  0.00     0.000 C
ATOM    125  O5  SGN B   7       9.783  14.223  32.0440  0.00  0.00     0.000 O
ATOM    126   O  SGN B   7      13.927  14.903  32.0670  0.00  0.00     0.000 O
ATOM    128  HD  SGN B   7      13.209  14.647  32.4780  0.00  0.00     0.000 HD
BRANCH 121 130
ATOM    128   N  SGN B   7      11.938  12.705  33.9410  0.00  0.00     0.000 N
ATOM    130  HD  SGN B   7      12.550  12.328  33.4580  0.00  0.00     0.000 HD
ATOM    130   S  SGN B   7      13.114  12.345  34.9810  0.00  0.00     0.000 S
ATOM    131   O  SGN B   7      13.327  13.536  35.7290  0.00  0.00     0.000 OA
ATOM    132   O  SGN B   7      12.773  11.136  35.6390  0.00  0.00     0.000 OA
ATOM    133   O  SGN B   7      14.256  11.945  33.9860  0.00  0.00     0.000 OA
ENDBRANCH 121 130
BRANCH 124 134
ATOM    134   C  SGN B   7       9.394  15.428  30.0830  0.00  0.00     0.000 C
ATOM    135   O  SGN B   7       8.301  14.509  30.2510  0.00  0.00     0.000 O
ATOM    136   S  SGN B   7       7.196  14.524  29.1340  0.00  0.00     0.000 S
ATOM    137   O  SGN B   7       6.274  13.463  29.4600  0.00  0.00     0.000 OA
ATOM    138   O  SGN B   7       7.906  14.295  27.8960  0.00  0.00     0.000 OA
ATOM    139   O  SGN B   7       6.634  15.859  29.2680  0.00  0.00     0.000 OA
ENDBRANCH 124 134
BRANCH 120 140
ATOM    140  O4  IDS B   8       9.797  14.912  34.0300  0.00  0.00     0.000 O
BRANCH 140 144
ATOM    141  C1  IDS B   8       8.939  18.098  35.4710  0.00  0.00     0.000 C
ATOM    142  C2  IDS B   8      10.424  17.703  35.2300  0.00  0.00     0.000 C
ATOM    143  C3  IDS B   8      10.768  16.298  35.7580  0.00  0.00     0.000 C
ATOM    144  C4  IDS B   8       9.688  15.275  35.4120  0.00  0.00     0.000 C
ATOM    145  C5  IDS B   8       8.295  15.860  35.6950  0.00  0.00     0.000 C
ATOM    146  O5  IDS B   8       8.079  17.075  34.9830  0.00  0.00     0.000 O
BRANCH 142 147
ATOM    147   O  IDS B   8      10.707  17.706  33.7700  0.00  0.00     0.000 O
ATOM    148   S  IDS B   8      11.416  18.980  33.0590  0.00  0.00     0.000 S
ATOM    149   O  IDS B   8      11.313  20.101  33.9650  0.00  0.00     0.000 OA
ATOM    150   O  IDS B   8      12.788  18.575  32.8190  0.00  0.00     0.000 OA
ATOM    151   O  IDS B   8      10.666  19.201  31.8370  0.00  0.00     0.000 OA
ENDBRANCH 142 147
BRANCH 145 152
ATOM    152   C  IDS B   8       7.176  14.927  35.2780  0.00  0.00     0.000 C
ATOM    153   O  IDS B   8       6.721  14.999  34.1430  0.00  0.00     0.000 OA
ATOM    154   O  IDS B   8       6.754  14.103  36.0690  0.00  0.00     0.000 OA
ENDBRANCH 145 152
ENDBRANCH 140 144
ENDBRANCH 120 140
ENDBRANCH 119 123
ENDBRANCH 103 119
ENDBRANCH 102 106
ENDBRANCH 82 102
ENDBRANCH 81 85
ENDBRANCH 65 81
ENDBRANCH 64 68
ENDBRANCH 41 64
ENDBRANCH 40 44
ENDBRANCH 24 40
ENDBRANCH 23 27
ENDBRANCH 1 23
TORSDOF 31
ENDMDL
MODEL 60
REMARK VINA RESULT:      -6.9      8.427     12.324
ROOT
ATOM      1  C1  SGN B   1      28.195  10.840  14.3810  0.00  0.00     0.000 C
ATOM      2  C2  SGN B   1      29.506  10.446  15.0820  0.00  0.00     0.000 C
ATOM      3  C3  SGN B   1      30.184   9.283  14.3500  0.00  0.00     0.000 C
ATOM      4  C4  SGN B   1      29.224   8.104  14.2300  0.00  0.00     0.000 C
ATOM      5  C5  SGN B   1      27.897   8.598  13.6590  0.00  0.00     0.000 C
ATOM      6  O5  SGN B   1      27.391   9.672  14.4740  0.00  0.00     0.000 O
ATOM      7   O  SGN B   1      31.373   8.892  15.0260  0.00  0.00     0.000 O
ATOM      9  HD  SGN B   1      30.771   8.747  15.6310  0.00  0.00     0.000 HD
ATOM      9   O  SGN B   1      29.788   7.123  13.3800  0.00  0.00     0.000 O
ATOM     11  HD  SGN B   1      29.185   6.978  13.9850  0.00  0.00     0.000 HD
ENDROOT
BRANCH 2 13
ATOM     11   N  SGN B   1      29.327  11.493  16.1060  0.00  0.00     0.000 N
ATOM     13  HD  SGN B   1      29.526  11.705  15.2900  0.00  0.00     0.000 HD
ATOM     13   S  SGN B   1      30.086  12.909  16.0290  0.00  0.00     0.000 S
ATOM     14   O  SGN B   1      30.859  12.982  14.8520  0.00  0.00     0.000 OA
ATOM     15   O  SGN B   1      29.145  13.940  16.3130  0.00  0.00     0.000 OA
ATOM     16   O  SGN B   1      30.987  12.748  17.2920  0.00  0.00     0.000 OA
ENDBRANCH 2 13
BRANCH 5 17
ATOM     17   C  SGN B   1      26.824   7.539  13.5950  0.00  0.00     0.000 C
ATOM     18   O  SGN B   1      25.846   7.857  12.5850  0.00  0.00     0.000 O
ATOM     19   S  SGN B   1      24.315   7.678  13.0100  0.00  0.00     0.000 S
ATOM     20   O  SGN B   1      23.564   7.825  11.7810  0.00  0.00     0.000 OA
ATOM     21   O  SGN B   1      24.257   6.346  13.5670  0.00  0.00     0.000 OA
ATOM     22   O  SGN B   1      24.065   8.729  13.9720  0.00  0.00     0.000 OA
ENDBRANCH 5 17
BRANCH 1 23
ATOM     23  O4  IDS B   2      27.732  11.671  13.4040  0.00  0.00     0.000 O
BRANCH 23 27
ATOM     24  C1  IDS B   2      25.750  15.185  14.3800  0.00  0.00     0.000 C
ATOM     25  C2  IDS B   2      24.941  13.885  14.5830  0.00  0.00     0.000 C
ATOM     26  C3  IDS B   2      25.845  12.659  14.4840  0.00  0.00     0.000 C
ATOM     27  C4  IDS B   2      26.647  12.599  13.1910  0.00  0.00     0.000 C
ATOM     28  C5  IDS B   2      27.092  14.017  12.7800  0.00  0.00     0.000 C
ATOM     29  O5  IDS B   2      27.067  14.899  13.8920  0.00  0.00     0.000 O
ATOM     30   O  IDS B   2      25.047  11.483  14.5500  0.00  0.00     0.000 O
ATOM     32  HD  IDS B   2      24.657  11.292  13.8010  0.00  0.00     0.000 HD
BRANCH 25 32
ATOM     32   O  IDS B   2      24.270  13.842  15.9050  0.00  0.00     0.000 O
ATOM     33   S  IDS B   2      22.628  13.754  16.0470  0.00  0.00     0.000 S
ATOM     34   O  IDS B   2      22.332  13.958  17.4560  0.00  0.00     0.000 OA
ATOM     35   O  IDS B   2      22.015  14.785  15.2200  0.00  0.00     0.000 OA
ATOM     36   O  IDS B   2      22.270  12.421  15.6200  0.00  0.00     0.000 OA
ENDBRANCH 25 32
BRANCH 28 37
ATOM     37   C  IDS B   2      28.454  14.168  12.0710  0.00  0.00     0.000 C
ATOM     38   O  IDS B   2      28.426  13.799  10.9210  0.00  0.00     0.000 OA
ATOM     39   O  IDS B   2      29.501  14.671  12.5470  0.00  0.00     0.000 OA
ENDBRANCH 28 37
BRANCH 24 40
ATOM     40  O4  SUS B   3      25.116  16.376  14.3650  0.00  0.00     0.000 O
BRANCH 40 44
ATOM     41  C1  SUS B   3      26.357  20.129  15.7540  0.00  0.00     0.000 C
ATOM     42  C2  SUS B   3      27.140  19.519  14.5740  0.00  0.00     0.000 C
ATOM     43  C3  SUS B   3      26.289  18.440  13.9090  0.00  0.00     0.000 C
ATOM     44  C4  SUS B   3      25.870  17.426  14.9620  0.00  0.00     0.000 C
ATOM     45  C5  SUS B   3      25.034  18.127  16.0120  0.00  0.00     0.000 C
ATOM     46  O5  SUS B   3      25.855  19.128  16.6470  0.00  0.00     0.000 O
BRANCH 42 49
ATOM     47   N  SUS B   3      27.570  20.717  13.8320  0.00  0.00     0.000 N
ATOM     49  HD  SUS B   3      27.252  20.812  13.0320  0.00  0.00     0.000 HD
ATOM     49   S  SUS B   3      29.164  20.857  13.7540  0.00  0.00     0.000 S
ATOM     50   O  SUS B   3      29.717  19.706  13.1560  0.00  0.00     0.000 OA
ATOM     51   O  SUS B   3      29.191  22.051  12.7660  0.00  0.00     0.000 OA
ATOM     52   O  SUS B   3      29.662  21.241  15.0140  0.00  0.00     0.000 OA
ENDBRANCH 42 49
BRANCH 43 53
ATOM     53   O  SUS B   3      27.114  17.780  12.8780  0.00  0.00     0.000 O
ATOM     54   S  SUS B   3      26.726  18.071  11.3080  0.00  0.00     0.000 S
ATOM     55   O  SUS B   3      27.098  19.448  11.0140  0.00  0.00     0.000 OA
ATOM     56   O  SUS B   3      27.494  17.086  10.5670  0.00  0.00     0.000 OA
ATOM     57   O  SUS B   3      25.277  17.877  11.1960  0.00  0.00     0.000 OA
ENDBRANCH 43 53
BRANCH 45 58
ATOM     58   C  SUS B   3      24.494  17.162  17.0450  0.00  0.00     0.000 C
ATOM     59   S  SUS B   3      25.140  15.906  19.1870  0.00  0.00     0.000 S
ATOM     60   O  SUS B   3      25.438  17.039  18.1210  0.00  0.00     0.000 O
ATOM     61   O  SUS B   3      25.553  14.669  18.5520  0.00  0.00     0.000 OA
ATOM     62   O  SUS B   3      26.019  16.304  20.2540  0.00  0.00     0.000 OA
ATOM     63   O  SUS B   3      23.753  16.009  19.4730  0.00  0.00     0.000 OA
ENDBRANCH 45 58
BRANCH 41 64
ATOM     64  O4  IDS B   4      25.424  21.063  15.3750  0.00  0.00     0.000 O
BRANCH 64 68
ATOM     65  C1  IDS B   4      23.496  24.154  15.4260  0.00  0.00     0.000 C
ATOM     66  C2  IDS B   4      25.029  24.199  15.4560  0.00  0.00     0.000 C
ATOM     67  C3  IDS B   4      25.666  23.236  16.4440  0.00  0.00     0.000 C
ATOM     68  C4  IDS B   4      24.979  21.884  16.4770  0.00  0.00     0.000 C
ATOM     69  C5  IDS B   4      23.462  22.119  16.4900  0.00  0.00     0.000 C
ATOM     70  O5  IDS B   4      23.082  22.806  15.2950  0.00  0.00     0.000 O
ATOM     71   O  IDS B   4      25.596  23.838  17.7210  0.00  0.00     0.000 O
ATOM     73  HD  IDS B   4      25.576  23.823  16.8550  0.00  0.00     0.000 HD
BRANCH 66 73
ATOM     73   O  IDS B   4      25.540  23.801  14.1380  0.00  0.00     0.000 O
ATOM     74   S  IDS B   4      26.501  24.839  13.3520  0.00  0.00     0.000 S
ATOM     75   O  IDS B   4      25.758  26.075  13.2330  0.00  0.00     0.000 OA
ATOM     76   O  IDS B   4      26.712  24.158  12.1000  0.00  0.00     0.000 OA
ATOM     77   O  IDS B   4      27.685  24.961  14.1690  0.00  0.00     0.000 OA
ENDBRANCH 66 73
BRANCH 69 78
ATOM     78   C  IDS B   4      22.634  20.867  16.7430  0.00  0.00     0.000 C
ATOM     79   O  IDS B   4      22.817  20.237  17.7840  0.00  0.00     0.000 OA
ATOM     80   O  IDS B   4      21.725  20.581  15.9420  0.00  0.00     0.000 OA
ENDBRANCH 69 78
BRANCH 65 81
ATOM     81  O4  SGN B   5      23.001  24.847  16.4880  0.00  0.00     0.000 O
BRANCH 81 85
ATOM     82  C1  SGN B   5      19.512  26.764  17.8280  0.00  0.00     0.000 C
ATOM     83  C2  SGN B   5      19.782  25.350  18.3650  0.00  0.00     0.000 C
ATOM     84  C3  SGN B   5      21.263  24.999  18.1650  0.00  0.00     0.000 C
ATOM     85  C4  SGN B   5      21.622  25.159  16.6990  0.00  0.00     0.000 C
ATOM     86  C5  SGN B   5      21.334  26.601  16.2890  0.00  0.00     0.000 C
ATOM     87  O5  SGN B   5      19.931  26.865  16.4800  0.00  0.00     0.000 O
ATOM     88   O  SGN B   5      21.506  23.680  18.6040  0.00  0.00     0.000 O
ATOM     90  HD  SGN B   5      21.701  24.400  19.0450  0.00  0.00     0.000 HD
BRANCH 83 92
ATOM     90   N  SGN B   5      19.012  25.678  19.5810  0.00  0.00     0.000 N
ATOM     92  HD  SGN B   5      18.771  26.510  19.5810  0.00  0.00     0.000 HD
ATOM     92   S  SGN B   5      17.889  24.647  20.0600  0.00  0.00     0.000 S
ATOM     93   O  SGN B   5      17.335  25.247  21.2360  0.00  0.00     0.000 OA
ATOM     94   O  SGN B   5      17.067  24.416  18.9220  0.00  0.00     0.000 OA
ATOM     95   O  SGN B   5      18.640  23.364  20.3420  0.00  0.00     0.000 OA
ENDBRANCH 83 92
BRANCH 86 96
ATOM     96   C  SGN B   5      21.659  26.912  14.8430  0.00  0.00     0.000 C
ATOM     97   O  SGN B   5      20.670  26.353  13.9750  0.00  0.00     0.000 O
ATOM     98   S  SGN B   5      20.032  27.353  12.8950  0.00  0.00     0.000 S
ATOM     99   O  SGN B   5      19.251  26.467  12.0650  0.00  0.00     0.000 OA
ATOM    100   O  SGN B   5      19.276  28.320  13.6050  0.00  0.00     0.000 OA
ATOM    101   O  SGN B   5      21.158  27.912  12.2210  0.00  0.00     0.000 OA
ENDBRANCH 86 96
BRANCH 82 102
ATOM    102  O4  IDS B   6      20.103  27.733  18.5830  0.00  0.00     0.000 O
BRANCH 102 106
ATOM    103  C1  IDS B   6      20.068  30.711  20.6780  0.00  0.00     0.000 C
ATOM    104  C2  IDS B   6      18.988  29.629  20.8320  0.00  0.00     0.000 C
ATOM    105  C3  IDS B   6      18.366  29.151  19.5340  0.00  0.00     0.000 C
ATOM    106  C4  IDS B   6      19.387  28.984  18.4220  0.00  0.00     0.000 C
ATOM    107  C5  IDS B   6      20.355  30.170  18.4260  0.00  0.00     0.000 C
ATOM    108  O5  IDS B   6      21.004  30.324  19.6890  0.00  0.00     0.000 O
ATOM    109   O  IDS B   6      17.360  30.077  19.1600  0.00  0.00     0.000 O
ATOM    111  HD  IDS B   6      17.588  30.808  19.5650  0.00  0.00     0.000 HD
BRANCH 104 111
ATOM    111   O  IDS B   6      19.592  28.432  21.4370  0.00  0.00     0.000 O
ATOM    112   S  IDS B   6      19.244  28.102  22.9650  0.00  0.00     0.000 S
ATOM    113   O  IDS B   6      19.678  29.280  23.7010  0.00  0.00     0.000 OA
ATOM    114   O  IDS B   6      17.809  27.813  23.0610  0.00  0.00     0.000 OA
ATOM    115   O  IDS B   6      20.093  26.946  23.1540  0.00  0.00     0.000 OA
ENDBRANCH 104 111
BRANCH 107 116
ATOM    116   C  IDS B   6      21.395  29.975  17.3300  0.00  0.00     0.000 C
ATOM    117   O  IDS B   6      21.017  30.109  16.1940  0.00  0.00     0.000 OA
ATOM    118   O  IDS B   6      22.552  29.688  17.5960  0.00  0.00     0.000 OA
ENDBRANCH 107 116
BRANCH 103 119
ATOM    119  O4  SGN B   7      19.356  31.861  20.5650  0.00  0.00     0.000 O
BRANCH 119 123
ATOM    120  C1  SGN B   7      19.789  35.833  21.8020  0.00  0.00     0.000 C
ATOM    121  C2  SGN B   7      20.619  35.369  20.5900  0.00  0.00     0.000 C
ATOM    122  C3  SGN B   7      20.060  34.056  20.0270  0.00  0.00     0.000 C
ATOM    123  C4  SGN B   7      19.960  33.022  21.1370  0.00  0.00     0.000 C
ATOM    124  C5  SGN B   7      19.122  33.581  22.2980  0.00  0.00     0.000 C
ATOM    125  O5  SGN B   7      19.685  34.815  22.7970  0.00  0.00     0.000 O
ATOM    126   O  SGN B   7      20.911  33.604  18.9680  0.00  0.00     0.000 O
ATOM    128  HD  SGN B   7      20.695  34.236  19.5180  0.00  0.00     0.000 HD
BRANCH 121 130
ATOM    128   N  SGN B   7      21.622  36.436  20.6340  0.00  0.00     0.000 N
ATOM    130  HD  SGN B   7      22.135  35.985  20.1010  0.00  0.00     0.000 HD
ATOM    130   S  SGN B   7      21.882  37.422  19.3880  0.00  0.00     0.000 S
ATOM    131   O  SGN B   7      20.594  37.904  19.0190  0.00  0.00     0.000 OA
ATOM    132   O  SGN B   7      22.912  38.330  19.7440  0.00  0.00     0.000 OA
ATOM    133   O  SGN B   7      22.558  36.431  18.3810  0.00  0.00     0.000 OA
ENDBRANCH 121 130
BRANCH 124 134
ATOM    134   C  SGN B   7      19.062  32.677  23.4930  0.00  0.00     0.000 C
ATOM    135   O  SGN B   7      18.497  33.410  24.5940  0.00  0.00     0.000 O
ATOM    136   S  SGN B   7      18.206  32.592  25.9030  0.00  0.00     0.000 S
ATOM    137   O  SGN B   7      17.749  33.547  26.8850  0.00  0.00     0.000 OA
ATOM    138   O  SGN B   7      19.467  31.979  26.2550  0.00  0.00     0.000 OA
ATOM    139   O  SGN B   7      17.182  31.656  25.4660  0.00  0.00     0.000 OA
ENDBRANCH 124 134
BRANCH 120 140
ATOM    140  O4  IDS B   8      18.525  36.269  21.8160  0.00  0.00     0.000 O
BRANCH 140 144
ATOM    141  C1  IDS B   8      15.019  36.407  21.0080  0.00  0.00     0.000 C
ATOM    142  C2  IDS B   8      16.073  36.026  19.9300  0.00  0.00     0.000 C
ATOM    143  C3  IDS B   8      17.267  36.999  19.8830  0.00  0.00     0.000 C
ATOM    144  C4  IDS B   8      17.766  37.361  21.2810  0.00  0.00     0.000 C
ATOM    145  C5  IDS B   8      16.578  37.679  22.2020  0.00  0.00     0.000 C
ATOM    146  O5  IDS B   8      15.656  36.595  22.2660  0.00  0.00     0.000 O
BRANCH 142 147
ATOM    147   O  IDS B   8      16.618  34.675  20.2260  0.00  0.00     0.000 O
ATOM    148   S  IDS B   8      16.062  33.362  19.4520  0.00  0.00     0.000 S
ATOM    149   O  IDS B   8      14.806  33.718  18.8330  0.00  0.00     0.000 OA
ATOM    150   O  IDS B   8      17.088  33.019  18.4850  0.00  0.00     0.000 OA
ATOM    151   O  IDS B   8      15.892  32.356  20.4830  0.00  0.00     0.000 OA
ENDBRANCH 142 147
BRANCH 145 152
ATOM    152   C  IDS B   8      17.004  37.950  23.6310  0.00  0.00     0.000 C
ATOM    153   O  IDS B   8      16.588  37.231  24.5320  0.00  0.00     0.000 OA
ATOM    154   O  IDS B   8      17.772  38.866  23.8670  0.00  0.00     0.000 OA
ENDBRANCH 145 152
ENDBRANCH 140 144
ENDBRANCH 120 140
ENDBRANCH 119 123
ENDBRANCH 103 119
ENDBRANCH 102 106
ENDBRANCH 82 102
ENDBRANCH 81 85
ENDBRANCH 65 81
ENDBRANCH 64 68
ENDBRANCH 41 64
ENDBRANCH 40 44
ENDBRANCH 24 40
ENDBRANCH 23 27
ENDBRANCH 1 23
TORSDOF 31
ENDMDL
MODEL 61
REMARK VINA RESULT:      -6.9      9.327     13.235
ROOT
ATOM      1  C1  SGN B   1      25.538  17.863  12.0750  0.00  0.00     0.000 C
ATOM      2  C2  SGN B   1      24.284  16.987  11.9170  0.00  0.00     0.000 C
ATOM      3  C3  SGN B   1      23.985  16.230  13.2150  0.00  0.00     0.000 C
ATOM      4  C4  SGN B   1      25.201  15.414  13.6410  0.00  0.00     0.000 C
ATOM      5  C5  SGN B   1      26.433  16.316  13.6390  0.00  0.00     0.000 C
ATOM      6  O5  SGN B   1      26.577  16.932  12.3450  0.00  0.00     0.000 O
ATOM      7   O  SGN B   1      22.851  15.386  13.0520  0.00  0.00     0.000 O
ATOM      9  HD  SGN B   1      23.397  15.063  12.4630  0.00  0.00     0.000 HD
ATOM      9   O  SGN B   1      24.984  14.887  14.9380  0.00  0.00     0.000 O
ATOM     11  HD  SGN B   1      25.530  14.564  14.3490  0.00  0.00     0.000 HD
ENDROOT
BRANCH 2 13
ATOM     11   N  SGN B   1      23.789  17.215  10.5470  0.00  0.00     0.000 N
ATOM     13  HD  SGN B   1      24.027  17.882  11.0450  0.00  0.00     0.000 HD
ATOM     13   S  SGN B   1      23.041  18.574  10.1190  0.00  0.00     0.000 S
ATOM     14   O  SGN B   1      22.999  19.469  11.2080  0.00  0.00     0.000 OA
ATOM     15   O  SGN B   1      23.579  19.011   8.8740  0.00  0.00     0.000 OA
ATOM     16   O  SGN B   1      21.633  17.971   9.8250  0.00  0.00     0.000 OA
ENDBRANCH 2 13
BRANCH 5 17
ATOM     17   C  SGN B   1      27.723  15.595  13.9400  0.00  0.00     0.000 C
ATOM     18   O  SGN B   1      27.952  14.532  12.9930  0.00  0.00     0.000 O
ATOM     19   S  SGN B   1      28.425  13.134  13.6080  0.00  0.00     0.000 S
ATOM     20   O  SGN B   1      28.806  12.331  12.4660  0.00  0.00     0.000 OA
ATOM     21   O  SGN B   1      29.535  13.484  14.4650  0.00  0.00     0.000 OA
ATOM     22   O  SGN B   1      27.273  12.624  14.3170  0.00  0.00     0.000 OA
ENDBRANCH 5 17
BRANCH 1 23
ATOM     23  O4  IDS B   2      25.903  19.120  12.4570  0.00  0.00     0.000 O
BRANCH 23 27
ATOM     24  C1  IDS B   2      26.062  19.783  16.5520  0.00  0.00     0.000 C
ATOM     25  C2  IDS B   2      24.671  19.954  15.9020  0.00  0.00     0.000 C
ATOM     26  C3  IDS B   2      24.663  19.405  14.4780  0.00  0.00     0.000 C
ATOM     27  C4  IDS B   2      25.749  19.999  13.5910  0.00  0.00     0.000 C
ATOM     28  C5  IDS B   2      27.037  20.217  14.4100  0.00  0.00     0.000 C
ATOM     29  O5  IDS B   2      27.041  19.406  15.5750  0.00  0.00     0.000 O
ATOM     30   O  IDS B   2      23.408  19.693  13.8720  0.00  0.00     0.000 O
ATOM     32  HD  IDS B   2      23.344  20.509  13.5900  0.00  0.00     0.000 HD
BRANCH 25 32
ATOM     32   O  IDS B   2      23.607  19.251  16.6600  0.00  0.00     0.000 O
ATOM     33   S  IDS B   2      22.400  20.071  17.4310  0.00  0.00     0.000 S
ATOM     34   O  IDS B   2      21.693  19.087  18.2360  0.00  0.00     0.000 OA
ATOM     35   O  IDS B   2      22.978  21.120  18.2580  0.00  0.00     0.000 OA
ATOM     36   O  IDS B   2      21.555  20.597  16.3830  0.00  0.00     0.000 OA
ENDBRANCH 25 32
BRANCH 28 37
ATOM     37   C  IDS B   2      28.389  20.036  13.6880  0.00  0.00     0.000 C
ATOM     38   O  IDS B   2      28.807  21.066  13.2140  0.00  0.00     0.000 OA
ATOM     39   O  IDS B   2      29.072  18.985  13.6180  0.00  0.00     0.000 OA
ENDBRANCH 28 37
BRANCH 24 40
ATOM     40  O4  SUS B   3      26.290  20.269  17.7900  0.00  0.00     0.000 O
BRANCH 40 44
ATOM     41  C1  SUS B   3      28.766  18.738  20.8020  0.00  0.00     0.000 C
ATOM     42  C2  SUS B   3      29.359  19.830  19.8890  0.00  0.00     0.000 C
ATOM     43  C3  SUS B   3      28.222  20.587  19.2060  0.00  0.00     0.000 C
ATOM     44  C4  SUS B   3      27.333  19.590  18.4800  0.00  0.00     0.000 C
ATOM     45  C5  SUS B   3      26.741  18.632  19.4940  0.00  0.00     0.000 C
ATOM     46  O5  SUS B   3      27.823  17.908  20.1150  0.00  0.00     0.000 O
BRANCH 42 49
ATOM     47   N  SUS B   3      30.689  19.933  19.2640  0.00  0.00     0.000 N
ATOM     49  HD  SUS B   3      30.982  19.226  18.8590  0.00  0.00     0.000 HD
ATOM     49   S  SUS B   3      31.818  20.422  20.2910  0.00  0.00     0.000 S
ATOM     50   O  SUS B   3      31.878  19.542  21.3910  0.00  0.00     0.000 OA
ATOM     51   O  SUS B   3      33.027  20.200  19.3470  0.00  0.00     0.000 OA
ATOM     52   O  SUS B   3      31.642  21.793  20.5600  0.00  0.00     0.000 OA
ENDBRANCH 42 49
BRANCH 43 53
ATOM     53   O  SUS B   3      28.819  21.526  18.2370  0.00  0.00     0.000 O
ATOM     54   S  SUS B   3      28.498  23.124  18.4460  0.00  0.00     0.000 S
ATOM     55   O  SUS B   3      29.226  23.565  19.6280  0.00  0.00     0.000 OA
ATOM     56   O  SUS B   3      28.956  23.740  17.2130  0.00  0.00     0.000 OA
ATOM     57   O  SUS B   3      27.050  23.234  18.6440  0.00  0.00     0.000 OA
ENDBRANCH 43 53
BRANCH 45 58
ATOM     58   C  SUS B   3      25.763  17.668  18.8590  0.00  0.00     0.000 C
ATOM     59   S  SUS B   3      25.076  15.196  18.8270  0.00  0.00     0.000 S
ATOM     60   O  SUS B   3      25.870  16.388  19.5030  0.00  0.00     0.000 O
ATOM     61   O  SUS B   3      25.882  14.800  17.6880  0.00  0.00     0.000 OA
ATOM     62   O  SUS B   3      25.097  14.225  19.8870  0.00  0.00     0.000 OA
ATOM     63   O  SUS B   3      23.795  15.723  18.5110  0.00  0.00     0.000 OA
ENDBRANCH 45 58
BRANCH 41 64
ATOM     64  O4  IDS B   4      28.321  19.211  22.0120  0.00  0.00     0.000 O
BRANCH 64 68
ATOM     65  C1  IDS B   4      28.489  19.747  25.6120  0.00  0.00     0.000 C
ATOM     66  C2  IDS B   4      29.769  19.768  24.7680  0.00  0.00     0.000 C
ATOM     67  C3  IDS B   4      29.888  18.620  23.7790  0.00  0.00     0.000 C
ATOM     68  C4  IDS B   4      28.574  18.290  23.0970  0.00  0.00     0.000 C
ATOM     69  C5  IDS B   4      27.470  18.285  24.1630  0.00  0.00     0.000 C
ATOM     70  O5  IDS B   4      27.377  19.585  24.7510  0.00  0.00     0.000 O
ATOM     71   O  IDS B   4      30.348  17.494  24.4980  0.00  0.00     0.000 O
ATOM     73  HD  IDS B   4      30.202  18.337  24.3650  0.00  0.00     0.000 HD
BRANCH 66 73
ATOM     73   O  IDS B   4      29.777  20.989  23.9510  0.00  0.00     0.000 O
ATOM     74   S  IDS B   4      30.886  22.118  24.2870  0.00  0.00     0.000 S
ATOM     75   O  IDS B   4      30.708  22.466  25.6810  0.00  0.00     0.000 OA
ATOM     76   O  IDS B   4      30.526  23.169  23.3690  0.00  0.00     0.000 OA
ATOM     77   O  IDS B   4      32.161  21.500  24.0110  0.00  0.00     0.000 OA
ENDBRANCH 66 73
BRANCH 69 78
ATOM     78   C  IDS B   4      26.128  17.756  23.6770  0.00  0.00     0.000 C
ATOM     79   O  IDS B   4      26.113  16.937  22.7600  0.00  0.00     0.000 OA
ATOM     80   O  IDS B   4      25.098  18.088  24.2930  0.00  0.00     0.000 OA
ENDBRANCH 69 78
BRANCH 65 81
ATOM     81  O4  SGN B   5      28.624  18.837  26.6170  0.00  0.00     0.000 O
BRANCH 81 85
ATOM     82  C1  SGN B   5      27.605  18.064  30.6170  0.00  0.00     0.000 C
ATOM     83  C2  SGN B   5      26.552  17.725  29.5510  0.00  0.00     0.000 C
ATOM     84  C3  SGN B   5      27.228  17.623  28.1770  0.00  0.00     0.000 C
ATOM     85  C4  SGN B   5      27.976  18.912  27.8890  0.00  0.00     0.000 C
ATOM     86  C5  SGN B   5      29.004  19.128  28.9970  0.00  0.00     0.000 C
ATOM     87  O5  SGN B   5      28.311  19.236  30.2550  0.00  0.00     0.000 O
ATOM     88   O  SGN B   5      26.259  17.368  27.1830  0.00  0.00     0.000 O
ATOM     90  HD  SGN B   5      26.791  16.779  27.5280  0.00  0.00     0.000 HD
BRANCH 83 92
ATOM     90   N  SGN B   5      25.244  17.952  30.1970  0.00  0.00     0.000 N
ATOM     92  HD  SGN B   5      24.784  18.545  29.7660  0.00  0.00     0.000 HD
ATOM     92   S  SGN B   5      24.416  16.676  30.6850  0.00  0.00     0.000 S
ATOM     93   O  SGN B   5      23.220  17.224  31.2500  0.00  0.00     0.000 OA
ATOM     94   O  SGN B   5      24.341  15.810  29.5590  0.00  0.00     0.000 OA
ATOM     95   O  SGN B   5      25.308  16.007  31.7090  0.00  0.00     0.000 OA
ENDBRANCH 83 92
BRANCH 86 96
ATOM     96   C  SGN B   5      29.839  20.381  28.8340  0.00  0.00     0.000 C
ATOM     97   O  SGN B   5      29.721  21.217  29.9870  0.00  0.00     0.000 O
ATOM     98   S  SGN B   5      31.098  21.714  30.6430  0.00  0.00     0.000 S
ATOM     99   O  SGN B   5      30.654  22.674  31.6250  0.00  0.00     0.000 OA
ATOM    100   O  SGN B   5      31.750  20.574  31.1810  0.00  0.00     0.000 OA
ATOM    101   O  SGN B   5      31.814  22.304  29.5590  0.00  0.00     0.000 OA
ENDBRANCH 86 96
BRANCH 82 102
ATOM    102  O4  IDS B   6      28.472  17.037  30.8420  0.00  0.00     0.000 O
BRANCH 102 106
ATOM    103  C1  IDS B   6      30.635  15.193  33.1180  0.00  0.00     0.000 C
ATOM    104  C2  IDS B   6      29.388  15.926  33.6390  0.00  0.00     0.000 C
ATOM    105  C3  IDS B   6      29.222  17.347  33.1380  0.00  0.00     0.000 C
ATOM    106  C4  IDS B   6      29.572  17.496  31.6680  0.00  0.00     0.000 C
ATOM    107  C5  IDS B   6      30.850  16.711  31.3590  0.00  0.00     0.000 C
ATOM    108  O5  IDS B   6      30.728  15.333  31.7130  0.00  0.00     0.000 O
ATOM    109   O  IDS B   6      30.031  18.194  33.9380  0.00  0.00     0.000 O
ATOM    111  HD  IDS B   6      30.634  17.663  34.2590  0.00  0.00     0.000 HD
BRANCH 104 111
ATOM    111   O  IDS B   6      28.187  15.210  33.1820  0.00  0.00     0.000 O
ATOM    112   S  IDS B   6      27.321  14.420  34.2730  0.00  0.00     0.000 S
ATOM    113   O  IDS B   6      28.250  13.467  34.8580  0.00  0.00     0.000 OA
ATOM    114   O  IDS B   6      26.765  15.395  35.2190  0.00  0.00     0.000 OA
ATOM    115   O  IDS B   6      26.336  13.820  33.3990  0.00  0.00     0.000 OA
ENDBRANCH 104 111
BRANCH 107 116
ATOM    116   C  IDS B   6      31.173  16.837  29.8760  0.00  0.00     0.000 C
ATOM    117   O  IDS B   6      32.014  17.645  29.5710  0.00  0.00     0.000 OA
ATOM    118   O  IDS B   6      30.598  16.157  29.0410  0.00  0.00     0.000 OA
ENDBRANCH 107 116
BRANCH 103 119
ATOM    119  O4  SGN B   7      31.627  15.626  33.9380  0.00  0.00     0.000 O
BRANCH 119 123
ATOM    120  C1  SGN B   7      35.272  14.137  35.3460  0.00  0.00     0.000 C
ATOM    121  C2  SGN B   7      35.201  14.568  33.8690  0.00  0.00     0.000 C
ATOM    122  C3  SGN B   7      33.965  15.444  33.6240  0.00  0.00     0.000 C
ATOM    123  C4  SGN B   7      32.720  14.725  34.1170  0.00  0.00     0.000 C
ATOM    124  C5  SGN B   7      32.893  14.332  35.5930  0.00  0.00     0.000 C
ATOM    125  O5  SGN B   7      34.066  13.508  35.7770  0.00  0.00     0.000 O
ATOM    126   O  SGN B   7      33.876  15.743  32.2260  0.00  0.00     0.000 O
ATOM    128  HD  SGN B   7      34.341  15.417  32.8810  0.00  0.00     0.000 HD
BRANCH 121 130
ATOM    128   N  SGN B   7      36.368  13.822  33.3920  0.00  0.00     0.000 N
ATOM    130  HD  SGN B   7      36.121  13.946  32.5720  0.00  0.00     0.000 HD
ATOM    130   S  SGN B   7      37.625  14.548  32.6940  0.00  0.00     0.000 S
ATOM    131   O  SGN B   7      37.981  15.606  33.5760  0.00  0.00     0.000 OA
ATOM    132   O  SGN B   7      38.576  13.555  32.3440  0.00  0.00     0.000 OA
ATOM    133   O  SGN B   7      36.981  14.977  31.3320  0.00  0.00     0.000 OA
ENDBRANCH 121 130
BRANCH 124 134
ATOM    134   C  SGN B   7      31.761  13.514  36.1400  0.00  0.00     0.000 C
ATOM    135   O  SGN B   7      32.224  12.168  36.3410  0.00  0.00     0.000 O
ATOM    136   S  SGN B   7      31.229  11.184  37.0550  0.00  0.00     0.000 S
ATOM    137   O  SGN B   7      31.864   9.888  37.0490  0.00  0.00     0.000 OA
ATOM    138   O  SGN B   7      30.022  11.225  36.2610  0.00  0.00     0.000 OA
ATOM    139   O  SGN B   7      31.100  11.775  38.3780  0.00  0.00     0.000 OA
ENDBRANCH 124 134
BRANCH 120 140
ATOM    140  O4  IDS B   8      35.502  14.904  36.4170  0.00  0.00     0.000 O
BRANCH 140 144
ATOM    141  C1  IDS B   8      35.306  17.762  38.5990  0.00  0.00     0.000 C
ATOM    142  C2  IDS B   8      35.345  17.936  37.0540  0.00  0.00     0.000 C
ATOM    143  C3  IDS B   8      36.466  17.122  36.3820  0.00  0.00     0.000 C
ATOM    144  C4  IDS B   8      36.564  15.707  36.9480  0.00  0.00     0.000 C
ATOM    145  C5  IDS B   8      36.483  15.743  38.4820  0.00  0.00     0.000 C
ATOM    146  O5  IDS B   8      35.289  16.379  38.9310  0.00  0.00     0.000 O
BRANCH 142 147
ATOM    147   O  IDS B   8      34.057  17.476  36.4710  0.00  0.00     0.000 O
ATOM    148   S  IDS B   8      32.920  18.538  36.0120  0.00  0.00     0.000 S
ATOM    149   O  IDS B   8      33.236  19.809  36.6210  0.00  0.00     0.000 OA
ATOM    150   O  IDS B   8      32.989  18.576  34.5630  0.00  0.00     0.000 OA
ATOM    151   O  IDS B   8      31.669  17.996  36.5070  0.00  0.00     0.000 OA
ENDBRANCH 142 147
BRANCH 145 152
ATOM    152   C  IDS B   8      36.475  14.358  39.0980  0.00  0.00     0.000 C
ATOM    153   O  IDS B   8      37.398  13.587  38.8620  0.00  0.00     0.000 OA
ATOM    154   O  IDS B   8      35.563  14.034  39.8370  0.00  0.00     0.000 OA
ENDBRANCH 145 152
ENDBRANCH 140 144
ENDBRANCH 120 140
ENDBRANCH 119 123
ENDBRANCH 103 119
ENDBRANCH 102 106
ENDBRANCH 82 102
ENDBRANCH 81 85
ENDBRANCH 65 81
ENDBRANCH 64 68
ENDBRANCH 41 64
ENDBRANCH 40 44
ENDBRANCH 24 40
ENDBRANCH 23 27
ENDBRANCH 1 23
TORSDOF 31
ENDMDL
MODEL 62
REMARK VINA RESULT:      -6.9      7.309     20.887
ROOT
ATOM      1  C1  SGN B   1      26.515  16.836  33.0120  0.00  0.00     0.000 C
ATOM      2  C2  SGN B   1      26.737  15.795  34.1220  0.00  0.00     0.000 C
ATOM      3  C3  SGN B   1      25.418  15.111  34.4960  0.00  0.00     0.000 C
ATOM      4  C4  SGN B   1      24.377  16.154  34.8920  0.00  0.00     0.000 C
ATOM      5  C5  SGN B   1      24.313  17.230  33.8100  0.00  0.00     0.000 C
ATOM      6  O5  SGN B   1      25.627  17.779  33.5980  0.00  0.00     0.000 O
ATOM      7   O  SGN B   1      25.619  14.181  35.5530  0.00  0.00     0.000 O
ATOM      9  HD  SGN B   1      25.856  14.925  35.9260  0.00  0.00     0.000 HD
ATOM      9   O  SGN B   1      23.115  15.528  35.0350  0.00  0.00     0.000 O
ATOM     11  HD  SGN B   1      23.352  16.273  35.4080  0.00  0.00     0.000 HD
ENDROOT
BRANCH 2 13
ATOM     11   N  SGN B   1      28.190  15.926  34.3390  0.00  0.00     0.000 N
ATOM     13  HD  SGN B   1      27.877  15.756  33.5500  0.00  0.00     0.000 HD
ATOM     13   S  SGN B   1      29.268  15.158  33.4250  0.00  0.00     0.000 S
ATOM     14   O  SGN B   1      28.614  14.429  32.4110  0.00  0.00     0.000 OA
ATOM     15   O  SGN B   1      30.297  16.079  33.0730  0.00  0.00     0.000 OA
ATOM     16   O  SGN B   1      29.853  14.212  34.5180  0.00  0.00     0.000 OA
ENDBRANCH 2 13
BRANCH 5 17
ATOM     17   C  SGN B   1      23.393  18.379  34.1410  0.00  0.00     0.000 C
ATOM     18   O  SGN B   1      23.526  18.762  35.5250  0.00  0.00     0.000 O
ATOM     19   S  SGN B   1      22.160  19.011  36.3180  0.00  0.00     0.000 S
ATOM     20   O  SGN B   1      22.560  19.601  37.5780  0.00  0.00     0.000 OA
ATOM     21   O  SGN B   1      21.418  19.913  35.4680  0.00  0.00     0.000 OA
ATOM     22   O  SGN B   1      21.559  17.703  36.4550  0.00  0.00     0.000 OA
ENDBRANCH 5 17
BRANCH 1 23
ATOM     23  O4  IDS B   2      26.504  16.941  31.6530  0.00  0.00     0.000 O
BRANCH 23 27
ATOM     24  C1  IDS B   2      26.856  17.991  27.6520  0.00  0.00     0.000 C
ATOM     25  C2  IDS B   2      28.154  18.087  28.4840  0.00  0.00     0.000 C
ATOM     26  C3  IDS B   2      27.986  17.405  29.8390  0.00  0.00     0.000 C
ATOM     27  C4  IDS B   2      26.796  17.922  30.6360  0.00  0.00     0.000 C
ATOM     28  C5  IDS B   2      25.619  18.227  29.6880  0.00  0.00     0.000 C
ATOM     29  O5  IDS B   2      25.764  17.531  28.4590  0.00  0.00     0.000 O
ATOM     30   O  IDS B   2      29.154  17.623  30.6210  0.00  0.00     0.000 O
ATOM     32  HD  IDS B   2      29.180  18.408  30.9860  0.00  0.00     0.000 HD
BRANCH 25 32
ATOM     32   O  IDS B   2      29.307  17.450  27.8010  0.00  0.00     0.000 O
ATOM     33   S  IDS B   2      29.544  15.817  27.8320  0.00  0.00     0.000 S
ATOM     34   O  IDS B   2      30.864  15.590  27.2650  0.00  0.00     0.000 OA
ATOM     35   O  IDS B   2      29.466  15.342  29.2060  0.00  0.00     0.000 OA
ATOM     36   O  IDS B   2      28.509  15.257  26.9950  0.00  0.00     0.000 OA
ENDBRANCH 25 32
BRANCH 28 37
ATOM     37   C  IDS B   2      24.189  17.990  30.2150  0.00  0.00     0.000 C
ATOM     38   O  IDS B   2      23.593  19.020  30.4280  0.00  0.00     0.000 OA
ATOM     39   O  IDS B   2      23.613  16.885  30.3660  0.00  0.00     0.000 OA
ENDBRANCH 28 37
BRANCH 24 40
ATOM     40  O4  SUS B   3      26.782  18.594  26.4480  0.00  0.00     0.000 O
BRANCH 40 44
ATOM     41  C1  SUS B   3      26.077  16.968  22.6520  0.00  0.00     0.000 C
ATOM     42  C2  SUS B   3      25.003  16.729  23.7320  0.00  0.00     0.000 C
ATOM     43  C3  SUS B   3      25.175  17.756  24.8490  0.00  0.00     0.000 C
ATOM     44  C4  SUS B   3      26.602  17.683  25.3690  0.00  0.00     0.000 C
ATOM     45  C5  SUS B   3      27.553  18.025  24.2410  0.00  0.00     0.000 C
ATOM     46  O5  SUS B   3      27.397  17.036  23.2040  0.00  0.00     0.000 O
BRANCH 42 49
ATOM     47   N  SUS B   3      24.615  15.449  23.1150  0.00  0.00     0.000 N
ATOM     49  HD  SUS B   3      24.940  15.284  22.3290  0.00  0.00     0.000 HD
ATOM     49   S  SUS B   3      23.026  15.252  23.0480  0.00  0.00     0.000 S
ATOM     50   O  SUS B   3      22.440  16.318  22.3370  0.00  0.00     0.000 OA
ATOM     51   O  SUS B   3      23.041  13.963  22.1870  0.00  0.00     0.000 OA
ATOM     52   O  SUS B   3      22.535  14.982  24.3410  0.00  0.00     0.000 OA
ENDBRANCH 42 49
BRANCH 43 53
ATOM     53   O  SUS B   3      24.229  17.416  25.9290  0.00  0.00     0.000 O
ATOM     54   S  SUS B   3      22.964  18.438  26.1670  0.00  0.00     0.000 S
ATOM     55   O  SUS B   3      22.053  18.274  25.0430  0.00  0.00     0.000 OA
ATOM     56   O  SUS B   3      22.405  18.016  27.4400  0.00  0.00     0.000 OA
ATOM     57   O  SUS B   3      23.525  19.792  26.2030  0.00  0.00     0.000 OA
ENDBRANCH 43 53
BRANCH 45 58
ATOM     58   C  SUS B   3      28.992  18.071  24.7070  0.00  0.00     0.000 C
ATOM     59   S  SUS B   3      31.059  19.591  24.7760  0.00  0.00     0.000 S
ATOM     60   O  SUS B   3      29.504  19.404  24.5420  0.00  0.00     0.000 O
ATOM     61   O  SUS B   3      31.686  19.095  23.5660  0.00  0.00     0.000 OA
ATOM     62   O  SUS B   3      31.142  21.021  24.8980  0.00  0.00     0.000 OA
ATOM     63   O  SUS B   3      31.356  18.861  25.9570  0.00  0.00     0.000 OA
ENDBRANCH 45 58
BRANCH 41 64
ATOM     64  O4  IDS B   4      25.775  17.994  21.7890  0.00  0.00     0.000 O
BRANCH 64 68
ATOM     65  C1  IDS B   4      25.494  19.884  18.6870  0.00  0.00     0.000 C
ATOM     66  C2  IDS B   4      24.844  18.500  18.8100  0.00  0.00     0.000 C
ATOM     67  C3  IDS B   4      25.742  17.437  19.4190  0.00  0.00     0.000 C
ATOM     68  C4  IDS B   4      26.567  17.957  20.5810  0.00  0.00     0.000 C
ATOM     69  C5  IDS B   4      27.142  19.323  20.1850  0.00  0.00     0.000 C
ATOM     70  O5  IDS B   4      26.066  20.231  19.9350  0.00  0.00     0.000 O
ATOM     71   O  IDS B   4      26.598  16.974  18.3950  0.00  0.00     0.000 O
ATOM     73  HD  IDS B   4      25.900  17.372  18.7180  0.00  0.00     0.000 HD
BRANCH 66 73
ATOM     73   O  IDS B   4      23.687  18.599  19.7110  0.00  0.00     0.000 O
ATOM     74   S  IDS B   4      22.210  18.457  19.0670  0.00  0.00     0.000 S
ATOM     75   O  IDS B   4      22.112  19.470  18.0380  0.00  0.00     0.000 OA
ATOM     76   O  IDS B   4      21.365  18.697  20.2100  0.00  0.00     0.000 OA
ATOM     77   O  IDS B   4      22.142  17.110  18.5510  0.00  0.00     0.000 OA
ENDBRANCH 66 73
BRANCH 69 78
ATOM     78   C  IDS B   4      28.172  19.879  21.1590  0.00  0.00     0.000 C
ATOM     79   O  IDS B   4      27.838  20.786  21.9190  0.00  0.00     0.000 OA
ATOM     80   O  IDS B   4      29.286  19.327  21.2270  0.00  0.00     0.000 OA
ENDBRANCH 69 78
BRANCH 65 81
ATOM     81  O4  SGN B   5      26.322  19.901  17.6060  0.00  0.00     0.000 O
BRANCH 81 85
ATOM     82  C1  SGN B   5      27.843  22.375  14.5720  0.00  0.00     0.000 C
ATOM     83  C2  SGN B   5      28.546  22.432  15.9370  0.00  0.00     0.000 C
ATOM     84  C3  SGN B   5      28.190  21.180  16.7500  0.00  0.00     0.000 C
ATOM     85  C4  SGN B   5      26.680  21.067  16.8610  0.00  0.00     0.000 C
ATOM     86  C5  SGN B   5      26.099  20.995  15.4510  0.00  0.00     0.000 C
ATOM     87  O5  SGN B   5      26.449  22.202  14.7450  0.00  0.00     0.000 O
ATOM     88   O  SGN B   5      28.786  21.251  18.0270  0.00  0.00     0.000 O
ATOM     90  HD  SGN B   5      29.078  20.779  17.3620  0.00  0.00     0.000 HD
BRANCH 83 92
ATOM     90   N  SGN B   5      29.941  22.672  15.5200  0.00  0.00     0.000 N
ATOM     92  HD  SGN B   5      30.081  22.377  14.7170  0.00  0.00     0.000 HD
ATOM     92   S  SGN B   5      30.585  24.099  15.8380  0.00  0.00     0.000 S
ATOM     93   O  SGN B   5      31.914  24.014  15.3110  0.00  0.00     0.000 OA
ATOM     94   O  SGN B   5      29.673  25.059  15.3180  0.00  0.00     0.000 OA
ATOM     95   O  SGN B   5      30.547  24.211  17.3460  0.00  0.00     0.000 OA
ENDBRANCH 83 92
BRANCH 86 96
ATOM     96   C  SGN B   5      24.591  20.868  15.4060  0.00  0.00     0.000 C
ATOM     97   O  SGN B   5      24.133  20.792  14.0540  0.00  0.00     0.000 O
ATOM     98   S  SGN B   5      23.141  19.580  13.7110  0.00  0.00     0.000 S
ATOM     99   O  SGN B   5      22.710  19.892  12.3690  0.00  0.00     0.000 OA
ATOM    100   O  SGN B   5      23.883  18.376  13.8290  0.00  0.00     0.000 OA
ATOM    101   O  SGN B   5      22.100  19.688  14.6800  0.00  0.00     0.000 OA
ENDBRANCH 86 96
BRANCH 82 102
ATOM    102  O4  IDS B   6      28.345  21.400  13.7630  0.00  0.00     0.000 O
BRANCH 102 106
ATOM    103  C1  IDS B   6      30.338  20.421  10.8770  0.00  0.00     0.000 C
ATOM    104  C2  IDS B   6      30.681  21.688  11.6760  0.00  0.00     0.000 C
ATOM    105  C3  IDS B   6      29.504  22.593  11.9830  0.00  0.00     0.000 C
ATOM    106  C4  IDS B   6      28.257  21.819  12.3770  0.00  0.00     0.000 C
ATOM    107  C5  IDS B   6      28.085  20.611  11.4530  0.00  0.00     0.000 C
ATOM    108  O5  IDS B   6      29.233  19.761  11.4660  0.00  0.00     0.000 O
ATOM    109   O  IDS B   6      29.257  23.399  10.8430  0.00  0.00     0.000 O
ATOM    111  HD  IDS B   6      29.603  22.948  10.1900  0.00  0.00     0.000 HD
BRANCH 104 111
ATOM    111   O  IDS B   6      31.223  21.297  12.9860  0.00  0.00     0.000 O
ATOM    112   S  IDS B   6      32.813  21.198  13.1440  0.00  0.00     0.000 S
ATOM    113   O  IDS B   6      33.220  20.219  12.1480  0.00  0.00     0.000 OA
ATOM    114   O  IDS B   6      33.383  22.537  12.9550  0.00  0.00     0.000 OA
ATOM    115   O  IDS B   6      32.883  20.714  14.5060  0.00  0.00     0.000 OA
ENDBRANCH 104 111
BRANCH 107 116
ATOM    116   C  IDS B   6      26.853  19.822  11.8790  0.00  0.00     0.000 C
ATOM    117   O  IDS B   6      25.813  20.110  11.3420  0.00  0.00     0.000 OA
ATOM    118   O  IDS B   6      26.921  18.950  12.7300  0.00  0.00     0.000 OA
ENDBRANCH 107 116
BRANCH 103 119
ATOM    119  O4  SGN B   7      30.300  20.852   9.5900  0.00  0.00     0.000 O
BRANCH 119 123
ATOM    120  C1  SGN B   7      31.031  19.100   5.8640  0.00  0.00     0.000 C
ATOM    121  C2  SGN B   7      29.567  19.198   6.3310  0.00  0.00     0.000 C
ATOM    122  C3  SGN B   7      29.436  20.200   7.4860  0.00  0.00     0.000 C
ATOM    123  C4  SGN B   7      30.412  19.836   8.5930  0.00  0.00     0.000 C
ATOM    124  C5  SGN B   7      31.839  19.757   8.0270  0.00  0.00     0.000 C
ATOM    125  O5  SGN B   7      31.915  18.803   6.9440  0.00  0.00     0.000 O
ATOM    126   O  SGN B   7      28.084  20.193   7.9580  0.00  0.00     0.000 O
ATOM    128  HD  SGN B   7      28.654  19.944   7.3550  0.00  0.00     0.000 HD
BRANCH 121 130
ATOM    128   N  SGN B   7      29.242  18.370   5.1670  0.00  0.00     0.000 N
ATOM    130  HD  SGN B   7      28.685  17.908   5.6420  0.00  0.00     0.000 HD
ATOM    130   S  SGN B   7      27.840  18.496   4.3860  0.00  0.00     0.000 S
ATOM    131   O  SGN B   7      27.685  19.886   4.1220  0.00  0.00     0.000 OA
ATOM    132   O  SGN B   7      27.835  17.559   3.3220  0.00  0.00     0.000 OA
ATOM    133   O  SGN B   7      26.868  17.887   5.4530  0.00  0.00     0.000 OA
ENDBRANCH 121 130
BRANCH 124 134
ATOM    134   C  SGN B   7      32.862  19.291   9.0210  0.00  0.00     0.000 C
ATOM    135   O  SGN B   7      34.006  18.798   8.3030  0.00  0.00     0.000 O
ATOM    136   S  SGN B   7      35.257  18.403   9.1680  0.00  0.00     0.000 S
ATOM    137   O  SGN B   7      36.224  17.847   8.2520  0.00  0.00     0.000 OA
ATOM    138   O  SGN B   7      34.765  17.437  10.1240  0.00  0.00     0.000 OA
ATOM    139   O  SGN B   7      35.653  19.677   9.7470  0.00  0.00     0.000 OA
ENDBRANCH 124 134
BRANCH 120 140
ATOM    140  O4  IDS B   8      31.763  20.034   5.2460  0.00  0.00     0.000 O
BRANCH 140 144
ATOM    141  C1  IDS B   8      34.212  21.834   3.3170  0.00  0.00     0.000 C
ATOM    142  C2  IDS B   8      33.731  22.368   4.6970  0.00  0.00     0.000 C
ATOM    143  C3  IDS B   8      32.198  22.378   4.8380  0.00  0.00     0.000 C
ATOM    144  C4  IDS B   8      31.565  21.094   4.3030  0.00  0.00     0.000 C
ATOM    145  C5  IDS B   8      32.188  20.720   2.9500  0.00  0.00     0.000 C
ATOM    146  O5  IDS B   8      33.603  20.579   3.0420  0.00  0.00     0.000 O
BRANCH 142 147
ATOM    147   O  IDS B   8      34.267  21.500   5.7780  0.00  0.00     0.000 O
ATOM    148   S  IDS B   8      35.338  22.071   6.8550  0.00  0.00     0.000 S
ATOM    149   O  IDS B   8      35.886  23.297   6.3190  0.00  0.00     0.000 OA
ATOM    150   O  IDS B   8      34.584  22.280   8.0770  0.00  0.00     0.000 OA
ATOM    151   O  IDS B   8      36.345  21.035   6.9770  0.00  0.00     0.000 OA
ENDBRANCH 142 147
BRANCH 145 152
ATOM    152   C  IDS B   8      31.670  19.401   2.4140  0.00  0.00     0.000 C
ATOM    153   O  IDS B   8      32.461  18.497   2.1660  0.00  0.00     0.000 OA
ATOM    154   O  IDS B   8      30.473  19.244   2.2550  0.00  0.00     0.000 OA
ENDBRANCH 145 152
ENDBRANCH 140 144
ENDBRANCH 120 140
ENDBRANCH 119 123
ENDBRANCH 103 119
ENDBRANCH 102 106
ENDBRANCH 82 102
ENDBRANCH 81 85
ENDBRANCH 65 81
ENDBRANCH 64 68
ENDBRANCH 41 64
ENDBRANCH 40 44
ENDBRANCH 24 40
ENDBRANCH 23 27
ENDBRANCH 1 23
TORSDOF 31
ENDMDL
MODEL 63
REMARK VINA RESULT:      -6.9      9.207     18.349
ROOT
ATOM      1  C1  SGN B   1      37.488  14.446  32.9590  0.00  0.00     0.000 C
ATOM      2  C2  SGN B   1      37.895  13.159  33.6950  0.00  0.00     0.000 C
ATOM      3  C3  SGN B   1      39.202  12.598  33.1240  0.00  0.00     0.000 C
ATOM      4  C4  SGN B   1      39.067  12.378  31.6210  0.00  0.00     0.000 C
ATOM      5  C5  SGN B   1      38.525  13.651  30.9760  0.00  0.00     0.000 C
ATOM      6  O5  SGN B   1      37.290  14.026  31.6160  0.00  0.00     0.000 O
ATOM      7   O  SGN B   1      39.553  11.383  33.7770  0.00  0.00     0.000 O
ATOM      9  HD  SGN B   1      38.788  11.180  33.4240  0.00  0.00     0.000 HD
ATOM      9   O  SGN B   1      40.335  12.057  31.0770  0.00  0.00     0.000 O
ATOM     11  HD  SGN B   1      39.570  11.853  30.7240  0.00  0.00     0.000 HD
ENDROOT
BRANCH 2 13
ATOM     11   N  SGN B   1      36.781  13.058  34.6570  0.00  0.00     0.000 N
ATOM     13  HD  SGN B   1      37.280  13.766  34.6340  0.00  0.00     0.000 HD
ATOM     13   S  SGN B   1      36.798  13.820  36.0740  0.00  0.00     0.000 S
ATOM     14   O  SGN B   1      37.971  14.594  36.1960  0.00  0.00     0.000 OA
ATOM     15   O  SGN B   1      35.529  14.437  36.2680  0.00  0.00     0.000 OA
ATOM     16   O  SGN B   1      36.847  12.566  37.0010  0.00  0.00     0.000 OA
ENDBRANCH 2 13
BRANCH 5 17
ATOM     17   C  SGN B   1      38.244  13.521  29.5000  0.00  0.00     0.000 C
ATOM     18   O  SGN B   1      37.450  12.349  29.2280  0.00  0.00     0.000 O
ATOM     19   S  SGN B   1      37.926  11.449  27.9950  0.00  0.00     0.000 S
ATOM     20   O  SGN B   1      36.856  10.496  27.7900  0.00  0.00     0.000 OA
ATOM     21   O  SGN B   1      38.078  12.390  26.9100  0.00  0.00     0.000 OA
ATOM     22   O  SGN B   1      39.167  10.843  28.4260  0.00  0.00     0.000 OA
ENDBRANCH 5 17
BRANCH 1 23
ATOM     23  O4  IDS B   2      37.663  15.797  33.0240  0.00  0.00     0.000 O
BRANCH 23 27
ATOM     24  C1  IDS B   2      35.682  17.671  29.8940  0.00  0.00     0.000 C
ATOM     25  C2  IDS B   2      37.138  18.129  30.1310  0.00  0.00     0.000 C
ATOM     26  C3  IDS B   2      37.858  17.183  31.0900  0.00  0.00     0.000 C
ATOM     27  C4  IDS B   2      37.132  16.992  32.4140  0.00  0.00     0.000 C
ATOM     28  C5  IDS B   2      35.608  16.965  32.1800  0.00  0.00     0.000 C
ATOM     29  O5  IDS B   2      35.308  16.650  30.8290  0.00  0.00     0.000 O
ATOM     30   O  IDS B   2      39.150  17.705  31.3790  0.00  0.00     0.000 O
ATOM     32  HD  IDS B   2      39.138  18.340  31.9680  0.00  0.00     0.000 HD
BRANCH 25 32
ATOM     32   O  IDS B   2      37.924  18.175  28.8730  0.00  0.00     0.000 O
ATOM     33   S  IDS B   2      38.556  19.585  28.2920  0.00  0.00     0.000 S
ATOM     34   O  IDS B   2      39.051  19.287  26.9580  0.00  0.00     0.000 OA
ATOM     35   O  IDS B   2      37.517  20.604  28.2590  0.00  0.00     0.000 OA
ATOM     36   O  IDS B   2      39.635  19.927  29.1900  0.00  0.00     0.000 OA
ENDBRANCH 25 32
BRANCH 28 37
ATOM     37   C  IDS B   2      34.755  16.058  33.0910  0.00  0.00     0.000 C
ATOM     38   O  IDS B   2      34.571  16.535  34.1860  0.00  0.00     0.000 OA
ATOM     39   O  IDS B   2      34.219  14.966  32.7800  0.00  0.00     0.000 OA
ENDBRANCH 28 37
BRANCH 24 40
ATOM     40  O4  SUS B   3      34.859  18.416  29.1280  0.00  0.00     0.000 O
BRANCH 40 44
ATOM     41  C1  SUS B   3      31.792  17.260  26.5190  0.00  0.00     0.000 C
ATOM     42  C2  SUS B   3      31.540  17.076  28.0290  0.00  0.00     0.000 C
ATOM     43  C3  SUS B   3      32.507  17.963  28.8120  0.00  0.00     0.000 C
ATOM     44  C4  SUS B   3      33.929  17.642  28.3790  0.00  0.00     0.000 C
ATOM     45  C5  SUS B   3      34.073  17.949  26.9030  0.00  0.00     0.000 C
ATOM     46  O5  SUS B   3      33.172  17.091  26.1740  0.00  0.00     0.000 O
BRANCH 42 49
ATOM     47   N  SUS B   3      30.139  17.317  28.4150  0.00  0.00     0.000 N
ATOM     49  HD  SUS B   3      30.009  17.843  29.0910  0.00  0.00     0.000 HD
ATOM     49   S  SUS B   3      29.328  15.961  28.6750  0.00  0.00     0.000 S
ATOM     50   O  SUS B   3      29.970  15.202  29.6740  0.00  0.00     0.000 OA
ATOM     51   O  SUS B   3      28.043  16.624  29.2340  0.00  0.00     0.000 OA
ATOM     52   O  SUS B   3      29.066  15.330  27.4430  0.00  0.00     0.000 OA
ENDBRANCH 42 49
BRANCH 43 53
ATOM     53   O  SUS B   3      32.339  17.662  30.2470  0.00  0.00     0.000 O
ATOM     54   S  SUS B   3      31.774  18.872  31.2060  0.00  0.00     0.000 S
ATOM     55   O  SUS B   3      30.370  19.071  30.8760  0.00  0.00     0.000 OA
ATOM     56   O  SUS B   3      31.996  18.384  32.5550  0.00  0.00     0.000 OA
ATOM     57   O  SUS B   3      32.569  20.061  30.8840  0.00  0.00     0.000 OA
ENDBRANCH 43 53
BRANCH 45 58
ATOM     58   C  SUS B   3      35.492  17.749  26.4180  0.00  0.00     0.000 C
ATOM     59   S  SUS B   3      37.127  15.947  25.6030  0.00  0.00     0.000 S
ATOM     60   O  SUS B   3      35.649  16.401  25.9470  0.00  0.00     0.000 O
ATOM     61   O  SUS B   3      37.749  15.677  26.8850  0.00  0.00     0.000 OA
ATOM     62   O  SUS B   3      36.871  14.752  24.8460  0.00  0.00     0.000 OA
ATOM     63   O  SUS B   3      37.693  17.023  24.8680  0.00  0.00     0.000 OA
ENDBRANCH 45 58
BRANCH 41 64
ATOM     64  O4  IDS B   4      31.217  18.392  25.9960  0.00  0.00     0.000 O
BRANCH 64 68
ATOM     65  C1  IDS B   4      29.046  20.269  23.7510  0.00  0.00     0.000 C
ATOM     66  C2  IDS B   4      28.596  18.912  24.3050  0.00  0.00     0.000 C
ATOM     67  C3  IDS B   4      29.649  17.820  24.2230  0.00  0.00     0.000 C
ATOM     68  C4  IDS B   4      31.041  18.317  24.5640  0.00  0.00     0.000 C
ATOM     69  C5  IDS B   4      31.258  19.658  23.8500  0.00  0.00     0.000 C
ATOM     70  O5  IDS B   4      30.297  20.604  24.3250  0.00  0.00     0.000 O
ATOM     71   O  IDS B   4      29.631  17.317  22.9030  0.00  0.00     0.000 O
ATOM     73  HD  IDS B   4      29.316  17.744  23.5880  0.00  0.00     0.000 HD
BRANCH 66 73
ATOM     73   O  IDS B   4      28.296  19.060  25.7360  0.00  0.00     0.000 O
ATOM     74   S  IDS B   4      26.784  18.764  26.2290  0.00  0.00     0.000 S
ATOM     75   O  IDS B   4      25.924  19.637  25.4590  0.00  0.00     0.000 OA
ATOM     76   O  IDS B   4      26.858  19.098  27.6290  0.00  0.00     0.000 OA
ATOM     77   O  IDS B   4      26.560  17.363  25.9640  0.00  0.00     0.000 OA
ENDBRANCH 66 73
BRANCH 69 78
ATOM     78   C  IDS B   4      32.686  20.181  23.9130  0.00  0.00     0.000 C
ATOM     79   O  IDS B   4      33.326  20.279  22.8670  0.00  0.00     0.000 OA
ATOM     80   O  IDS B   4      33.122  20.593  25.0040  0.00  0.00     0.000 OA
ENDBRANCH 69 78
BRANCH 65 81
ATOM     81  O4  SGN B   5      28.982  20.248  22.3910  0.00  0.00     0.000 O
BRANCH 81 85
ATOM     82  C1  SGN B   5      28.165  22.592  19.0030  0.00  0.00     0.000 C
ATOM     83  C2  SGN B   5      29.491  22.857  19.7330  0.00  0.00     0.000 C
ATOM     84  C3  SGN B   5      29.840  21.653  20.6170  0.00  0.00     0.000 C
ATOM     85  C4  SGN B   5      28.685  21.374  21.5620  0.00  0.00     0.000 C
ATOM     86  C5  SGN B   5      27.436  21.103  20.7260  0.00  0.00     0.000 C
ATOM     87  O5  SGN B   5      27.149  22.272  19.9340  0.00  0.00     0.000 O
ATOM     88   O  SGN B   5      31.027  21.912  21.3340  0.00  0.00     0.000 O
ATOM     90  HD  SGN B   5      30.967  21.418  20.6260  0.00  0.00     0.000 HD
BRANCH 83 92
ATOM     90   N  SGN B   5      29.484  24.192  19.1030  0.00  0.00     0.000 N
ATOM     92  HD  SGN B   5      29.048  24.762  19.5870  0.00  0.00     0.000 HD
ATOM     92   S  SGN B   5      30.853  24.738  18.4840  0.00  0.00     0.000 S
ATOM     93   O  SGN B   5      30.518  26.031  17.9680  0.00  0.00     0.000 OA
ATOM     94   O  SGN B   5      31.821  24.613  19.5190  0.00  0.00     0.000 OA
ATOM     95   O  SGN B   5      31.212  23.740  17.4050  0.00  0.00     0.000 OA
ENDBRANCH 83 92
BRANCH 86 96
ATOM     96   C  SGN B   5      26.198  20.795  21.5410  0.00  0.00     0.000 C
ATOM     97   O  SGN B   5      26.041  21.747  22.5970  0.00  0.00     0.000 O
ATOM     98   S  SGN B   5      24.601  22.441  22.7140  0.00  0.00     0.000 S
ATOM     99   O  SGN B   5      24.697  23.166  23.9580  0.00  0.00     0.000 OA
ATOM    100   O  SGN B   5      24.426  23.256  21.5660  0.00  0.00     0.000 OA
ATOM    101   O  SGN B   5      23.684  21.349  22.7650  0.00  0.00     0.000 OA
ENDBRANCH 86 96
BRANCH 82 102
ATOM    102  O4  IDS B   6      28.272  21.613  18.0610  0.00  0.00     0.000 O
BRANCH 102 106
ATOM    103  C1  IDS B   6      28.170  20.105  14.7490  0.00  0.00     0.000 C
ATOM    104  C2  IDS B   6      29.071  21.317  15.0330  0.00  0.00     0.000 C
ATOM    105  C3  IDS B   6      28.402  22.455  15.7800  0.00  0.00     0.000 C
ATOM    106  C4  IDS B   6      27.490  21.969  16.8930  0.00  0.00     0.000 C
ATOM    107  C5  IDS B   6      26.667  20.775  16.4030  0.00  0.00     0.000 C
ATOM    108  O5  IDS B   6      27.497  19.713  15.9300  0.00  0.00     0.000 O
ATOM    109   O  IDS B   6      27.680  23.234  14.8410  0.00  0.00     0.000 O
ATOM    111  HD  IDS B   6      27.539  22.690  14.1820  0.00  0.00     0.000 HD
BRANCH 104 111
ATOM    111   O  IDS B   6      30.188  20.892  15.8920  0.00  0.00     0.000 O
ATOM    112   S  IDS B   6      31.635  20.741  15.2240  0.00  0.00     0.000 S
ATOM    113   O  IDS B   6      31.449  19.761  14.1650  0.00  0.00     0.000 OA
ATOM    114   O  IDS B   6      32.076  22.063  14.7660  0.00  0.00     0.000 OA
ATOM    115   O  IDS B   6      32.367  20.238  16.3670  0.00  0.00     0.000 OA
ENDBRANCH 104 111
BRANCH 107 116
ATOM    116   C  IDS B   6      25.782  20.273  17.5380  0.00  0.00     0.000 C
ATOM    117   O  IDS B   6      26.050  19.191  17.9950  0.00  0.00     0.000 OA
ATOM    118   O  IDS B   6      24.844  20.935  17.9520  0.00  0.00     0.000 OA
ENDBRANCH 107 116
BRANCH 103 119
ATOM    119  O4  SGN B   7      27.485  20.469  13.6340  0.00  0.00     0.000 O
BRANCH 119 123
ATOM    120  C1  SGN B   7      24.628  18.679  11.1600  0.00  0.00     0.000 C
ATOM    121  C2  SGN B   7      24.119  19.520  12.3450  0.00  0.00     0.000 C
ATOM    122  C3  SGN B   7      25.239  20.414  12.8910  0.00  0.00     0.000 C
ATOM    123  C4  SGN B   7      26.459  19.568  13.2160  0.00  0.00     0.000 C
ATOM    124  C5  SGN B   7      26.883  18.765  11.9760  0.00  0.00     0.000 C
ATOM    125  O5  SGN B   7      25.799  17.937  11.4970  0.00  0.00     0.000 O
ATOM    126   O  SGN B   7      24.760  21.107  14.0500  0.00  0.00     0.000 O
ATOM    128  HD  SGN B   7      24.581  20.610  13.3630  0.00  0.00     0.000 HD
BRANCH 121 130
ATOM    128   N  SGN B   7      22.791  19.036  11.9570  0.00  0.00     0.000 N
ATOM    130  HD  SGN B   7      22.605  18.861  12.7840  0.00  0.00     0.000 HD
ATOM    130   S  SGN B   7      21.449  19.873  12.2570  0.00  0.00     0.000 S
ATOM    131   O  SGN B   7      21.711  21.184  11.7700  0.00  0.00     0.000 OA
ATOM    132   O  SGN B   7      20.343  19.134  11.7670  0.00  0.00     0.000 OA
ATOM    133   O  SGN B   7      21.367  19.722  13.8140  0.00  0.00     0.000 OA
ENDBRANCH 121 130
BRANCH 124 134
ATOM    134   C  SGN B   7      28.012  17.809  12.2290  0.00  0.00     0.000 C
ATOM    135   O  SGN B   7      27.766  16.603  11.4850  0.00  0.00     0.000 O
ATOM    136   S  SGN B   7      28.913  15.530  11.4930  0.00  0.00     0.000 S
ATOM    137   O  SGN B   7      28.402  14.384  10.7790  0.00  0.00     0.000 OA
ATOM    138   O  SGN B   7      29.165  15.257  12.8900  0.00  0.00     0.000 OA
ATOM    139   O  SGN B   7      29.994  16.221  10.8090  0.00  0.00     0.000 OA
ENDBRANCH 124 134
BRANCH 120 140
ATOM    140  O4  IDS B   8      24.993  19.104   9.9450  0.00  0.00     0.000 O
BRANCH 140 144
ATOM    141  C1  IDS B   8      25.978  19.289   6.4870  0.00  0.00     0.000 C
ATOM    142  C2  IDS B   8      26.598  20.244   7.5480  0.00  0.00     0.000 C
ATOM    143  C3  IDS B   8      25.542  20.918   8.4430  0.00  0.00     0.000 C
ATOM    144  C4  IDS B   8      24.467  19.934   8.9020  0.00  0.00     0.000 C
ATOM    145  C5  IDS B   8      24.003  19.068   7.7220  0.00  0.00     0.000 C
ATOM    146  O5  IDS B   8      25.091  18.373   7.1170  0.00  0.00     0.000 O
BRANCH 142 147
ATOM    147   O  IDS B   8      27.503  19.473   8.4400  0.00  0.00     0.000 O
ATOM    148   S  IDS B   8      29.016  19.978   8.7340  0.00  0.00     0.000 S
ATOM    149   O  IDS B   8      29.354  20.959   7.7270  0.00  0.00     0.000 OA
ATOM    150   O  IDS B   8      28.985  20.535  10.0730  0.00  0.00     0.000 OA
ATOM    151   O  IDS B   8      29.842  18.790   8.6300  0.00  0.00     0.000 OA
ENDBRANCH 142 147
BRANCH 145 152
ATOM    152   C  IDS B   8      23.007  18.003   8.1350  0.00  0.00     0.000 C
ATOM    153   O  IDS B   8      22.060  18.307   8.8520  0.00  0.00     0.000 OA
ATOM    154   O  IDS B   8      23.146  16.861   7.7360  0.00  0.00     0.000 OA
ENDBRANCH 145 152
ENDBRANCH 140 144
ENDBRANCH 120 140
ENDBRANCH 119 123
ENDBRANCH 103 119
ENDBRANCH 102 106
ENDBRANCH 82 102
ENDBRANCH 81 85
ENDBRANCH 65 81
ENDBRANCH 64 68
ENDBRANCH 41 64
ENDBRANCH 40 44
ENDBRANCH 24 40
ENDBRANCH 23 27
ENDBRANCH 1 23
TORSDOF 31
ENDMDL
MODEL 64
REMARK VINA RESULT:      -6.9      8.026     19.693
ROOT
ATOM      1  C1  SGN B   1      14.569  18.790  23.1340  0.00  0.00     0.000 C
ATOM      2  C2  SGN B   1      13.480  18.023  23.9000  0.00  0.00     0.000 C
ATOM      3  C3  SGN B   1      12.868  16.926  23.0220  0.00  0.00     0.000 C
ATOM      4  C4  SGN B   1      12.338  17.526  21.7240  0.00  0.00     0.000 C
ATOM      5  C5  SGN B   1      13.427  18.388  21.0910  0.00  0.00     0.000 C
ATOM      6  O5  SGN B   1      13.874  19.375  22.0410  0.00  0.00     0.000 O
ATOM      7   O  SGN B   1      11.830  16.248  23.7190  0.00  0.00     0.000 O
ATOM      9  HD  SGN B   1      11.526  17.058  23.6960  0.00  0.00     0.000 HD
ATOM      9   O  SGN B   1      11.965  16.483  20.8420  0.00  0.00     0.000 O
ATOM     11  HD  SGN B   1      11.661  17.294  20.8190  0.00  0.00     0.000 HD
ENDROOT
BRANCH 2 13
ATOM     11   N  SGN B   1      13.491  18.694  25.2140  0.00  0.00     0.000 N
ATOM     13  HD  SGN B   1      14.223  18.381  24.8740  0.00  0.00     0.000 HD
ATOM     13   S  SGN B   1      14.570  18.336  26.3530  0.00  0.00     0.000 S
ATOM     14   O  SGN B   1      15.476  17.367  25.8750  0.00  0.00     0.000 OA
ATOM     15   O  SGN B   1      15.070  19.554  26.8980  0.00  0.00     0.000 OA
ATOM     16   O  SGN B   1      13.591  17.729  27.4050  0.00  0.00     0.000 OA
ENDBRANCH 2 13
BRANCH 5 17
ATOM     17   C  SGN B   1      12.984  19.126  19.8520  0.00  0.00     0.000 C
ATOM     18   O  SGN B   1      11.682  19.716  20.0420  0.00  0.00     0.000 O
ATOM     19   S  SGN B   1      10.642  19.522  18.8420  0.00  0.00     0.000 S
ATOM     20   O  SGN B   1       9.528  20.386  19.1690  0.00  0.00     0.000 OA
ATOM     21   O  SGN B   1      11.375  19.942  17.6700  0.00  0.00     0.000 OA
ATOM     22   O  SGN B   1      10.308  18.115  18.8550  0.00  0.00     0.000 OA
ENDBRANCH 5 17
BRANCH 1 23
ATOM     23  O4  IDS B   2      15.911  18.753  22.8900  0.00  0.00     0.000 O
BRANCH 23 27
ATOM     24  C1  IDS B   2      19.984  19.545  22.7770  0.00  0.00     0.000 C
ATOM     25  C2  IDS B   2      19.179  20.337  23.8320  0.00  0.00     0.000 C
ATOM     26  C3  IDS B   2      17.774  19.762  23.9910  0.00  0.00     0.000 C
ATOM     27  C4  IDS B   2      17.003  19.673  22.6810  0.00  0.00     0.000 C
ATOM     28  C5  IDS B   2      17.956  19.280  21.5340  0.00  0.00     0.000 C
ATOM     29  O5  IDS B   2      19.130  18.662  22.0390  0.00  0.00     0.000 O
ATOM     30   O  IDS B   2      17.027  20.591  24.8740  0.00  0.00     0.000 O
ATOM     32  HD  IDS B   2      16.723  21.308  24.4940  0.00  0.00     0.000 HD
BRANCH 25 32
ATOM     32   O  IDS B   2      19.827  20.313  25.1660  0.00  0.00     0.000 O
ATOM     33   S  IDS B   2      20.227  21.700  25.9660  0.00  0.00     0.000 S
ATOM     34   O  IDS B   2      21.031  21.291  27.1070  0.00  0.00     0.000 OA
ATOM     35   O  IDS B   2      20.976  22.574  25.0740  0.00  0.00     0.000 OA
ATOM     36   O  IDS B   2      18.974  22.283  26.3860  0.00  0.00     0.000 OA
ENDBRANCH 25 32
BRANCH 28 37
ATOM     37   C  IDS B   2      17.393  18.400  20.3990  0.00  0.00     0.000 C
ATOM     38   O  IDS B   2      17.766  17.252  20.4690  0.00  0.00     0.000 OA
ATOM     39   O  IDS B   2      16.581  18.746  19.5070  0.00  0.00     0.000 OA
ENDBRANCH 28 37
BRANCH 24 40
ATOM     40  O4  SUS B   3      21.230  19.942  22.4440  0.00  0.00     0.000 O
BRANCH 40 44
ATOM     41  C1  SUS B   3      24.660  17.692  21.5960  0.00  0.00     0.000 C
ATOM     42  C2  SUS B   3      23.489  17.596  20.5980  0.00  0.00     0.000 C
ATOM     43  C3  SUS B   3      22.566  18.798  20.7870  0.00  0.00     0.000 C
ATOM     44  C4  SUS B   3      22.133  18.861  22.2440  0.00  0.00     0.000 C
ATOM     45  C5  SUS B   3      23.360  19.047  23.1120  0.00  0.00     0.000 C
ATOM     46  O5  SUS B   3      24.211  17.896  22.9410  0.00  0.00     0.000 O
BRANCH 42 49
ATOM     47   N  SUS B   3      23.186  16.240  20.1070  0.00  0.00     0.000 N
ATOM     49  HD  SUS B   3      23.409  15.583  20.6250  0.00  0.00     0.000 HD
ATOM     49   S  SUS B   3      23.797  15.959  18.6530  0.00  0.00     0.000 S
ATOM     50   O  SUS B   3      25.193  16.155  18.6740  0.00  0.00     0.000 OA
ATOM     51   O  SUS B   3      23.458  14.447  18.6060  0.00  0.00     0.000 OA
ATOM     52   O  SUS B   3      23.052  16.666  17.6890  0.00  0.00     0.000 OA
ENDBRANCH 42 49
BRANCH 43 53
ATOM     53   O  SUS B   3      21.387  18.607  19.9210  0.00  0.00     0.000 O
ATOM     54   S  SUS B   3      21.067  19.785  18.8200  0.00  0.00     0.000 S
ATOM     55   O  SUS B   3      22.090  19.708  17.7880  0.00  0.00     0.000 OA
ATOM     56   O  SUS B   3      19.731  19.470  18.3460  0.00  0.00     0.000 OA
ATOM     57   O  SUS B   3      21.137  21.059  19.5430  0.00  0.00     0.000 OA
ENDBRANCH 43 53
BRANCH 45 58
ATOM     58   C  SUS B   3      23.000  19.218  24.5720  0.00  0.00     0.000 C
ATOM     59   S  SUS B   3      22.825  17.935  26.7870  0.00  0.00     0.000 S
ATOM     60   O  SUS B   3      23.331  18.017  25.2890  0.00  0.00     0.000 O
ATOM     61   O  SUS B   3      21.415  17.609  26.6950  0.00  0.00     0.000 OA
ATOM     62   O  SUS B   3      23.618  16.840  27.2780  0.00  0.00     0.000 OA
ATOM     63   O  SUS B   3      23.120  19.202  27.3580  0.00  0.00     0.000 OA
ENDBRANCH 45 58
BRANCH 41 64
ATOM     64  O4  IDS B   4      25.656  18.551  21.2000  0.00  0.00     0.000 O
BRANCH 64 68
ATOM     65  C1  IDS B   4      28.853  20.106  21.9970  0.00  0.00     0.000 C
ATOM     66  C2  IDS B   4      28.454  19.865  20.5350  0.00  0.00     0.000 C
ATOM     67  C3  IDS B   4      27.899  18.478  20.2570  0.00  0.00     0.000 C
ATOM     68  C4  IDS B   4      26.975  17.982  21.3530  0.00  0.00     0.000 C
ATOM     69  C5  IDS B   4      27.625  18.300  22.7060  0.00  0.00     0.000 C
ATOM     70  O5  IDS B   4      27.778  19.716  22.8330  0.00  0.00     0.000 O
ATOM     71   O  IDS B   4      29.001  17.603  20.1290  0.00  0.00     0.000 O
ATOM     73  HD  IDS B   4      28.605  18.373  20.1500  0.00  0.00     0.000 HD
BRANCH 66 73
ATOM     73   O  IDS B   4      27.375  20.797  20.1790  0.00  0.00     0.000 O
ATOM     74   S  IDS B   4      27.664  21.881  19.0140  0.00  0.00     0.000 S
ATOM     75   O  IDS B   4      28.833  22.627  19.4290  0.00  0.00     0.000 OA
ATOM     76   O  IDS B   4      26.446  22.651  19.0170  0.00  0.00     0.000 OA
ATOM     77   O  IDS B   4      27.876  21.109  17.8130  0.00  0.00     0.000 OA
ENDBRANCH 66 73
BRANCH 69 78
ATOM     78   C  IDS B   4      26.926  17.670  23.9030  0.00  0.00     0.000 C
ATOM     79   O  IDS B   4      26.848  16.444  23.9650  0.00  0.00     0.000 OA
ATOM     80   O  IDS B   4      26.550  18.410  24.8310  0.00  0.00     0.000 OA
ENDBRANCH 69 78
BRANCH 65 81
ATOM     81  O4  SGN B   5      30.061  19.526  22.2390  0.00  0.00     0.000 O
BRANCH 81 85
ATOM     82  C1  SGN B   5      33.296  19.565  24.9160  0.00  0.00     0.000 C
ATOM     83  C2  SGN B   5      32.174  18.554  25.1930  0.00  0.00     0.000 C
ATOM     84  C3  SGN B   5      31.343  18.347  23.9190  0.00  0.00     0.000 C
ATOM     85  C4  SGN B   5      30.830  19.691  23.4320  0.00  0.00     0.000 C
ATOM     86  C5  SGN B   5      32.031  20.597  23.1700  0.00  0.00     0.000 C
ATOM     87  O5  SGN B   5      32.757  20.768  24.4020  0.00  0.00     0.000 O
ATOM     88   O  SGN B   5      30.275  17.463  24.1810  0.00  0.00     0.000 O
ATOM     90  HD  SGN B   5      31.012  17.255  23.7760  0.00  0.00     0.000 HD
BRANCH 83 92
ATOM     90   N  SGN B   5      33.166  17.722  25.9000  0.00  0.00     0.000 N
ATOM     92  HD  SGN B   5      33.953  18.083  25.8690  0.00  0.00     0.000 HD
ATOM     92   S  SGN B   5      32.759  17.108  27.3180  0.00  0.00     0.000 S
ATOM     93   O  SGN B   5      33.917  16.374  27.7330  0.00  0.00     0.000 OA
ATOM     94   O  SGN B   5      32.295  18.206  28.0950  0.00  0.00     0.000 OA
ATOM     95   O  SGN B   5      31.566  16.224  27.0270  0.00  0.00     0.000 OA
ENDBRANCH 83 92
BRANCH 86 96
ATOM     96   C  SGN B   5      31.668  21.977  22.6640  0.00  0.00     0.000 C
ATOM     97   O  SGN B   5      31.375  22.852  23.7560  0.00  0.00     0.000 O
ATOM     98   S  SGN B   5      32.142  24.260  23.7590  0.00  0.00     0.000 S
ATOM     99   O  SGN B   5      31.496  24.972  24.8350  0.00  0.00     0.000 OA
ATOM    100   O  SGN B   5      33.520  23.995  23.9660  0.00  0.00     0.000 OA
ATOM    101   O  SGN B   5      31.870  24.814  22.4720  0.00  0.00     0.000 OA
ENDBRANCH 86 96
BRANCH 82 102
ATOM    102  O4  IDS B   6      34.249  19.073  24.0740  0.00  0.00     0.000 O
BRANCH 102 106
ATOM    103  C1  IDS B   6      37.687  18.127  23.3380  0.00  0.00     0.000 C
ATOM    104  C2  IDS B   6      37.110  17.955  24.7520  0.00  0.00     0.000 C
ATOM    105  C3  IDS B   6      36.357  19.157  25.2900  0.00  0.00     0.000 C
ATOM    106  C4  IDS B   6      35.482  19.818  24.2400  0.00  0.00     0.000 C
ATOM    107  C5  IDS B   6      36.244  19.912  22.9150  0.00  0.00     0.000 C
ATOM    108  O5  IDS B   6      36.693  18.632  22.4670  0.00  0.00     0.000 O
ATOM    109   O  IDS B   6      37.305  20.076  25.8080  0.00  0.00     0.000 O
ATOM    111  HD  IDS B   6      38.039  19.874  25.3930  0.00  0.00     0.000 HD
BRANCH 104 111
ATOM    111   O  IDS B   6      36.131  16.857  24.7400  0.00  0.00     0.000 O
ATOM    112   S  IDS B   6      36.554  15.464  25.4040  0.00  0.00     0.000 S
ATOM    113   O  IDS B   6      37.741  15.053  24.6690  0.00  0.00     0.000 OA
ATOM    114   O  IDS B   6      36.767  15.679  26.8400  0.00  0.00     0.000 OA
ATOM    115   O  IDS B   6      35.373  14.688  25.0930  0.00  0.00     0.000 OA
ENDBRANCH 104 111
BRANCH 107 116
ATOM    116   C  IDS B   6      35.345  20.544  21.8600  0.00  0.00     0.000 C
ATOM    117   O  IDS B   6      35.041  19.851  20.9220  0.00  0.00     0.000 OA
ATOM    118   O  IDS B   6      34.963  21.699  21.9600  0.00  0.00     0.000 OA
ENDBRANCH 107 116
BRANCH 103 119
ATOM    119  O4  SGN B   7      38.850  18.796  23.5450  0.00  0.00     0.000 O
BRANCH 119 123
ATOM    120  C1  SGN B   7      42.620  18.965  21.7430  0.00  0.00     0.000 C
ATOM    121  C2  SGN B   7      41.426  19.537  20.9550  0.00  0.00     0.000 C
ATOM    122  C3  SGN B   7      40.229  19.768  21.8850  0.00  0.00     0.000 C
ATOM    123  C4  SGN B   7      39.911  18.488  22.6410  0.00  0.00     0.000 C
ATOM    124  C5  SGN B   7      41.163  17.997  23.3850  0.00  0.00     0.000 C
ATOM    125  O5  SGN B   7      42.264  17.792  22.4710  0.00  0.00     0.000 O
ATOM    126   O  SGN B   7      39.110  20.205  21.1050  0.00  0.00     0.000 O
ATOM    128  HD  SGN B   7      39.958  20.033  21.1430  0.00  0.00     0.000 HD
BRANCH 121 130
ATOM    128   N  SGN B   7      42.259  19.585  19.7500  0.00  0.00     0.000 N
ATOM    130  HD  SGN B   7      41.564  19.434  19.2550  0.00  0.00     0.000 HD
ATOM    130   S  SGN B   7      42.214  20.824  18.7230  0.00  0.00     0.000 S
ATOM    131   O  SGN B   7      42.367  21.984  19.5330  0.00  0.00     0.000 OA
ATOM    132   O  SGN B   7      43.125  20.562  17.6670  0.00  0.00     0.000 OA
ATOM    133   O  SGN B   7      40.799  20.611  18.0870  0.00  0.00     0.000 OA
ENDBRANCH 121 130
BRANCH 124 134
ATOM    134   C  SGN B   7      40.983  16.674  24.0700  0.00  0.00     0.000 C
ATOM    135   O  SGN B   7      42.014  15.780  23.6180  0.00  0.00     0.000 O
ATOM    136   S  SGN B   7      42.093  14.384  24.3340  0.00  0.00     0.000 S
ATOM    137   O  SGN B   7      43.120  13.634  23.6500  0.00  0.00     0.000 OA
ATOM    138   O  SGN B   7      40.777  13.806  24.1820  0.00  0.00     0.000 OA
ATOM    139   O  SGN B   7      42.437  14.750  25.6980  0.00  0.00     0.000 OA
ENDBRANCH 124 134
BRANCH 120 140
ATOM    140  O4  IDS B   8      43.358  19.576  22.6770  0.00  0.00     0.000 O
BRANCH 140 144
ATOM    141  C1  IDS B   8      44.077  21.644  25.5340  0.00  0.00     0.000 C
ATOM    142  C2  IDS B   8      42.961  22.036  24.5240  0.00  0.00     0.000 C
ATOM    143  C3  IDS B   8      43.423  21.963  23.0560  0.00  0.00     0.000 C
ATOM    144  C4  IDS B   8      44.238  20.703  22.7740  0.00  0.00     0.000 C
ATOM    145  C5  IDS B   8      45.265  20.475  23.8930  0.00  0.00     0.000 C
ATOM    146  O5  IDS B   8      44.642  20.390  25.1720  0.00  0.00     0.000 O
BRANCH 142 147
ATOM    147   O  IDS B   8      41.811  21.105  24.6700  0.00  0.00     0.000 O
ATOM    148   S  IDS B   8      40.515  21.510  25.5560  0.00  0.00     0.000 S
ATOM    149   O  IDS B   8      40.887  22.629  26.3920  0.00  0.00     0.000 OA
ATOM    150   O  IDS B   8      39.479  21.846  24.5960  0.00  0.00     0.000 OA
ATOM    151   O  IDS B   8      40.203  20.329  26.3390  0.00  0.00     0.000 OA
ENDBRANCH 142 147
BRANCH 145 152
ATOM    152   C  IDS B   8      46.039  19.183  23.7200  0.00  0.00     0.000 C
ATOM    153   O  IDS B   8      46.750  19.032  22.7330  0.00  0.00     0.000 OA
ATOM    154   O  IDS B   8      45.962  18.317  24.5730  0.00  0.00     0.000 OA
ENDBRANCH 145 152
ENDBRANCH 140 144
ENDBRANCH 120 140
ENDBRANCH 119 123
ENDBRANCH 103 119
ENDBRANCH 102 106
ENDBRANCH 82 102
ENDBRANCH 81 85
ENDBRANCH 65 81
ENDBRANCH 64 68
ENDBRANCH 41 64
ENDBRANCH 40 44
ENDBRANCH 24 40
ENDBRANCH 23 27
ENDBRANCH 1 23
TORSDOF 31
ENDMDL
MODEL 65
REMARK VINA RESULT:      -6.8      6.173     11.331
ROOT
ATOM      1  C1  SGN B   1      26.987  17.679  19.1300  0.00  0.00     0.000 C
ATOM      2  C2  SGN B   1      26.371  18.319  17.8750  0.00  0.00     0.000 C
ATOM      3  C3  SGN B   1      24.847  18.162  17.8790  0.00  0.00     0.000 C
ATOM      4  C4  SGN B   1      24.470  16.690  18.0120  0.00  0.00     0.000 C
ATOM      5  C5  SGN B   1      25.228  16.086  19.1920  0.00  0.00     0.000 C
ATOM      6  O5  SGN B   1      26.641  16.305  19.0210  0.00  0.00     0.000 O
ATOM      7   O  SGN B   1      24.284  18.715  16.6950  0.00  0.00     0.000 O
ATOM      9  HD  SGN B   1      24.795  18.095  16.3730  0.00  0.00     0.000 HD
ATOM      9   O  SGN B   1      23.074  16.578  18.2190  0.00  0.00     0.000 O
ATOM     11  HD  SGN B   1      23.585  15.958  17.8980  0.00  0.00     0.000 HD
ENDROOT
BRANCH 2 13
ATOM     11   N  SGN B   1      27.587  18.819  17.2060  0.00  0.00     0.000 N
ATOM     13  HD  SGN B   1      27.401  19.058  18.0170  0.00  0.00     0.000 HD
ATOM     13   S  SGN B   1      28.248  20.239  17.5720  0.00  0.00     0.000 S
ATOM     14   O  SGN B   1      27.529  20.853  18.6190  0.00  0.00     0.000 OA
ATOM     15   O  SGN B   1      29.655  20.062  17.6990  0.00  0.00     0.000 OA
ATOM     16   O  SGN B   1      27.995  20.960  16.2120  0.00  0.00     0.000 OA
ENDBRANCH 2 13
BRANCH 5 17
ATOM     17   C  SGN B   1      25.021  14.601  19.3600  0.00  0.00     0.000 C
ATOM     18   O  SGN B   1      25.117  13.921  18.0920  0.00  0.00     0.000 O
ATOM     19   S  SGN B   1      23.987  12.830  17.7940  0.00  0.00     0.000 S
ATOM     20   O  SGN B   1      24.435  12.143  16.6010  0.00  0.00     0.000 OA
ATOM     21   O  SGN B   1      23.982  11.996  18.9730  0.00  0.00     0.000 OA
ATOM     22   O  SGN B   1      22.770  13.588  17.6040  0.00  0.00     0.000 OA
ENDBRANCH 5 17
BRANCH 1 23
ATOM     23  O4  IDS B   2      27.329  17.992  20.4120  0.00  0.00     0.000 O
BRANCH 23 27
ATOM     24  C1  IDS B   2      26.187  18.912  24.2960  0.00  0.00     0.000 C
ATOM     25  C2  IDS B   2      25.189  19.324  23.1920  0.00  0.00     0.000 C
ATOM     26  C3  IDS B   2      25.557  18.684  21.8560  0.00  0.00     0.000 C
ATOM     27  C4  IDS B   2      26.988  18.967  21.4210  0.00  0.00     0.000 C
ATOM     28  C5  IDS B   2      27.922  18.967  22.6480  0.00  0.00     0.000 C
ATOM     29  O5  IDS B   2      27.335  18.263  23.7320  0.00  0.00     0.000 O
ATOM     30   O  IDS B   2      24.693  19.184  20.8430  0.00  0.00     0.000 O
ATOM     32  HD  IDS B   2      24.917  19.972  20.5610  0.00  0.00     0.000 HD
BRANCH 25 32
ATOM     32   O  IDS B   2      23.798  18.921  23.5140  0.00  0.00     0.000 O
ATOM     33   S  IDS B   2      22.579  20.026  23.6480  0.00  0.00     0.000 S
ATOM     34   O  IDS B   2      21.436  19.304  24.1850  0.00  0.00     0.000 OA
ATOM     35   O  IDS B   2      22.996  21.100  24.5380  0.00  0.00     0.000 OA
ATOM     36   O  IDS B   2      22.324  20.491  22.3050  0.00  0.00     0.000 OA
ENDBRANCH 25 32
BRANCH 28 37
ATOM     37   C  IDS B   2      29.363  18.451  22.4580  0.00  0.00     0.000 C
ATOM     38   O  IDS B   2      29.683  17.639  23.2940  0.00  0.00     0.000 OA
ATOM     39   O  IDS B   2      30.152  18.740  21.5250  0.00  0.00     0.000 OA
ENDBRANCH 28 37
BRANCH 24 40
ATOM     40  O4  SUS B   3      26.070  19.430  25.5360  0.00  0.00     0.000 O
BRANCH 40 44
ATOM     41  C1  SUS B   3      26.408  17.417  29.1940  0.00  0.00     0.000 C
ATOM     42  C2  SUS B   3      27.594  18.304  28.7660  0.00  0.00     0.000 C
ATOM     43  C3  SUS B   3      27.121  19.300  27.7090  0.00  0.00     0.000 C
ATOM     44  C4  SUS B   3      26.477  18.533  26.5640  0.00  0.00     0.000 C
ATOM     45  C5  SUS B   3      25.276  17.778  27.0940  0.00  0.00     0.000 C
ATOM     46  O5  SUS B   3      25.739  16.827  28.0750  0.00  0.00     0.000 O
BRANCH 42 49
ATOM     47   N  SUS B   3      28.161  18.838  30.0160  0.00  0.00     0.000 N
ATOM     49  HD  SUS B   3      28.177  19.700  30.0970  0.00  0.00     0.000 HD
ATOM     49   S  SUS B   3      29.634  18.283  30.3120  0.00  0.00     0.000 S
ATOM     50   O  SUS B   3      30.489  18.593  29.2350  0.00  0.00     0.000 OA
ATOM     51   O  SUS B   3      29.931  19.201  31.5260  0.00  0.00     0.000 OA
ATOM     52   O  SUS B   3      29.554  16.936  30.7160  0.00  0.00     0.000 OA
ENDBRANCH 42 49
BRANCH 43 53
ATOM     53   O  SUS B   3      28.302  20.037  27.2180  0.00  0.00     0.000 O
ATOM     54   S  SUS B   3      28.426  21.621  27.6400  0.00  0.00     0.000 S
ATOM     55   O  SUS B   3      28.734  21.670  29.0620  0.00  0.00     0.000 OA
ATOM     56   O  SUS B   3      29.489  22.129  26.7920  0.00  0.00     0.000 OA
ATOM     57   O  SUS B   3      27.122  22.228  27.3580  0.00  0.00     0.000 OA
ENDBRANCH 43 53
BRANCH 45 58
ATOM     58   C  SUS B   3      24.521  17.068  25.9920  0.00  0.00     0.000 C
ATOM     59   S  SUS B   3      24.618  15.011  24.4600  0.00  0.00     0.000 S
ATOM     60   O  SUS B   3      25.142  15.798  25.7310  0.00  0.00     0.000 O
ATOM     61   O  SUS B   3      25.244  15.663  23.3250  0.00  0.00     0.000 OA
ATOM     62   O  SUS B   3      25.156  13.702  24.7160  0.00  0.00     0.000 OA
ATOM     63   O  SUS B   3      23.203  15.107  24.5110  0.00  0.00     0.000 OA
ENDBRANCH 45 58
BRANCH 41 64
ATOM     64  O4  IDS B   4      25.567  18.017  30.1000  0.00  0.00     0.000 O
BRANCH 64 68
ATOM     65  C1  IDS B   4      23.688  17.695  33.2040  0.00  0.00     0.000 C
ATOM     66  C2  IDS B   4      24.839  16.729  32.8950  0.00  0.00     0.000 C
ATOM     67  C3  IDS B   4      24.819  16.160  31.4860  0.00  0.00     0.000 C
ATOM     68  C4  IDS B   4      24.433  17.189  30.4400  0.00  0.00     0.000 C
ATOM     69  C5  IDS B   4      23.234  17.984  30.9720  0.00  0.00     0.000 C
ATOM     70  O5  IDS B   4      23.613  18.662  32.1720  0.00  0.00     0.000 O
ATOM     71   O  IDS B   4      23.889  15.097  31.4760  0.00  0.00     0.000 O
ATOM     73  HD  IDS B   4      24.421  15.674  31.8420  0.00  0.00     0.000 HD
BRANCH 66 73
ATOM     73   O  IDS B   4      26.110  17.458  33.0040  0.00  0.00     0.000 O
ATOM     74   S  IDS B   4      27.164  16.979  34.1350  0.00  0.00     0.000 S
ATOM     75   O  IDS B   4      26.461  17.034  35.3990  0.00  0.00     0.000 OA
ATOM     76   O  IDS B   4      28.209  17.962  34.0010  0.00  0.00     0.000 OA
ATOM     77   O  IDS B   4      27.554  15.642  33.7550  0.00  0.00     0.000 OA
ENDBRANCH 66 73
BRANCH 69 78
ATOM     78   C  IDS B   4      22.588  18.909  29.9490  0.00  0.00     0.000 C
ATOM     79   O  IDS B   4      22.296  20.055  30.2890  0.00  0.00     0.000 OA
ATOM     80   O  IDS B   4      22.473  18.511  28.7750  0.00  0.00     0.000 OA
ENDBRANCH 69 78
BRANCH 65 81
ATOM     81  O4  SGN B   5      22.555  16.982  33.4600  0.00  0.00     0.000 O
BRANCH 81 85
ATOM     82  C1  SGN B   5      19.102  16.886  35.8480  0.00  0.00     0.000 C
ATOM     83  C2  SGN B   5      19.073  17.803  34.6160  0.00  0.00     0.000 C
ATOM     84  C3  SGN B   5      20.175  17.379  33.6350  0.00  0.00     0.000 C
ATOM     85  C4  SGN B   5      21.513  17.385  34.3520  0.00  0.00     0.000 C
ATOM     86  C5  SGN B   5      21.427  16.425  35.5360  0.00  0.00     0.000 C
ATOM     87  O5  SGN B   5      20.393  16.884  36.4280  0.00  0.00     0.000 O
ATOM     88   O  SGN B   5      20.191  18.252  32.5260  0.00  0.00     0.000 O
ATOM     90  HD  SGN B   5      19.846  17.458  32.5350  0.00  0.00     0.000 HD
BRANCH 83 92
ATOM     90   N  SGN B   5      17.889  18.348  35.3090  0.00  0.00     0.000 N
ATOM     92  HD  SGN B   5      18.122  18.818  35.9980  0.00  0.00     0.000 HD
ATOM     92   S  SGN B   5      16.724  18.984  34.4190  0.00  0.00     0.000 S
ATOM     93   O  SGN B   5      15.747  19.418  35.3710  0.00  0.00     0.000 OA
ATOM     94   O  SGN B   5      17.361  19.931  33.5680  0.00  0.00     0.000 OA
ATOM     95   O  SGN B   5      16.242  17.846  33.5460  0.00  0.00     0.000 OA
ENDBRANCH 83 92
BRANCH 86 96
ATOM     96   C  SGN B   5      22.704  16.319  36.3430  0.00  0.00     0.000 C
ATOM     97   O  SGN B   5      23.184  17.618  36.6980  0.00  0.00     0.000 O
ATOM     98   S  SGN B   5      23.527  17.845  38.2480  0.00  0.00     0.000 S
ATOM     99   O  SGN B   5      24.162  19.141  38.2470  0.00  0.00     0.000 OA
ATOM    100   O  SGN B   5      22.307  17.784  38.9690  0.00  0.00     0.000 OA
ATOM    101   O  SGN B   5      24.419  16.779  38.5730  0.00  0.00     0.000 OA
ENDBRANCH 86 96
BRANCH 82 102
ATOM    102  O4  IDS B   6      18.707  15.613  35.5640  0.00  0.00     0.000 O
BRANCH 102 106
ATOM    103  C1  IDS B   6      16.583  12.670  35.8590  0.00  0.00     0.000 C
ATOM    104  C2  IDS B   6      15.969  14.072  35.7210  0.00  0.00     0.000 C
ATOM    105  C3  IDS B   6      16.570  15.129  36.6270  0.00  0.00     0.000 C
ATOM    106  C4  IDS B   6      18.081  15.022  36.7310  0.00  0.00     0.000 C
ATOM    107  C5  IDS B   6      18.486  13.553  36.8810  0.00  0.00     0.000 C
ATOM    108  O5  IDS B   6      17.995  12.752  35.8050  0.00  0.00     0.000 O
ATOM    109   O  IDS B   6      15.967  15.010  37.9050  0.00  0.00     0.000 O
ATOM    111  HD  IDS B   6      15.682  14.192  37.9250  0.00  0.00     0.000 HD
BRANCH 104 111
ATOM    111   O  IDS B   6      16.193  14.561  34.3520  0.00  0.00     0.000 O
ATOM    112   S  IDS B   6      14.951  14.569  33.3420  0.00  0.00     0.000 S
ATOM    113   O  IDS B   6      14.513  13.183  33.2880  0.00  0.00     0.000 OA
ATOM    114   O  IDS B   6      13.946  15.509  33.8510  0.00  0.00     0.000 OA
ATOM    115   O  IDS B   6      15.626  15.019  32.1440  0.00  0.00     0.000 OA
ENDBRANCH 104 111
BRANCH 107 116
ATOM    116   C  IDS B   6      20.004  13.453  36.9490  0.00  0.00     0.000 C
ATOM    117   O  IDS B   6      20.535  13.910  37.9300  0.00  0.00     0.000 OA
ATOM    118   O  IDS B   6      20.648  12.943  36.0460  0.00  0.00     0.000 OA
ENDBRANCH 107 116
BRANCH 103 119
ATOM    119  O4  SGN B   7      15.947  12.145  36.9370  0.00  0.00     0.000 O
BRANCH 119 123
ATOM    120  C1  SGN B   7      15.042   8.307  38.3290  0.00  0.00     0.000 C
ATOM    121  C2  SGN B   7      16.417   8.894  38.6990  0.00  0.00     0.000 C
ATOM    122  C3  SGN B   7      16.432  10.411  38.4720  0.00  0.00     0.000 C
ATOM    123  C4  SGN B   7      15.992  10.723  37.0520  0.00  0.00     0.000 C
ATOM    124  C5  SGN B   7      14.618  10.090  36.7800  0.00  0.00     0.000 C
ATOM    125  O5  SGN B   7      14.650   8.662  37.0040  0.00  0.00     0.000 O
ATOM    126   O  SGN B   7      17.751  10.907  38.7310  0.00  0.00     0.000 O
ATOM    128  HD  SGN B   7      17.192  10.248  38.7750  0.00  0.00     0.000 HD
BRANCH 121 130
ATOM    128   N  SGN B   7      16.657   7.577  39.2950  0.00  0.00     0.000 N
ATOM    130  HD  SGN B   7      17.422   7.526  38.8910  0.00  0.00     0.000 HD
ATOM    130   S  SGN B   7      17.727   7.351  40.4770  0.00  0.00     0.000 S
ATOM    131   O  SGN B   7      17.417   8.339  41.4530  0.00  0.00     0.000 OA
ATOM    132   O  SGN B   7      17.725   5.975  40.8230  0.00  0.00     0.000 OA
ATOM    133   O  SGN B   7      19.065   7.559  39.6890  0.00  0.00     0.000 OA
ENDBRANCH 121 130
BRANCH 124 134
ATOM    134   C  SGN B   7      14.148  10.244  35.3630  0.00  0.00     0.000 C
ATOM    135   O  SGN B   7      13.316   9.119  35.0310  0.00  0.00     0.000 O
ATOM    136   S  SGN B   7      12.597   9.168  33.6360  0.00  0.00     0.000 S
ATOM    137   O  SGN B   7      11.916   7.904  33.4860  0.00  0.00     0.000 OA
ATOM    138   O  SGN B   7      13.656   9.356  32.6710  0.00  0.00     0.000 OA
ATOM    139   O  SGN B   7      11.706  10.308  33.7830  0.00  0.00     0.000 OA
ENDBRANCH 124 134
BRANCH 120 140
ATOM    140  O4  IDS B   8      13.872   8.495  38.9500  0.00  0.00     0.000 O
BRANCH 140 144
ATOM    141  C1  IDS B   8      11.380  10.350  40.7690  0.00  0.00     0.000 C
ATOM    142  C2  IDS B   8      12.896  10.581  41.0280  0.00  0.00     0.000 C
ATOM    143  C3  IDS B   8      13.680   9.271  41.2330  0.00  0.00     0.000 C
ATOM    144  C4  IDS B   8      13.279   8.200  40.2210  0.00  0.00     0.000 C
ATOM    145  C5  IDS B   8      11.749   8.142  40.0880  0.00  0.00     0.000 C
ATOM    146  O5  IDS B   8      11.205   9.407  39.7200  0.00  0.00     0.000 O
BRANCH 142 147
ATOM    147   O  IDS B   8      13.498  11.276  39.8600  0.00  0.00     0.000 O
ATOM    148   S  IDS B   8      13.750  12.878  39.8790  0.00  0.00     0.000 S
ATOM    149   O  IDS B   8      12.963  13.433  40.9580  0.00  0.00     0.000 OA
ATOM    150   O  IDS B   8      15.177  13.044  40.0820  0.00  0.00     0.000 OA
ATOM    151   O  IDS B   8      13.300  13.350  38.5830  0.00  0.00     0.000 OA
ENDBRANCH 142 147
BRANCH 145 152
ATOM    152   C  IDS B   8      11.292   7.165  39.0240  0.00  0.00     0.000 C
ATOM    153   O  IDS B   8      10.615   7.567  38.0850  0.00  0.00     0.000 OA
ATOM    154   O  IDS B   8      11.619   5.994  39.1030  0.00  0.00     0.000 OA
ENDBRANCH 145 152
ENDBRANCH 140 144
ENDBRANCH 120 140
ENDBRANCH 119 123
ENDBRANCH 103 119
ENDBRANCH 102 106
ENDBRANCH 82 102
ENDBRANCH 81 85
ENDBRANCH 65 81
ENDBRANCH 64 68
ENDBRANCH 41 64
ENDBRANCH 40 44
ENDBRANCH 24 40
ENDBRANCH 23 27
ENDBRANCH 1 23
TORSDOF 31
ENDMDL
MODEL 66
REMARK VINA RESULT:      -6.8      4.353      7.077
ROOT
ATOM      1  C1  SGN B   1      29.146  11.862  13.2310  0.00  0.00     0.000 C
ATOM      2  C2  SGN B   1      29.738  11.026  14.3780  0.00  0.00     0.000 C
ATOM      3  C3  SGN B   1      29.625  11.774  15.7100  0.00  0.00     0.000 C
ATOM      4  C4  SGN B   1      30.285  13.144  15.6030  0.00  0.00     0.000 C
ATOM      5  C5  SGN B   1      29.752  13.860  14.3630  0.00  0.00     0.000 C
ATOM      6  O5  SGN B   1      29.955  13.030  13.2040  0.00  0.00     0.000 O
ATOM      7   O  SGN B   1      30.214  11.017  16.7610  0.00  0.00     0.000 O
ATOM      9  HD  SGN B   1      30.890  11.144  16.2350  0.00  0.00     0.000 HD
ATOM      9   O  SGN B   1      29.995  13.899  16.7650  0.00  0.00     0.000 O
ATOM     11  HD  SGN B   1      30.671  14.026  16.2390  0.00  0.00     0.000 HD
ENDROOT
BRANCH 2 13
ATOM     11   N  SGN B   1      29.173   9.671  14.5200  0.00  0.00     0.000 N
ATOM     13  HD  SGN B   1      29.812   9.824  13.9560  0.00  0.00     0.000 HD
ATOM     13   S  SGN B   1      29.163   8.612  13.3090  0.00  0.00     0.000 S
ATOM     14   O  SGN B   1      29.801   9.162  12.1780  0.00  0.00     0.000 OA
ATOM     15   O  SGN B   1      29.592   7.350  13.8110  0.00  0.00     0.000 OA
ATOM     16   O  SGN B   1      27.619   8.524  13.1020  0.00  0.00     0.000 OA
ENDBRANCH 2 13
BRANCH 5 17
ATOM     17   C  SGN B   1      30.415  15.187  14.0880  0.00  0.00     0.000 C
ATOM     18   O  SGN B   1      30.160  16.121  15.1560  0.00  0.00     0.000 O
ATOM     19   S  SGN B   1      29.739  17.598  14.7100  0.00  0.00     0.000 S
ATOM     20   O  SGN B   1      29.774  18.381  15.9270  0.00  0.00     0.000 OA
ATOM     21   O  SGN B   1      30.749  17.977  13.7500  0.00  0.00     0.000 OA
ATOM     22   O  SGN B   1      28.414  17.460  14.1470  0.00  0.00     0.000 OA
ENDBRANCH 5 17
BRANCH 1 23
ATOM     23  O4  IDS B   2      27.964  12.076  12.5860  0.00  0.00     0.000 O
BRANCH 23 27
ATOM     24  C1  IDS B   2      25.473  14.538  14.8140  0.00  0.00     0.000 C
ATOM     25  C2  IDS B   2      25.166  13.026  14.8980  0.00  0.00     0.000 C
ATOM     26  C3  IDS B   2      26.303  12.204  14.2960  0.00  0.00     0.000 C
ATOM     27  C4  IDS B   2      26.651  12.604  12.8690  0.00  0.00     0.000 C
ATOM     28  C5  IDS B   2      26.529  14.133  12.7050  0.00  0.00     0.000 C
ATOM     29  O5  IDS B   2      26.601  14.785  13.9640  0.00  0.00     0.000 O
ATOM     30   O  IDS B   2      25.929  10.831  14.2790  0.00  0.00     0.000 O
ATOM     32  HD  IDS B   2      25.398  10.630  13.6260  0.00  0.00     0.000 HD
BRANCH 25 32
ATOM     32   O  IDS B   2      24.975  12.569  16.2970  0.00  0.00     0.000 O
ATOM     33   S  IDS B   2      23.648  11.703  16.7570  0.00  0.00     0.000 S
ATOM     34   O  IDS B   2      23.693  11.634  18.2090  0.00  0.00     0.000 OA
ATOM     35   O  IDS B   2      22.444  12.379  16.2940  0.00  0.00     0.000 OA
ATOM     36   O  IDS B   2      23.810  10.396  16.1630  0.00  0.00     0.000 OA
ENDBRANCH 25 32
BRANCH 28 37
ATOM     37   C  IDS B   2      27.507  14.834  11.7400  0.00  0.00     0.000 C
ATOM     38   O  IDS B   2      27.625  16.015  11.9690  0.00  0.00     0.000 OA
ATOM     39   O  IDS B   2      28.193  14.296  10.8360  0.00  0.00     0.000 OA
ENDBRANCH 28 37
BRANCH 24 40
ATOM     40  O4  SUS B   3      24.556  15.434  15.2340  0.00  0.00     0.000 O
BRANCH 40 44
ATOM     41  C1  SUS B   3      25.062  19.281  16.8130  0.00  0.00     0.000 C
ATOM     42  C2  SUS B   3      25.193  19.123  15.2850  0.00  0.00     0.000 C
ATOM     43  C3  SUS B   3      24.522  17.821  14.8540  0.00  0.00     0.000 C
ATOM     44  C4  SUS B   3      25.125  16.672  15.6480  0.00  0.00     0.000 C
ATOM     45  C5  SUS B   3      24.851  16.897  17.1210  0.00  0.00     0.000 C
ATOM     46  O5  SUS B   3      25.508  18.118  17.5190  0.00  0.00     0.000 O
BRANCH 42 49
ATOM     47   N  SUS B   3      26.037  20.330  15.2920  0.00  0.00     0.000 N
ATOM     49  HD  SUS B   3      25.972  20.844  15.9870  0.00  0.00     0.000 HD
ATOM     49   S  SUS B   3      25.837  21.233  13.9840  0.00  0.00     0.000 S
ATOM     50   O  SUS B   3      24.482  21.604  13.8600  0.00  0.00     0.000 OA
ATOM     51   O  SUS B   3      26.690  22.435  14.4630  0.00  0.00     0.000 OA
ATOM     52   O  SUS B   3      26.444  20.600  12.8820  0.00  0.00     0.000 OA
ENDBRANCH 42 49
BRANCH 43 53
ATOM     53   O  SUS B   3      24.785  17.628  13.4150  0.00  0.00     0.000 O
ATOM     54   S  SUS B   3      23.484  17.626  12.4100  0.00  0.00     0.000 S
ATOM     55   O  SUS B   3      22.983  18.992  12.3420  0.00  0.00     0.000 OA
ATOM     56   O  SUS B   3      24.013  17.134  11.1500  0.00  0.00     0.000 OA
ATOM     57   O  SUS B   3      22.495  16.727  13.0120  0.00  0.00     0.000 OA
ENDBRANCH 43 53
BRANCH 45 58
ATOM     58   C  SUS B   3      25.334  15.742  17.9700  0.00  0.00     0.000 C
ATOM     59   S  SUS B   3      24.925  14.553  20.2070  0.00  0.00     0.000 S
ATOM     60   O  SUS B   3      24.454  15.576  19.0940  0.00  0.00     0.000 O
ATOM     61   O  SUS B   3      25.930  15.264  20.9750  0.00  0.00     0.000 OA
ATOM     62   O  SUS B   3      23.699  14.366  20.9350  0.00  0.00     0.000 OA
ATOM     63   O  SUS B   3      25.393  13.413  19.5020  0.00  0.00     0.000 OA
ENDBRANCH 45 58
BRANCH 41 64
ATOM     64  O4  IDS B   4      23.837  19.749  17.2180  0.00  0.00     0.000 O
BRANCH 64 68
ATOM     65  C1  IDS B   4      21.457  21.713  19.1560  0.00  0.00     0.000 C
ATOM     66  C2  IDS B   4      22.725  22.370  18.5960  0.00  0.00     0.000 C
ATOM     67  C3  IDS B   4      23.998  21.573  18.8240  0.00  0.00     0.000 C
ATOM     68  C4  IDS B   4      23.804  20.081  18.6240  0.00  0.00     0.000 C
ATOM     69  C5  IDS B   4      22.498  19.673  19.3180  0.00  0.00     0.000 C
ATOM     70  O5  IDS B   4      21.406  20.369  18.7130  0.00  0.00     0.000 O
ATOM     71   O  IDS B   4      24.420  21.826  20.1480  0.00  0.00     0.000 O
ATOM     73  HD  IDS B   4      23.975  21.977  19.4210  0.00  0.00     0.000 HD
BRANCH 66 73
ATOM     73   O  IDS B   4      22.592  22.486  17.1370  0.00  0.00     0.000 O
ATOM     74   S  IDS B   4      22.293  23.950  16.5170  0.00  0.00     0.000 S
ATOM     75   O  IDS B   4      21.084  24.426  17.1550  0.00  0.00     0.000 OA
ATOM     76   O  IDS B   4      22.139  23.652  15.1150  0.00  0.00     0.000 OA
ATOM     77   O  IDS B   4      23.455  24.746  16.8310  0.00  0.00     0.000 OA
ENDBRANCH 66 73
BRANCH 69 78
ATOM     78   C  IDS B   4      22.271  18.169  19.3970  0.00  0.00     0.000 C
ATOM     79   O  IDS B   4      21.824  17.586  18.4100  0.00  0.00     0.000 OA
ATOM     80   O  IDS B   4      22.644  17.563  20.4180  0.00  0.00     0.000 OA
ENDBRANCH 69 78
BRANCH 65 81
ATOM     81  O4  SGN B   5      21.398  21.918  20.5020  0.00  0.00     0.000 O
BRANCH 81 85
ATOM     82  C1  SGN B   5      18.772  22.517  23.7240  0.00  0.00     0.000 C
ATOM     83  C2  SGN B   5      18.729  21.145  23.0350  0.00  0.00     0.000 C
ATOM     84  C3  SGN B   5      20.019  20.934  22.2300  0.00  0.00     0.000 C
ATOM     85  C4  SGN B   5      20.196  22.087  21.2570  0.00  0.00     0.000 C
ATOM     86  C5  SGN B   5      20.248  23.386  22.0570  0.00  0.00     0.000 C
ATOM     87  O5  SGN B   5      19.007  23.537  22.7730  0.00  0.00     0.000 O
ATOM     88   O  SGN B   5      19.962  19.701  21.5470  0.00  0.00     0.000 O
ATOM     90  HD  SGN B   5      20.401  19.850  22.2780  0.00  0.00     0.000 HD
BRANCH 83 92
ATOM     90   N  SGN B   5      17.608  21.029  23.9880  0.00  0.00     0.000 N
ATOM     92  HD  SGN B   5      17.032  21.664  23.8690  0.00  0.00     0.000 HD
ATOM     92   S  SGN B   5      16.977  19.581  24.2330  0.00  0.00     0.000 S
ATOM     93   O  SGN B   5      15.931  19.807  25.1850  0.00  0.00     0.000 OA
ATOM     94   O  SGN B   5      16.669  19.070  22.9420  0.00  0.00     0.000 OA
ATOM     95   O  SGN B   5      18.118  18.754  24.7860  0.00  0.00     0.000 OA
ENDBRANCH 83 92
BRANCH 86 96
ATOM     96   C  SGN B   5      20.435  24.628  21.2110  0.00  0.00     0.000 C
ATOM     97   O  SGN B   5      19.202  25.006  20.5940  0.00  0.00     0.000 O
ATOM     98   S  SGN B   5      18.761  26.538  20.7760  0.00  0.00     0.000 S
ATOM     99   O  SGN B   5      17.625  26.649  19.8940  0.00  0.00     0.000 OA
ATOM    100   O  SGN B   5      18.466  26.735  22.1500  0.00  0.00     0.000 OA
ATOM    101   O  SGN B   5      19.893  27.287  20.3370  0.00  0.00     0.000 OA
ENDBRANCH 86 96
BRANCH 82 102
ATOM    102  O4  IDS B   6      19.700  22.574  24.7210  0.00  0.00     0.000 O
BRANCH 102 106
ATOM    103  C1  IDS B   6      20.829  22.931  28.1640  0.00  0.00     0.000 C
ATOM    104  C2  IDS B   6      19.632  22.032  27.8190  0.00  0.00     0.000 C
ATOM    105  C3  IDS B   6      18.605  22.657  26.8940  0.00  0.00     0.000 C
ATOM    106  C4  IDS B   6      19.238  23.460  25.7720  0.00  0.00     0.000 C
ATOM    107  C5  IDS B   6      20.394  24.299  26.3250  0.00  0.00     0.000 C
ATOM    108  O5  IDS B   6      21.371  23.491  26.9830  0.00  0.00     0.000 O
ATOM    109   O  IDS B   6      17.746  23.472  27.6750  0.00  0.00     0.000 O
ATOM    111  HD  IDS B   6      18.217  23.658  28.3770  0.00  0.00     0.000 HD
BRANCH 104 111
ATOM    111   O  IDS B   6      20.117  20.838  27.1110  0.00  0.00     0.000 O
ATOM    112   S  IDS B   6      20.050  19.432  27.8720  0.00  0.00     0.000 S
ATOM    113   O  IDS B   6      20.845  19.629  29.0750  0.00  0.00     0.000 OA
ATOM    114   O  IDS B   6      18.641  19.102  28.1160  0.00  0.00     0.000 OA
ATOM    115   O  IDS B   6      20.688  18.596  26.8780  0.00  0.00     0.000 OA
ENDBRANCH 104 111
BRANCH 107 116
ATOM    116   C  IDS B   6      21.045  25.072  25.1850  0.00  0.00     0.000 C
ATOM    117   O  IDS B   6      22.108  24.665  24.7910  0.00  0.00     0.000 OA
ATOM    118   O  IDS B   6      20.515  26.062  24.7050  0.00  0.00     0.000 OA
ENDBRANCH 107 116
BRANCH 103 119
ATOM    119  O4  SGN B   7      20.363  23.716  29.1690  0.00  0.00     0.000 O
BRANCH 119 123
ATOM    120  C1  SGN B   7      21.923  25.442  32.6440  0.00  0.00     0.000 C
ATOM    121  C2  SGN B   7      22.255  26.118  31.3010  0.00  0.00     0.000 C
ATOM    122  C3  SGN B   7      21.305  25.625  30.2010  0.00  0.00     0.000 C
ATOM    123  C4  SGN B   7      21.327  24.107  30.1480  0.00  0.00     0.000 C
ATOM    124  C5  SGN B   7      20.991  23.530  31.5330  0.00  0.00     0.000 C
ATOM    125  O5  SGN B   7      21.910  24.019  32.5350  0.00  0.00     0.000 O
ATOM    126   O  SGN B   7      21.704  26.198  28.9510  0.00  0.00     0.000 O
ATOM    128  HD  SGN B   7      21.788  26.182  29.8120  0.00  0.00     0.000 HD
BRANCH 121 130
ATOM    128   N  SGN B   7      23.310  26.911  31.9370  0.00  0.00     0.000 N
ATOM    130  HD  SGN B   7      23.746  26.943  31.1890  0.00  0.00     0.000 HD
ATOM    130   S  SGN B   7      23.499  28.483  31.6430  0.00  0.00     0.000 S
ATOM    131   O  SGN B   7      22.208  29.054  31.8260  0.00  0.00     0.000 OA
ATOM    132   O  SGN B   7      24.603  28.949  32.4020  0.00  0.00     0.000 OA
ATOM    133   O  SGN B   7      24.025  28.433  30.1690  0.00  0.00     0.000 OA
ENDBRANCH 121 130
BRANCH 124 134
ATOM    134   C  SGN B   7      21.100  22.036  31.6110  0.00  0.00     0.000 C
ATOM    135   O  SGN B   7      21.677  21.684  32.8800  0.00  0.00     0.000 O
ATOM    136   S  SGN B   7      21.735  20.152  33.2220  0.00  0.00     0.000 S
ATOM    137   O  SGN B   7      22.439  20.043  34.4770  0.00  0.00     0.000 OA
ATOM    138   O  SGN B   7      22.448  19.545  32.1210  0.00  0.00     0.000 OA
ATOM    139   O  SGN B   7      20.327  19.795  33.2990  0.00  0.00     0.000 OA
ENDBRANCH 124 134
BRANCH 120 140
ATOM    140  O4  IDS B   8      20.831  25.603  33.4000  0.00  0.00     0.000 O
BRANCH 140 144
ATOM    141  C1  IDS B   8      17.337  26.006  34.1720  0.00  0.00     0.000 C
ATOM    142  C2  IDS B   8      17.958  26.663  32.9060  0.00  0.00     0.000 C
ATOM    143  C3  IDS B   8      19.259  27.431  33.2010  0.00  0.00     0.000 C
ATOM    144  C4  IDS B   8      20.186  26.652  34.1330  0.00  0.00     0.000 C
ATOM    145  C5  IDS B   8      19.385  26.062  35.3030  0.00  0.00     0.000 C
ATOM    146  O5  IDS B   8      18.320  25.231  34.8480  0.00  0.00     0.000 O
BRANCH 142 147
ATOM    147   O  IDS B   8      18.285  25.609  31.9100  0.00  0.00     0.000 O
ATOM    148   S  IDS B   8      17.277  25.277  30.6830  0.00  0.00     0.000 S
ATOM    149   O  IDS B   8      15.992  25.855  31.0030  0.00  0.00     0.000 OA
ATOM    150   O  IDS B   8      17.886  25.875  29.5090  0.00  0.00     0.000 OA
ATOM    151   O  IDS B   8      17.219  23.829  30.6180  0.00  0.00     0.000 OA
ENDBRANCH 142 147
BRANCH 145 152
ATOM    152   C  IDS B   8      20.232  25.194  36.2110  0.00  0.00     0.000 C
ATOM    153   O  IDS B   8      20.043  23.983  36.2380  0.00  0.00     0.000 OA
ATOM    154   O  IDS B   8      21.105  25.705  36.8900  0.00  0.00     0.000 OA
ENDBRANCH 145 152
ENDBRANCH 140 144
ENDBRANCH 120 140
ENDBRANCH 119 123
ENDBRANCH 103 119
ENDBRANCH 102 106
ENDBRANCH 82 102
ENDBRANCH 81 85
ENDBRANCH 65 81
ENDBRANCH 64 68
ENDBRANCH 41 64
ENDBRANCH 40 44
ENDBRANCH 24 40
ENDBRANCH 23 27
ENDBRANCH 1 23
TORSDOF 31
ENDMDL
MODEL 67
REMARK VINA RESULT:      -6.8      4.080      6.624
ROOT
ATOM      1  C1  SGN B   1      26.683  13.217  15.4710  0.00  0.00     0.000 C
ATOM      2  C2  SGN B   1      26.660  11.700  15.2230  0.00  0.00     0.000 C
ATOM      3  C3  SGN B   1      28.070  11.111  15.3320  0.00  0.00     0.000 C
ATOM      4  C4  SGN B   1      29.017  11.831  14.3770  0.00  0.00     0.000 C
ATOM      5  C5  SGN B   1      28.882  13.338  14.5830  0.00  0.00     0.000 C
ATOM      6  O5  SGN B   1      27.503  13.724  14.4270  0.00  0.00     0.000 O
ATOM      7   O  SGN B   1      28.052   9.715  15.0580  0.00  0.00     0.000 O
ATOM      9  HD  SGN B   1      27.763  10.045  14.3110  0.00  0.00     0.000 HD
ATOM      9   O  SGN B   1      30.347  11.420  14.6350  0.00  0.00     0.000 O
ATOM     11  HD  SGN B   1      30.058  11.750  13.8880  0.00  0.00     0.000 HD
ENDROOT
BRANCH 2 13
ATOM     11   N  SGN B   1      25.240  11.376  14.9850  0.00  0.00     0.000 N
ATOM     13  HD  SGN B   1      25.473  11.864  15.6620  0.00  0.00     0.000 HD
ATOM     13   S  SGN B   1      24.168  11.283  16.1810  0.00  0.00     0.000 S
ATOM     14   O  SGN B   1      24.783  11.601  17.4100  0.00  0.00     0.000 OA
ATOM     15   O  SGN B   1      22.991  11.982  15.7860  0.00  0.00     0.000 OA
ATOM     16   O  SGN B   1      23.854   9.759  16.0810  0.00  0.00     0.000 OA
ENDBRANCH 2 13
BRANCH 5 17
ATOM     17   C  SGN B   1      29.693  14.165  13.6160  0.00  0.00     0.000 C
ATOM     18   O  SGN B   1      28.877  15.179  12.9960  0.00  0.00     0.000 O
ATOM     19   S  SGN B   1      29.046  15.346  11.4150  0.00  0.00     0.000 S
ATOM     20   O  SGN B   1      28.318  16.553  11.0850  0.00  0.00     0.000 OA
ATOM     21   O  SGN B   1      30.473  15.461  11.2230  0.00  0.00     0.000 OA
ATOM     22   O  SGN B   1      28.470  14.148  10.8450  0.00  0.00     0.000 OA
ENDBRANCH 5 17
BRANCH 1 23
ATOM     23  O4  IDS B   2      26.580  14.120  16.4880  0.00  0.00     0.000 O
BRANCH 23 27
ATOM     24  C1  IDS B   2      25.308  16.988  19.2060  0.00  0.00     0.000 C
ATOM     25  C2  IDS B   2      24.188  16.258  18.4330  0.00  0.00     0.000 C
ATOM     26  C3  IDS B   2      24.737  15.039  17.6970  0.00  0.00     0.000 C
ATOM     27  C4  IDS B   2      25.905  15.363  16.7740  0.00  0.00     0.000 C
ATOM     28  C5  IDS B   2      26.800  16.442  17.4160  0.00  0.00     0.000 C
ATOM     29  O5  IDS B   2      26.599  16.499  18.8200  0.00  0.00     0.000 O
ATOM     30   O  IDS B   2      23.706  14.469  16.9000  0.00  0.00     0.000 O
ATOM     32  HD  IDS B   2      23.572  14.895  16.1580  0.00  0.00     0.000 HD
BRANCH 25 32
ATOM     32   O  IDS B   2      23.102  15.788  19.3290  0.00  0.00     0.000 O
ATOM     33   S  IDS B   2      21.517  16.141  19.0370  0.00  0.00     0.000 S
ATOM     34   O  IDS B   2      20.784  15.720  20.2200  0.00  0.00     0.000 OA
ATOM     35   O  IDS B   2      21.374  17.571  18.8020  0.00  0.00     0.000 OA
ATOM     36   O  IDS B   2      21.149  15.354  17.8820  0.00  0.00     0.000 OA
ENDBRANCH 25 32
BRANCH 28 37
ATOM     37   C  IDS B   2      28.317  16.375  17.1440  0.00  0.00     0.000 C
ATOM     38   O  IDS B   2      28.605  16.695  16.0150  0.00  0.00     0.000 OA
ATOM     39   O  IDS B   2      29.220  16.095  17.9700  0.00  0.00     0.000 OA
ENDBRANCH 28 37
BRANCH 24 40
ATOM     40  O4  SUS B   3      25.034  18.132  19.8670  0.00  0.00     0.000 O
BRANCH 40 44
ATOM     41  C1  SUS B   3      26.670  19.517  23.4660  0.00  0.00     0.000 C
ATOM     42  C2  SUS B   3      27.251  20.093  22.1600  0.00  0.00     0.000 C
ATOM     43  C3  SUS B   3      26.256  19.867  21.0240  0.00  0.00     0.000 C
ATOM     44  C4  SUS B   3      25.922  18.385  20.9510  0.00  0.00     0.000 C
ATOM     45  C5  SUS B   3      25.276  17.963  22.2550  0.00  0.00     0.000 C
ATOM     46  O5  SUS B   3      26.233  18.161  23.3150  0.00  0.00     0.000 O
BRANCH 42 49
ATOM     47   N  SUS B   3      28.514  20.344  22.8760  0.00  0.00     0.000 N
ATOM     49  HD  SUS B   3      28.476  20.337  23.7410  0.00  0.00     0.000 HD
ATOM     49   S  SUS B   3      29.223  21.706  22.4190  0.00  0.00     0.000 S
ATOM     50   O  SUS B   3      28.345  22.792  22.6110  0.00  0.00     0.000 OA
ATOM     51   O  SUS B   3      30.333  21.702  23.5000  0.00  0.00     0.000 OA
ATOM     52   O  SUS B   3      29.778  21.535  21.1350  0.00  0.00     0.000 OA
ENDBRANCH 42 49
BRANCH 43 53
ATOM     53   O  SUS B   3      26.896  20.299  19.7660  0.00  0.00     0.000 O
ATOM     54   S  SUS B   3      26.248  21.605  19.0060  0.00  0.00     0.000 S
ATOM     55   O  SUS B   3      26.565  22.778  19.8070  0.00  0.00     0.000 OA
ATOM     56   O  SUS B   3      26.880  21.600  17.6980  0.00  0.00     0.000 OA
ATOM     57   O  SUS B   3      24.801  21.376  18.9490  0.00  0.00     0.000 OA
ENDBRANCH 43 53
BRANCH 45 58
ATOM     58   C  SUS B   3      24.823  16.521  22.2220  0.00  0.00     0.000 C
ATOM     59   S  SUS B   3      23.443  14.793  23.5250  0.00  0.00     0.000 S
ATOM     60   O  SUS B   3      23.865  16.298  23.2710  0.00  0.00     0.000 O
ATOM     61   O  SUS B   3      24.543  14.212  24.2710  0.00  0.00     0.000 OA
ATOM     62   O  SUS B   3      22.264  14.978  24.3270  0.00  0.00     0.000 OA
ATOM     63   O  SUS B   3      23.221  14.238  22.2370  0.00  0.00     0.000 OA
ENDBRANCH 45 58
BRANCH 41 64
ATOM     64  O4  IDS B   4      25.752  20.338  24.0730  0.00  0.00     0.000 O
BRANCH 64 68
ATOM     65  C1  IDS B   4      24.098  21.698  27.0220  0.00  0.00     0.000 C
ATOM     66  C2  IDS B   4      25.549  21.206  27.1070  0.00  0.00     0.000 C
ATOM     67  C3  IDS B   4      25.792  19.854  26.4590  0.00  0.00     0.000 C
ATOM     68  C4  IDS B   4      25.045  19.684  25.1500  0.00  0.00     0.000 C
ATOM     69  C5  IDS B   4      23.614  20.204  25.3460  0.00  0.00     0.000 C
ATOM     70  O5  IDS B   4      23.660  21.594  25.6790  0.00  0.00     0.000 O
ATOM     71   O  IDS B   4      25.375  18.867  27.3790  0.00  0.00     0.000 O
ATOM     73  HD  IDS B   4      25.619  19.660  27.1320  0.00  0.00     0.000 HD
BRANCH 66 73
ATOM     73   O  IDS B   4      26.412  22.149  26.3820  0.00  0.00     0.000 O
ATOM     74   S  IDS B   4      27.400  23.093  27.2480  0.00  0.00     0.000 S
ATOM     75   O  IDS B   4      26.562  23.818  28.1790  0.00  0.00     0.000 OA
ATOM     76   O  IDS B   4      27.992  23.918  26.2260  0.00  0.00     0.000 OA
ATOM     77   O  IDS B   4      28.325  22.192  27.8940  0.00  0.00     0.000 OA
ENDBRANCH 66 73
BRANCH 69 78
ATOM     78   C  IDS B   4      22.671  19.902  24.1900  0.00  0.00     0.000 C
ATOM     79   O  IDS B   4      22.959  20.318  23.0690  0.00  0.00     0.000 OA
ATOM     80   O  IDS B   4      21.695  19.157  24.3960  0.00  0.00     0.000 OA
ENDBRANCH 69 78
BRANCH 65 81
ATOM     81  O4  SGN B   5      23.348  21.062  27.9630  0.00  0.00     0.000 O
BRANCH 81 85
ATOM     82  C1  SGN B   5      20.063  21.505  30.5430  0.00  0.00     0.000 C
ATOM     83  C2  SGN B   5      19.761  21.400  29.0400  0.00  0.00     0.000 C
ATOM     84  C3  SGN B   5      20.969  20.790  28.3150  0.00  0.00     0.000 C
ATOM     85  C4  SGN B   5      22.206  21.617  28.6200  0.00  0.00     0.000 C
ATOM     86  C5  SGN B   5      22.415  21.628  30.1320  0.00  0.00     0.000 C
ATOM     87  O5  SGN B   5      21.261  22.227  30.7530  0.00  0.00     0.000 O
ATOM     88   O  SGN B   5      20.722  20.743  26.9270  0.00  0.00     0.000 O
ATOM     90  HD  SGN B   5      20.664  20.071  27.4700  0.00  0.00     0.000 HD
BRANCH 83 92
ATOM     90   N  SGN B   5      18.433  20.832  29.3430  0.00  0.00     0.000 N
ATOM     92  HD  SGN B   5      18.344  20.686  30.1910  0.00  0.00     0.000 HD
ATOM     92   S  SGN B   5      17.158  21.480  28.6290  0.00  0.00     0.000 S
ATOM     93   O  SGN B   5      16.050  20.723  29.1280  0.00  0.00     0.000 OA
ATOM     94   O  SGN B   5      17.241  22.877  28.8870  0.00  0.00     0.000 OA
ATOM     95   O  SGN B   5      17.401  21.278  27.1500  0.00  0.00     0.000 OA
ENDBRANCH 83 92
BRANCH 86 96
ATOM     96   C  SGN B   5      23.629  22.412  30.5850  0.00  0.00     0.000 C
ATOM     97   O  SGN B   5      23.609  23.732  30.0350  0.00  0.00     0.000 O
ATOM     98   S  SGN B   5      23.817  24.934  31.0760  0.00  0.00     0.000 S
ATOM     99   O  SGN B   5      23.951  26.082  30.2130  0.00  0.00     0.000 OA
ATOM    100   O  SGN B   5      22.682  24.961  31.9270  0.00  0.00     0.000 OA
ATOM    101   O  SGN B   5      25.021  24.601  31.7660  0.00  0.00     0.000 OA
ENDBRANCH 86 96
BRANCH 82 102
ATOM    102  O4  IDS B   6      20.130  20.287  31.1500  0.00  0.00     0.000 O
BRANCH 102 106
ATOM    103  C1  IDS B   6      19.050  17.797  33.5780  0.00  0.00     0.000 C
ATOM    104  C2  IDS B   6      18.024  18.670  32.8390  0.00  0.00     0.000 C
ATOM    105  C3  IDS B   6      18.347  20.152  32.8040  0.00  0.00     0.000 C
ATOM    106  C4  IDS B   6      19.821  20.425  32.5610  0.00  0.00     0.000 C
ATOM    107  C5  IDS B   6      20.671  19.467  33.4010  0.00  0.00     0.000 C
ATOM    108  O5  IDS B   6      20.358  18.100  33.1290  0.00  0.00     0.000 O
ATOM    109   O  IDS B   6      17.925  20.724  34.0310  0.00  0.00     0.000 O
ATOM    111  HD  IDS B   6      17.908  20.054  34.5790  0.00  0.00     0.000 HD
BRANCH 104 111
ATOM    111   O  IDS B   6      17.966  18.253  31.4290  0.00  0.00     0.000 O
ATOM    112   S  IDS B   6      16.725  17.357  30.9600  0.00  0.00     0.000 S
ATOM    113   O  IDS B   6      16.786  16.175  31.8060  0.00  0.00     0.000 OA
ATOM    114   O  IDS B   6      15.499  18.151  31.1030  0.00  0.00     0.000 OA
ATOM    115   O  IDS B   6      17.116  17.118  29.5870  0.00  0.00     0.000 OA
ENDBRANCH 104 111
BRANCH 107 116
ATOM    116   C  IDS B   6      22.146  19.725  33.1220  0.00  0.00     0.000 C
ATOM    117   O  IDS B   6      22.721  18.909  32.4470  0.00  0.00     0.000 OA
ATOM    118   O  IDS B   6      22.715  20.707  33.5710  0.00  0.00     0.000 OA
ENDBRANCH 107 116
BRANCH 103 119
ATOM    119  O4  SGN B   7      18.703  17.930  34.8840  0.00  0.00     0.000 O
BRANCH 119 123
ATOM    120  C1  SGN B   7      19.494  15.773  38.3790  0.00  0.00     0.000 C
ATOM    121  C2  SGN B   7      20.345  17.028  38.1070  0.00  0.00     0.000 C
ATOM    122  C3  SGN B   7      19.681  17.906  37.0380  0.00  0.00     0.000 C
ATOM    123  C4  SGN B   7      19.394  17.077  35.7980  0.00  0.00     0.000 C
ATOM    124  C5  SGN B   7      18.548  15.850  36.1740  0.00  0.00     0.000 C
ATOM    125  O5  SGN B   7      19.211  15.052  37.1810  0.00  0.00     0.000 O
ATOM    126   O  SGN B   7      20.545  19.009  36.7400  0.00  0.00     0.000 O
ATOM    128  HD  SGN B   7      20.365  18.334  37.2510  0.00  0.00     0.000 HD
BRANCH 121 130
ATOM    128   N  SGN B   7      20.685  16.867  39.5230  0.00  0.00     0.000 N
ATOM    130  HD  SGN B   7      21.390  16.412  39.3090  0.00  0.00     0.000 HD
ATOM    130   S  SGN B   7      21.905  17.662  40.2090  0.00  0.00     0.000 S
ATOM    131   O  SGN B   7      21.710  19.025  39.8500  0.00  0.00     0.000 OA
ATOM    132   O  SGN B   7      21.974  17.283  41.5740  0.00  0.00     0.000 OA
ATOM    133   O  SGN B   7      23.123  16.942  39.5370  0.00  0.00     0.000 OA
ENDBRANCH 121 130
BRANCH 124 134
ATOM    134   C  SGN B   7      18.309  14.905  35.0330  0.00  0.00     0.000 C
ATOM    135   O  SGN B   7      17.637  13.738  35.5380  0.00  0.00     0.000 O
ATOM    136   S  SGN B   7      17.157  12.690  34.4720  0.00  0.00     0.000 S
ATOM    137   O  SGN B   7      16.615  11.576  35.2120  0.00  0.00     0.000 OA
ATOM    138   O  SGN B   7      18.343  12.345  33.7200  0.00  0.00     0.000 OA
ATOM    139   O  SGN B   7      16.164  13.441  33.7200  0.00  0.00     0.000 OA
ENDBRANCH 124 134
BRANCH 120 140
ATOM    140  O4  IDS B   8      18.288  15.705  38.9530  0.00  0.00     0.000 O
BRANCH 140 144
ATOM    141  C1  IDS B   8      14.879  16.609  39.6780  0.00  0.00     0.000 C
ATOM    142  C2  IDS B   8      15.957  17.699  39.4140  0.00  0.00     0.000 C
ATOM    143  C3  IDS B   8      17.248  17.480  40.2250  0.00  0.00     0.000 C
ATOM    144  C4  IDS B   8      17.688  16.017  40.2160  0.00  0.00     0.000 C
ATOM    145  C5  IDS B   8      16.482  15.100  40.4690  0.00  0.00     0.000 C
ATOM    146  O5  IDS B   8      15.446  15.315  39.5140  0.00  0.00     0.000 O
BRANCH 142 147
ATOM    147   O  IDS B   8      16.333  17.686  37.9760  0.00  0.00     0.000 O
ATOM    148   S  IDS B   8      15.689  18.750  36.9340  0.00  0.00     0.000 S
ATOM    149   O  IDS B   8      14.520  19.324  37.5610  0.00  0.00     0.000 OA
ATOM    150   O  IDS B   8      16.731  19.728  36.6850  0.00  0.00     0.000 OA
ATOM    151   O  IDS B   8      15.346  17.972  35.7580  0.00  0.00     0.000 OA
ENDBRANCH 142 147
BRANCH 145 152
ATOM    152   C  IDS B   8      16.838  13.630  40.3750  0.00  0.00     0.000 C
ATOM    153   O  IDS B   8      17.567  13.128  41.2230  0.00  0.00     0.000 OA
ATOM    154   O  IDS B   8      16.379  12.957  39.4690  0.00  0.00     0.000 OA
ENDBRANCH 145 152
ENDBRANCH 140 144
ENDBRANCH 120 140
ENDBRANCH 119 123
ENDBRANCH 103 119
ENDBRANCH 102 106
ENDBRANCH 82 102
ENDBRANCH 81 85
ENDBRANCH 65 81
ENDBRANCH 64 68
ENDBRANCH 41 64
ENDBRANCH 40 44
ENDBRANCH 24 40
ENDBRANCH 23 27
ENDBRANCH 1 23
TORSDOF 31
ENDMDL
MODEL 68
REMARK VINA RESULT:      -6.8      7.962     11.401
ROOT
ATOM      1  C1  SGN B   1      28.184  10.821  14.3980  0.00  0.00     0.000 C
ATOM      2  C2  SGN B   1      29.504  10.419  15.0750  0.00  0.00     0.000 C
ATOM      3  C3  SGN B   1      30.172   9.265  14.3190  0.00  0.00     0.000 C
ATOM      4  C4  SGN B   1      29.210   8.088  14.2000  0.00  0.00     0.000 C
ATOM      5  C5  SGN B   1      27.875   8.587  13.6540  0.00  0.00     0.000 C
ATOM      6  O5  SGN B   1      27.381   9.652  14.4890  0.00  0.00     0.000 O
ATOM      7   O  SGN B   1      31.371   8.867  14.9740  0.00  0.00     0.000 O
ATOM      9  HD  SGN B   1      30.777   8.714  15.5860  0.00  0.00     0.000 HD
ATOM      9   O  SGN B   1      29.762   7.116  13.3300  0.00  0.00     0.000 O
ATOM     11  HD  SGN B   1      29.168   6.964  13.9420  0.00  0.00     0.000 HD
ENDROOT
BRANCH 2 13
ATOM     11   N  SGN B   1      29.327  11.460  16.1050  0.00  0.00     0.000 N
ATOM     13  HD  SGN B   1      29.533  11.676  15.2920  0.00  0.00     0.000 HD
ATOM     13   S  SGN B   1      30.097  12.872  16.0420  0.00  0.00     0.000 S
ATOM     14   O  SGN B   1      30.878  12.947  14.8690  0.00  0.00     0.000 OA
ATOM     15   O  SGN B   1      29.162  13.907  16.3280  0.00  0.00     0.000 OA
ATOM     16   O  SGN B   1      30.990  12.695  17.3080  0.00  0.00     0.000 OA
ENDBRANCH 2 13
BRANCH 5 17
ATOM     17   C  SGN B   1      26.802   7.528  13.5930  0.00  0.00     0.000 C
ATOM     18   O  SGN B   1      25.819   7.849  12.5880  0.00  0.00     0.000 O
ATOM     19   S  SGN B   1      24.290   7.669  13.0200  0.00  0.00     0.000 S
ATOM     20   O  SGN B   1      23.534   7.819  11.7950  0.00  0.00     0.000 OA
ATOM     21   O  SGN B   1      24.234   6.337  13.5750  0.00  0.00     0.000 OA
ATOM     22   O  SGN B   1      24.044   8.719  13.9850  0.00  0.00     0.000 OA
ENDBRANCH 5 17
BRANCH 1 23
ATOM     23  O4  IDS B   2      27.706  11.663  13.4370  0.00  0.00     0.000 O
BRANCH 23 27
ATOM     24  C1  IDS B   2      25.792  15.143  14.6460  0.00  0.00     0.000 C
ATOM     25  C2  IDS B   2      24.942  13.855  14.7170  0.00  0.00     0.000 C
ATOM     26  C3  IDS B   2      25.815  12.615  14.5420  0.00  0.00     0.000 C
ATOM     27  C4  IDS B   2      26.654  12.637  13.2720  0.00  0.00     0.000 C
ATOM     28  C5  IDS B   2      27.149  14.070  12.9920  0.00  0.00     0.000 C
ATOM     29  O5  IDS B   2      27.115  14.858  14.1720  0.00  0.00     0.000 O
ATOM     30   O  IDS B   2      24.984  11.462  14.4890  0.00  0.00     0.000 O
ATOM     32  HD  IDS B   2      24.611  11.345  13.7160  0.00  0.00     0.000 HD
BRANCH 25 32
ATOM     32   O  IDS B   2      24.231  13.724  16.0120  0.00  0.00     0.000 O
ATOM     33   S  IDS B   2      22.584  13.758  16.1090  0.00  0.00     0.000 S
ATOM     34   O  IDS B   2      22.263  13.830  17.5260  0.00  0.00     0.000 OA
ATOM     35   O  IDS B   2      22.080  14.919  15.3900  0.00  0.00     0.000 OA
ATOM     36   O  IDS B   2      22.133  12.513  15.5300  0.00  0.00     0.000 OA
ENDBRANCH 25 32
BRANCH 28 37
ATOM     37   C  IDS B   2      28.535  14.238  12.3360  0.00  0.00     0.000 C
ATOM     38   O  IDS B   2      28.570  13.821  11.2020  0.00  0.00     0.000 OA
ATOM     39   O  IDS B   2      29.544  14.797  12.8340  0.00  0.00     0.000 OA
ENDBRANCH 28 37
BRANCH 24 40
ATOM     40  O4  SUS B   3      25.192  16.350  14.7110  0.00  0.00     0.000 O
BRANCH 40 44
ATOM     41  C1  SUS B   3      26.429  19.900  16.5570  0.00  0.00     0.000 C
ATOM     42  C2  SUS B   3      27.255  19.407  15.3520  0.00  0.00     0.000 C
ATOM     43  C3  SUS B   3      26.418  18.425  14.5360  0.00  0.00     0.000 C
ATOM     44  C4  SUS B   3      25.935  17.311  15.4520  0.00  0.00     0.000 C
ATOM     45  C5  SUS B   3      25.064  17.911  16.5360  0.00  0.00     0.000 C
ATOM     46  O5  SUS B   3      25.872  18.819  17.3120  0.00  0.00     0.000 O
BRANCH 42 49
ATOM     47   N  SUS B   3      28.623  19.349  14.8080  0.00  0.00     0.000 N
ATOM     49  HD  SUS B   3      29.166  18.789  15.1850  0.00  0.00     0.000 HD
ATOM     49   S  SUS B   3      29.335  20.783  14.7720  0.00  0.00     0.000 S
ATOM     50   O  SUS B   3      29.364  21.337  16.0680  0.00  0.00     0.000 OA
ATOM     51   O  SUS B   3      30.742  20.275  14.3640  0.00  0.00     0.000 OA
ATOM     52   O  SUS B   3      28.768  21.561  13.7430  0.00  0.00     0.000 OA
ENDBRANCH 42 49
BRANCH 43 53
ATOM     53   O  SUS B   3      27.278  17.866  13.4760  0.00  0.00     0.000 O
ATOM     54   S  SUS B   3      26.884  18.229  11.9220  0.00  0.00     0.000 S
ATOM     55   O  SUS B   3      27.194  19.636  11.7110  0.00  0.00     0.000 OA
ATOM     56   O  SUS B   3      27.701  17.324  11.1310  0.00  0.00     0.000 OA
ATOM     57   O  SUS B   3      25.447  17.975  11.7880  0.00  0.00     0.000 OA
ENDBRANCH 43 53
BRANCH 45 58
ATOM     58   C  SUS B   3      24.462  16.850  17.4320  0.00  0.00     0.000 C
ATOM     59   S  SUS B   3      24.956  15.422  19.5060  0.00  0.00     0.000 S
ATOM     60   O  SUS B   3      25.315  16.649  18.5710  0.00  0.00     0.000 O
ATOM     61   O  SUS B   3      25.450  14.253  18.8050  0.00  0.00     0.000 OA
ATOM     62   O  SUS B   3      25.732  15.740  20.6740  0.00  0.00     0.000 OA
ATOM     63   O  SUS B   3      23.547  15.477  19.6800  0.00  0.00     0.000 OA
ENDBRANCH 45 58
BRANCH 41 64
ATOM     64  O4  IDS B   4      25.530  20.890  16.2440  0.00  0.00     0.000 O
BRANCH 64 68
ATOM     65  C1  IDS B   4      24.092  24.165  16.9350  0.00  0.00     0.000 C
ATOM     66  C2  IDS B   4      25.510  23.828  17.4130  0.00  0.00     0.000 C
ATOM     67  C3  IDS B   4      25.638  22.473  18.0900  0.00  0.00     0.000 C
ATOM     68  C4  IDS B   4      24.827  21.391  17.4020  0.00  0.00     0.000 C
ATOM     69  C5  IDS B   4      23.443  21.967  17.0750  0.00  0.00     0.000 C
ATOM     70  O5  IDS B   4      23.592  23.074  16.1830  0.00  0.00     0.000 O
ATOM     71   O  IDS B   4      25.196  22.627  19.4230  0.00  0.00     0.000 O
ATOM     73  HD  IDS B   4      25.480  22.899  18.6510  0.00  0.00     0.000 HD
BRANCH 66 73
ATOM     73   O  IDS B   4      26.401  23.768  16.2460  0.00  0.00     0.000 O
ATOM     74   S  IDS B   4      27.646  24.799  16.1910  0.00  0.00     0.000 S
ATOM     75   O  IDS B   4      27.084  26.128  16.3060  0.00  0.00     0.000 OA
ATOM     76   O  IDS B   4      28.211  24.511  14.8960  0.00  0.00     0.000 OA
ATOM     77   O  IDS B   4      28.495  24.439  17.3020  0.00  0.00     0.000 OA
ENDBRANCH 66 73
BRANCH 69 78
ATOM     78   C  IDS B   4      22.435  20.939  16.5800  0.00  0.00     0.000 C
ATOM     79   O  IDS B   4      21.837  21.157  15.5280  0.00  0.00     0.000 OA
ATOM     80   O  IDS B   4      22.326  19.865  17.2000  0.00  0.00     0.000 OA
ENDBRANCH 69 78
BRANCH 65 81
ATOM     81  O4  SGN B   5      23.341  24.574  17.9960  0.00  0.00     0.000 O
BRANCH 81 85
ATOM     82  C1  SGN B   5      19.623  26.308  18.8950  0.00  0.00     0.000 C
ATOM     83  C2  SGN B   5      19.763  24.796  19.1280  0.00  0.00     0.000 C
ATOM     84  C3  SGN B   5      21.250  24.423  19.2040  0.00  0.00     0.000 C
ATOM     85  C4  SGN B   5      21.951  24.901  17.9440  0.00  0.00     0.000 C
ATOM     86  C5  SGN B   5      21.763  26.412  17.8340  0.00  0.00     0.000 C
ATOM     87  O5  SGN B   5      20.354  26.697  17.7470  0.00  0.00     0.000 O
ATOM     88   O  SGN B   5      21.387  23.028  19.3600  0.00  0.00     0.000 O
ATOM     90  HD  SGN B   5      21.466  23.614  19.9930  0.00  0.00     0.000 HD
BRANCH 83 92
ATOM     90   N  SGN B   5      18.301  24.933  19.2730  0.00  0.00     0.000 N
ATOM     92  HD  SGN B   5      17.932  25.149  18.5200  0.00  0.00     0.000 HD
ATOM     92   S  SGN B   5      17.521  23.818  20.1130  0.00  0.00     0.000 S
ATOM     93   O  SGN B   5      16.150  24.229  20.0600  0.00  0.00     0.000 OA
ATOM     94   O  SGN B   5      17.913  22.570  19.5540  0.00  0.00     0.000 OA
ATOM     95   O  SGN B   5      18.115  23.898  21.5020  0.00  0.00     0.000 OA
ENDBRANCH 83 92
BRANCH 86 96
ATOM     96   C  SGN B   5      22.425  27.033  16.6210  0.00  0.00     0.000 C
ATOM     97   O  SGN B   5      22.663  28.426  16.8380  0.00  0.00     0.000 O
ATOM     98   S  SGN B   5      24.152  28.942  16.5410  0.00  0.00     0.000 S
ATOM     99   O  SGN B   5      24.019  30.375  16.6490  0.00  0.00     0.000 OA
ATOM    100   O  SGN B   5      25.008  28.352  17.5070  0.00  0.00     0.000 OA
ATOM    101   O  SGN B   5      24.423  28.498  15.2130  0.00  0.00     0.000 OA
ENDBRANCH 86 96
BRANCH 82 102
ATOM    102  O4  IDS B   6      20.010  27.043  19.9750  0.00  0.00     0.000 O
BRANCH 102 106
ATOM    103  C1  IDS B   6      18.902  29.895  21.9490  0.00  0.00     0.000 C
ATOM    104  C2  IDS B   6      17.951  29.211  20.9540  0.00  0.00     0.000 C
ATOM    105  C3  IDS B   6      18.541  28.945  19.5820  0.00  0.00     0.000 C
ATOM    106  C4  IDS B   6      19.976  28.455  19.6450  0.00  0.00     0.000 C
ATOM    107  C5  IDS B   6      20.757  29.274  20.6770  0.00  0.00     0.000 C
ATOM    108  O5  IDS B   6      20.148  29.224  21.9690  0.00  0.00     0.000 O
ATOM    109   O  IDS B   6      18.449  30.139  18.8220  0.00  0.00     0.000 O
ATOM    111  HD  IDS B   6      18.398  30.763  19.4210  0.00  0.00     0.000 HD
BRANCH 104 111
ATOM    111   O  IDS B   6      17.577  27.890  21.4790  0.00  0.00     0.000 O
ATOM    112   S  IDS B   6      16.048  27.648  21.8880  0.00  0.00     0.000 S
ATOM    113   O  IDS B   6      15.775  28.658  22.8980  0.00  0.00     0.000 OA
ATOM    114   O  IDS B   6      15.222  27.751  20.6790  0.00  0.00     0.000 OA
ATOM    115   O  IDS B   6      16.157  26.304  22.4150  0.00  0.00     0.000 OA
ENDBRANCH 104 111
BRANCH 107 116
ATOM    116   C  IDS B   6      22.186  28.751  20.7600  0.00  0.00     0.000 C
ATOM    117   O  IDS B   6      22.431  27.982  21.6550  0.00  0.00     0.000 OA
ATOM    118   O  IDS B   6      23.039  29.104  19.9610  0.00  0.00     0.000 OA
ENDBRANCH 107 116
BRANCH 103 119
ATOM    119  O4  SGN B   7      18.813  31.211  21.6260  0.00  0.00     0.000 O
BRANCH 119 123
ATOM    120  C1  SGN B   7      18.851  34.852  23.6830  0.00  0.00     0.000 C
ATOM    121  C2  SGN B   7      20.197  34.129  23.4880  0.00  0.00     0.000 C
ATOM    122  C3  SGN B   7      20.078  33.056  22.3980  0.00  0.00     0.000 C
ATOM    123  C4  SGN B   7      18.920  32.125  22.7180  0.00  0.00     0.000 C
ATOM    124  C5  SGN B   7      17.629  32.940  22.9000  0.00  0.00     0.000 C
ATOM    125  O5  SGN B   7      17.786  33.936  23.9360  0.00  0.00     0.000 O
ATOM    126   O  SGN B   7      21.315  32.339  22.3130  0.00  0.00     0.000 O
ATOM    128  HD  SGN B   7      20.877  33.016  22.6300  0.00  0.00     0.000 HD
BRANCH 121 130
ATOM    128   N  SGN B   7      20.816  35.017  24.4750  0.00  0.00     0.000 N
ATOM    130  HD  SGN B   7      21.363  34.388  24.7090  0.00  0.00     0.000 HD
ATOM    130   S  SGN B   7      22.281  35.651  24.2610  0.00  0.00     0.000 S
ATOM    131   O  SGN B   7      22.252  36.224  22.9590  0.00  0.00     0.000 OA
ATOM    132   O  SGN B   7      22.590  36.452  25.3910  0.00  0.00     0.000 OA
ATOM    133   O  SGN B   7      23.168  34.371  24.4290  0.00  0.00     0.000 OA
ENDBRANCH 121 130
BRANCH 124 134
ATOM    134   C  SGN B   7      16.450  32.120  23.3330  0.00  0.00     0.000 C
ATOM    135   O  SGN B   7      15.754  32.832  24.3710  0.00  0.00     0.000 O
ATOM    136   S  SGN B   7      14.395  32.210  24.8560  0.00  0.00     0.000 S
ATOM    137   O  SGN B   7      13.943  33.029  25.9550  0.00  0.00     0.000 OA
ATOM    138   O  SGN B   7      14.718  30.858  25.2540  0.00  0.00     0.000 OA
ATOM    139   O  SGN B   7      13.565  32.305  23.6660  0.00  0.00     0.000 OA
ENDBRANCH 124 134
BRANCH 120 140
ATOM    140  O4  IDS B   8      18.225  35.670  22.8300  0.00  0.00     0.000 O
BRANCH 140 144
ATOM    141  C1  IDS B   8      16.972  36.904  19.6890  0.00  0.00     0.000 C
ATOM    142  C2  IDS B   8      18.352  36.192  19.7750  0.00  0.00     0.000 C
ATOM    143  C3  IDS B   8      19.240  36.734  20.9100  0.00  0.00     0.000 C
ATOM    144  C4  IDS B   8      18.455  36.938  22.2050  0.00  0.00     0.000 C
ATOM    145  C5  IDS B   8      17.116  37.631  21.9080  0.00  0.00     0.000 C
ATOM    146  O5  IDS B   8      16.341  36.897  20.9640  0.00  0.00     0.000 O
BRANCH 142 147
ATOM    147   O  IDS B   8      18.147  34.742  20.0310  0.00  0.00     0.000 O
ATOM    148   S  IDS B   8      18.192  33.665  18.8200  0.00  0.00     0.000 S
ATOM    149   O  IDS B   8      18.059  34.395  17.5790  0.00  0.00     0.000 OA
ATOM    150   O  IDS B   8      19.474  32.997  18.9430  0.00  0.00     0.000 OA
ATOM    151   O  IDS B   8      17.065  32.781  19.0520  0.00  0.00     0.000 OA
ENDBRANCH 142 147
BRANCH 145 152
ATOM    152   C  IDS B   8      16.247  37.773  23.1410  0.00  0.00     0.000 C
ATOM    153   O  IDS B   8      16.669  38.394  24.1100  0.00  0.00     0.000 OA
ATOM    154   O  IDS B   8      15.131  37.286  23.1500  0.00  0.00     0.000 OA
ENDBRANCH 145 152
ENDBRANCH 140 144
ENDBRANCH 120 140
ENDBRANCH 119 123
ENDBRANCH 103 119
ENDBRANCH 102 106
ENDBRANCH 82 102
ENDBRANCH 81 85
ENDBRANCH 65 81
ENDBRANCH 64 68
ENDBRANCH 41 64
ENDBRANCH 40 44
ENDBRANCH 24 40
ENDBRANCH 23 27
ENDBRANCH 1 23
TORSDOF 31
ENDMDL
MODEL 69
REMARK VINA RESULT:      -6.8      5.051      8.511
ROOT
ATOM      1  C1  SGN B   1      26.089  14.713  14.4280  0.00  0.00     0.000 C
ATOM      2  C2  SGN B   1      25.923  14.920  12.9140  0.00  0.00     0.000 C
ATOM      3  C3  SGN B   1      24.554  15.531  12.5970  0.00  0.00     0.000 C
ATOM      4  C4  SGN B   1      23.443  14.664  13.1790  0.00  0.00     0.000 C
ATOM      5  C5  SGN B   1      23.748  14.382  14.6480  0.00  0.00     0.000 C
ATOM      6  O5  SGN B   1      25.058  13.794  14.7640  0.00  0.00     0.000 O
ATOM      7   O  SGN B   1      24.387  15.681  11.1920  0.00  0.00     0.000 O
ATOM      9  HD  SGN B   1      24.485  14.824  11.2670  0.00  0.00     0.000 HD
ATOM      9   O  SGN B   1      22.205  15.341  13.0580  0.00  0.00     0.000 O
ATOM     11  HD  SGN B   1      22.304  14.484  13.1330  0.00  0.00     0.000 HD
ENDROOT
BRANCH 2 13
ATOM     11   N  SGN B   1      27.224  14.409  12.4430  0.00  0.00     0.000 N
ATOM     13  HD  SGN B   1      27.188  15.055  13.0190  0.00  0.00     0.000 HD
ATOM     13   S  SGN B   1      28.541  15.332  12.3850  0.00  0.00     0.000 S
ATOM     14   O  SGN B   1      28.253  16.619  12.8860  0.00  0.00     0.000 OA
ATOM     15   O  SGN B   1      29.631  14.596  12.9310  0.00  0.00     0.000 OA
ATOM     16   O  SGN B   1      28.730  15.354  10.8370  0.00  0.00     0.000 OA
ENDBRANCH 2 13
BRANCH 5 17
ATOM     17   C  SGN B   1      22.772  13.439  15.3080  0.00  0.00     0.000 C
ATOM     18   O  SGN B   1      23.236  13.050  16.6160  0.00  0.00     0.000 O
ATOM     19   S  SGN B   1      23.127  11.494  16.9650  0.00  0.00     0.000 S
ATOM     20   O  SGN B   1      23.423  11.405  18.3790  0.00  0.00     0.000 OA
ATOM     21   O  SGN B   1      21.761  11.154  16.6380  0.00  0.00     0.000 OA
ATOM     22   O  SGN B   1      24.111  10.848  16.1250  0.00  0.00     0.000 OA
ENDBRANCH 5 17
BRANCH 1 23
ATOM     23  O4  IDS B   2      26.537  15.366  15.5390  0.00  0.00     0.000 O
BRANCH 23 27
ATOM     24  C1  IDS B   2      26.462  17.884  18.8380  0.00  0.00     0.000 C
ATOM     25  C2  IDS B   2      25.242  17.982  17.8960  0.00  0.00     0.000 C
ATOM     26  C3  IDS B   2      25.226  16.825  16.9000  0.00  0.00     0.000 C
ATOM     27  C4  IDS B   2      26.515  16.695  16.1000  0.00  0.00     0.000 C
ATOM     28  C5  IDS B   2      27.726  17.029  16.9940  0.00  0.00     0.000 C
ATOM     29  O5  IDS B   2      27.393  16.900  18.3680  0.00  0.00     0.000 O
ATOM     30   O  IDS B   2      24.163  17.019  15.9740  0.00  0.00     0.000 O
ATOM     32  HD  IDS B   2      24.352  17.591  15.3520  0.00  0.00     0.000 HD
BRANCH 25 32
ATOM     32   O  IDS B   2      23.957  17.954  18.6360  0.00  0.00     0.000 O
ATOM     33   S  IDS B   2      22.923  19.240  18.6390  0.00  0.00     0.000 S
ATOM     34   O  IDS B   2      21.904  18.939  19.6320  0.00  0.00     0.000 OA
ATOM     35   O  IDS B   2      23.657  20.450  18.9790  0.00  0.00     0.000 OA
ATOM     36   O  IDS B   2      22.361  19.291  17.3090  0.00  0.00     0.000 OA
ENDBRANCH 25 32
BRANCH 28 37
ATOM     37   C  IDS B   2      29.042  16.266  16.7400  0.00  0.00     0.000 C
ATOM     38   O  IDS B   2      29.277  15.442  17.5920  0.00  0.00     0.000 OA
ATOM     39   O  IDS B   2      29.803  16.381  15.7480  0.00  0.00     0.000 OA
ENDBRANCH 28 37
BRANCH 24 40
ATOM     40  O4  SUS B   3      26.689  18.854  19.7470  0.00  0.00     0.000 O
BRANCH 40 44
ATOM     41  C1  SUS B   3      27.663  18.212  23.7700  0.00  0.00     0.000 C
ATOM     42  C2  SUS B   3      28.696  18.962  22.9060  0.00  0.00     0.000 C
ATOM     43  C3  SUS B   3      28.004  19.518  21.6630  0.00  0.00     0.000 C
ATOM     44  C4  SUS B   3      27.304  18.378  20.9400  0.00  0.00     0.000 C
ATOM     45  C5  SUS B   3      26.255  17.786  21.8580  0.00  0.00     0.000 C
ATOM     46  O5  SUS B   3      26.923  17.245  23.0160  0.00  0.00     0.000 O
BRANCH 42 49
ATOM     47   N  SUS B   3      30.112  19.306  22.6880  0.00  0.00     0.000 N
ATOM     49  HD  SUS B   3      30.576  18.752  22.2120  0.00  0.00     0.000 HD
ATOM     49   S  SUS B   3      30.902  19.568  24.0570  0.00  0.00     0.000 S
ATOM     50   O  SUS B   3      30.813  18.432  24.8870  0.00  0.00     0.000 OA
ATOM     51   O  SUS B   3      32.315  19.678  23.4310  0.00  0.00     0.000 OA
ATOM     52   O  SUS B   3      30.500  20.805  24.5990  0.00  0.00     0.000 OA
ENDBRANCH 42 49
BRANCH 43 53
ATOM     53   O  SUS B   3      29.039  20.106  20.7910  0.00  0.00     0.000 O
ATOM     54   S  SUS B   3      28.998  21.734  20.5720  0.00  0.00     0.000 S
ATOM     55   O  SUS B   3      29.414  22.353  21.8230  0.00  0.00     0.000 OA
ATOM     56   O  SUS B   3      29.916  21.965  19.4710  0.00  0.00     0.000 OA
ATOM     57   O  SUS B   3      27.610  22.075  20.2470  0.00  0.00     0.000 OA
ENDBRANCH 43 53
BRANCH 45 58
ATOM     58   C  SUS B   3      25.444  16.708  21.1720  0.00  0.00     0.000 C
ATOM     59   S  SUS B   3      23.151  15.557  21.2050  0.00  0.00     0.000 S
ATOM     60   O  SUS B   3      24.090  16.751  21.6520  0.00  0.00     0.000 O
ATOM     61   O  SUS B   3      23.521  14.443  22.0560  0.00  0.00     0.000 OA
ATOM     62   O  SUS B   3      21.858  16.099  21.5290  0.00  0.00     0.000 OA
ATOM     63   O  SUS B   3      23.403  15.374  19.8200  0.00  0.00     0.000 OA
ENDBRANCH 45 58
BRANCH 41 64
ATOM     64  O4  IDS B   4      26.884  19.037  24.5430  0.00  0.00     0.000 O
BRANCH 64 68
ATOM     65  C1  IDS B   4      25.549  19.641  27.8790  0.00  0.00     0.000 C
ATOM     66  C2  IDS B   4      26.726  18.678  27.6810  0.00  0.00     0.000 C
ATOM     67  C3  IDS B   4      26.543  17.689  26.5420  0.00  0.00     0.000 C
ATOM     68  C4  IDS B   4      25.902  18.313  25.3170  0.00  0.00     0.000 C
ATOM     69  C5  IDS B   4      24.728  19.185  25.7830  0.00  0.00     0.000 C
ATOM     70  O5  IDS B   4      25.222  20.225  26.6300  0.00  0.00     0.000 O
ATOM     71   O  IDS B   4      25.730  16.640  27.0240  0.00  0.00     0.000 O
ATOM     73  HD  IDS B   4      26.254  17.325  27.0940  0.00  0.00     0.000 HD
BRANCH 66 73
ATOM     73   O  IDS B   4      27.922  19.457  27.3340  0.00  0.00     0.000 O
ATOM     74   S  IDS B   4      29.202  19.359  28.3180  0.00  0.00     0.000 S
ATOM     75   O  IDS B   4      28.738  19.741  29.6350  0.00  0.00     0.000 OA
ATOM     76   O  IDS B   4      30.110  20.305  27.7190  0.00  0.00     0.000 OA
ATOM     77   O  IDS B   4      29.641  17.986  28.2440  0.00  0.00     0.000 OA
ENDBRANCH 66 73
BRANCH 69 78
ATOM     78   C  IDS B   4      23.845  19.706  24.6580  0.00  0.00     0.000 C
ATOM     79   O  IDS B   4      23.876  20.907  24.3900  0.00  0.00     0.000 OA
ATOM     80   O  IDS B   4      23.202  18.887  23.9770  0.00  0.00     0.000 OA
ENDBRANCH 69 78
BRANCH 65 81
ATOM     81  O4  SGN B   5      24.544  19.000  28.5380  0.00  0.00     0.000 O
BRANCH 81 85
ATOM     82  C1  SGN B   5      21.617  19.556  31.4980  0.00  0.00     0.000 C
ATOM     83  C2  SGN B   5      21.197  19.818  30.0440  0.00  0.00     0.000 C
ATOM     84  C3  SGN B   5      22.193  19.139  29.0920  0.00  0.00     0.000 C
ATOM     85  C4  SGN B   5      23.596  19.626  29.4050  0.00  0.00     0.000 C
ATOM     86  C5  SGN B   5      23.906  19.291  30.8620  0.00  0.00     0.000 C
ATOM     87  O5  SGN B   5      22.955  19.969  31.7050  0.00  0.00     0.000 O
ATOM     88   O  SGN B   5      21.846  19.423  27.7540  0.00  0.00     0.000 O
ATOM     90  HD  SGN B   5      21.683  18.680  28.1680  0.00  0.00     0.000 HD
BRANCH 83 92
ATOM     90   N  SGN B   5      19.812  19.524  30.4600  0.00  0.00     0.000 N
ATOM     92  HD  SGN B   5      19.776  19.327  31.3030  0.00  0.00     0.000 HD
ATOM     92   S  SGN B   5      18.651  20.492  29.9420  0.00  0.00     0.000 S
ATOM     93   O  SGN B   5      17.456  19.951  30.5150  0.00  0.00     0.000 OA
ATOM     94   O  SGN B   5      19.069  21.810  30.2760  0.00  0.00     0.000 OA
ATOM     95   O  SGN B   5      18.696  20.373  28.4340  0.00  0.00     0.000 OA
ENDBRANCH 83 92
BRANCH 86 96
ATOM     96   C  SGN B   5      25.289  19.711  31.3150  0.00  0.00     0.000 C
ATOM     97   O  SGN B   5      25.489  21.108  31.0890  0.00  0.00     0.000 O
ATOM     98   S  SGN B   5      26.026  21.956  32.3400  0.00  0.00     0.000 S
ATOM     99   O  SGN B   5      26.314  23.242  31.7520  0.00  0.00     0.000 OA
ATOM    100   O  SGN B   5      25.000  21.968  33.3190  0.00  0.00     0.000 OA
ATOM    101   O  SGN B   5      27.194  21.256  32.7670  0.00  0.00     0.000 OA
ENDBRANCH 86 96
BRANCH 82 102
ATOM    102  O4  IDS B   6      21.461  18.251  31.8620  0.00  0.00     0.000 O
BRANCH 102 106
ATOM    103  C1  IDS B   6      20.149  15.746  34.1540  0.00  0.00     0.000 C
ATOM    104  C2  IDS B   6      19.409  17.074  33.9350  0.00  0.00     0.000 C
ATOM    105  C3  IDS B   6      20.281  18.313  33.9910  0.00  0.00     0.000 C
ATOM    106  C4  IDS B   6      21.619  18.121  33.2980  0.00  0.00     0.000 C
ATOM    107  C5  IDS B   6      22.196  16.749  33.6600  0.00  0.00     0.000 C
ATOM    108  O5  IDS B   6      21.298  15.689  33.3310  0.00  0.00     0.000 O
ATOM    109   O  IDS B   6      20.466  18.661  35.3540  0.00  0.00     0.000 O
ATOM    111  HD  IDS B   6      20.325  17.920  35.7790  0.00  0.00     0.000 HD
BRANCH 104 111
ATOM    111   O  IDS B   6      18.818  17.077  32.5880  0.00  0.00     0.000 O
ATOM    112   S  IDS B   6      17.230  16.913  32.4620  0.00  0.00     0.000 S
ATOM    113   O  IDS B   6      16.941  15.642  33.1080  0.00  0.00     0.000 OA
ATOM    114   O  IDS B   6      16.592  18.077  33.0870  0.00  0.00     0.000 OA
ATOM    115   O  IDS B   6      17.112  16.879  31.0200  0.00  0.00     0.000 OA
ENDBRANCH 104 111
BRANCH 107 116
ATOM    116   C  IDS B   6      23.519  16.552  32.9310  0.00  0.00     0.000 C
ATOM    117   O  IDS B   6      23.474  15.981  31.8710  0.00  0.00     0.000 OA
ATOM    118   O  IDS B   6      24.572  16.946  33.4070  0.00  0.00     0.000 OA
ENDBRANCH 107 116
BRANCH 103 119
ATOM    119  O4  SGN B   7      20.243  15.650  35.5060  0.00  0.00     0.000 O
BRANCH 119 123
ATOM    120  C1  SGN B   7      20.885  12.600  38.2950  0.00  0.00     0.000 C
ATOM    121  C2  SGN B   7      22.107  13.127  37.5200  0.00  0.00     0.000 C
ATOM    122  C3  SGN B   7      21.786  14.475  36.8610  0.00  0.00     0.000 C
ATOM    123  C4  SGN B   7      20.530  14.347  36.0160  0.00  0.00     0.000 C
ATOM    124  C5  SGN B   7      19.374  13.810  36.8750  0.00  0.00     0.000 C
ATOM    125  O5  SGN B   7      19.719  12.541  37.4740  0.00  0.00     0.000 O
ATOM    126   O  SGN B   7      22.908  14.886  36.0710  0.00  0.00     0.000 O
ATOM    128  HD  SGN B   7      22.584  14.340  36.6600  0.00  0.00     0.000 HD
BRANCH 121 130
ATOM    128   N  SGN B   7      22.822  12.344  38.5310  0.00  0.00     0.000 N
ATOM    130  HD  SGN B   7      22.936  11.701  37.9620  0.00  0.00     0.000 HD
ATOM    130   S  SGN B   7      24.417  12.124  38.4780  0.00  0.00     0.000 S
ATOM    131   O  SGN B   7      24.967  13.426  38.3120  0.00  0.00     0.000 OA
ATOM    132   O  SGN B   7      24.794  11.322  39.5850  0.00  0.00     0.000 OA
ATOM    133   O  SGN B   7      24.528  11.169  37.2410  0.00  0.00     0.000 OA
ENDBRANCH 121 130
BRANCH 124 134
ATOM    134   C  SGN B   7      18.117  13.539  36.1010  0.00  0.00     0.000 C
ATOM    135   O  SGN B   7      18.303  12.338  35.3320  0.00  0.00     0.000 O
ATOM    136   S  SGN B   7      17.043  11.796  34.5670  0.00  0.00     0.000 S
ATOM    137   O  SGN B   7      17.493  10.663  33.7950  0.00  0.00     0.000 OA
ATOM    138   O  SGN B   7      16.597  12.898  33.7450  0.00  0.00     0.000 OA
ATOM    139   O  SGN B   7      16.140  11.451  35.6540  0.00  0.00     0.000 OA
ENDBRANCH 124 134
BRANCH 120 140
ATOM    140  O4  IDS B   8      20.333  13.105  39.4040  0.00  0.00     0.000 O
BRANCH 140 144
ATOM    141  C1  IDS B   8      19.156  13.923  42.7060  0.00  0.00     0.000 C
ATOM    142  C2  IDS B   8      18.160  13.733  41.5270  0.00  0.00     0.000 C
ATOM    143  C3  IDS B   8      18.565  14.514  40.2630  0.00  0.00     0.000 C
ATOM    144  C4  IDS B   8      20.059  14.393  39.9690  0.00  0.00     0.000 C
ATOM    145  C5  IDS B   8      20.870  14.587  41.2590  0.00  0.00     0.000 C
ATOM    146  O5  IDS B   8      20.483  13.659  42.2700  0.00  0.00     0.000 O
BRANCH 142 147
ATOM    147   O  IDS B   8      18.101  12.295  41.1550  0.00  0.00     0.000 O
ATOM    148   S  IDS B   8      16.770  11.659  40.4810  0.00  0.00     0.000 S
ATOM    149   O  IDS B   8      15.681  12.583  40.7060  0.00  0.00     0.000 OA
ATOM    150   O  IDS B   8      17.088  11.497  39.0740  0.00  0.00     0.000 OA
ATOM    151   O  IDS B   8      16.560  10.398  41.1660  0.00  0.00     0.000 OA
ENDBRANCH 142 147
BRANCH 145 152
ATOM    152   C  IDS B   8      22.357  14.380  41.0500  0.00  0.00     0.000 C
ATOM    153   O  IDS B   8      22.998  15.206  40.4110  0.00  0.00     0.000 OA
ATOM    154   O  IDS B   8      22.903  13.406  41.5370  0.00  0.00     0.000 OA
ENDBRANCH 145 152
ENDBRANCH 140 144
ENDBRANCH 120 140
ENDBRANCH 119 123
ENDBRANCH 103 119
ENDBRANCH 102 106
ENDBRANCH 82 102
ENDBRANCH 81 85
ENDBRANCH 65 81
ENDBRANCH 64 68
ENDBRANCH 41 64
ENDBRANCH 40 44
ENDBRANCH 24 40
ENDBRANCH 23 27
ENDBRANCH 1 23
TORSDOF 31
ENDMDL
MODEL 70
REMARK VINA RESULT:      -6.8      9.794     21.093
ROOT
ATOM      1  C1  SGN B   1      19.070  19.027  22.6620  0.00  0.00     0.000 C
ATOM      2  C2  SGN B   1      18.232  19.677  21.5480  0.00  0.00     0.000 C
ATOM      3  C3  SGN B   1      17.561  20.959  22.0520  0.00  0.00     0.000 C
ATOM      4  C4  SGN B   1      16.728  20.665  23.2940  0.00  0.00     0.000 C
ATOM      5  C5  SGN B   1      17.583  19.895  24.2980  0.00  0.00     0.000 C
ATOM      6  O5  SGN B   1      18.118  18.714  23.6700  0.00  0.00     0.000 O
ATOM      7   O  SGN B   1      16.752  21.533  21.0320  0.00  0.00     0.000 O
ATOM      9  HD  SGN B   1      16.375  20.761  21.1420  0.00  0.00     0.000 HD
ATOM      9   O  SGN B   1      16.284  21.883  23.8630  0.00  0.00     0.000 O
ATOM     11  HD  SGN B   1      15.908  21.110  23.9730  0.00  0.00     0.000 HD
ENDROOT
BRANCH 2 13
ATOM     11   N  SGN B   1      18.393  18.843  20.3420  0.00  0.00     0.000 N
ATOM     13  HD  SGN B   1      19.078  19.046  20.8310  0.00  0.00     0.000 HD
ATOM     13   S  SGN B   1      19.758  18.815  19.4920  0.00  0.00     0.000 S
ATOM     14   O  SGN B   1      20.728  19.637  20.1030  0.00  0.00     0.000 OA
ATOM     15   O  SGN B   1      20.077  17.458  19.1970  0.00  0.00     0.000 OA
ATOM     16   O  SGN B   1      19.216  19.456  18.1780  0.00  0.00     0.000 OA
ENDBRANCH 2 13
BRANCH 5 17
ATOM     17   C  SGN B   1      16.833  19.449  25.5290  0.00  0.00     0.000 C
ATOM     18   O  SGN B   1      15.586  18.821  25.1730  0.00  0.00     0.000 O
ATOM     19   S  SGN B   1      14.307  19.268  26.0230  0.00  0.00     0.000 S
ATOM     20   O  SGN B   1      13.261  18.344  25.6410  0.00  0.00     0.000 OA
ATOM     21   O  SGN B   1      14.730  19.128  27.3960  0.00  0.00     0.000 OA
ATOM     22   O  SGN B   1      14.048  20.634  25.6240  0.00  0.00     0.000 OA
ENDBRANCH 5 17
BRANCH 1 23
ATOM     23  O4  IDS B   2      20.332  19.045  23.1770  0.00  0.00     0.000 O
BRANCH 23 27
ATOM     24  C1  IDS B   2      24.238  18.157  24.2680  0.00  0.00     0.000 C
ATOM     25  C2  IDS B   2      23.659  17.310  23.1130  0.00  0.00     0.000 C
ATOM     26  C3  IDS B   2      22.351  17.907  22.6000  0.00  0.00     0.000 C
ATOM     27  C4  IDS B   2      21.309  18.115  23.6910  0.00  0.00     0.000 C
ATOM     28  C5  IDS B   2      21.995  18.567  24.9960  0.00  0.00     0.000 C
ATOM     29  O5  IDS B   2      23.278  19.116  24.7310  0.00  0.00     0.000 O
ATOM     30   O  IDS B   2      21.788  17.035  21.6280  0.00  0.00     0.000 O
ATOM     32  HD  IDS B   2      21.376  16.357  21.9750  0.00  0.00     0.000 HD
BRANCH 25 32
ATOM     32   O  IDS B   2      24.591  17.217  21.9630  0.00  0.00     0.000 O
ATOM     33   S  IDS B   2      25.135  15.766  21.3970  0.00  0.00     0.000 S
ATOM     34   O  IDS B   2      26.183  16.073  20.4360  0.00  0.00     0.000 OA
ATOM     35   O  IDS B   2      25.647  14.974  22.5070  0.00  0.00     0.000 OA
ATOM     36   O  IDS B   2      23.999  15.146  20.7570  0.00  0.00     0.000 OA
ENDBRANCH 25 32
BRANCH 28 37
ATOM     37   C  IDS B   2      21.229  19.545  25.9110  0.00  0.00     0.000 C
ATOM     38   O  IDS B   2      21.660  20.673  25.8560  0.00  0.00     0.000 OA
ATOM     39   O  IDS B   2      20.219  19.289  26.6120  0.00  0.00     0.000 OA
ENDBRANCH 28 37
BRANCH 24 40
ATOM     40  O4  SUS B   3      25.359  17.754  24.9020  0.00  0.00     0.000 O
BRANCH 40 44
ATOM     41  C1  SUS B   3      28.459  19.992  26.6120  0.00  0.00     0.000 C
ATOM     42  C2  SUS B   3      27.048  20.171  27.2080  0.00  0.00     0.000 C
ATOM     43  C3  SUS B   3      26.182  18.976  26.8170  0.00  0.00     0.000 C
ATOM     44  C4  SUS B   3      26.199  18.830  25.3040  0.00  0.00     0.000 C
ATOM     45  C5  SUS B   3      27.621  18.569  24.8530  0.00  0.00     0.000 C
ATOM     46  O5  SUS B   3      28.423  19.713  25.2080  0.00  0.00     0.000 O
BRANCH 42 49
ATOM     47   N  SUS B   3      27.355  20.478  28.6160  0.00  0.00     0.000 N
ATOM     49  HD  SUS B   3      27.093  19.899  29.2040  0.00  0.00     0.000 HD
ATOM     49   S  SUS B   3      26.822  21.921  29.0640  0.00  0.00     0.000 S
ATOM     50   O  SUS B   3      25.430  22.004  28.8540  0.00  0.00     0.000 OA
ATOM     51   O  SUS B   3      27.138  21.768  30.5740  0.00  0.00     0.000 OA
ATOM     52   O  SUS B   3      27.630  22.918  28.4850  0.00  0.00     0.000 OA
ENDBRANCH 42 49
BRANCH 43 53
ATOM     53   O  SUS B   3      24.805  19.241  27.2800  0.00  0.00     0.000 O
ATOM     54   S  SUS B   3      24.246  18.331  28.5300  0.00  0.00     0.000 S
ATOM     55   O  SUS B   3      24.949  18.760  29.7310  0.00  0.00     0.000 OA
ATOM     56   O  SUS B   3      22.821  18.606  28.5550  0.00  0.00     0.000 OA
ATOM     57   O  SUS B   3      24.560  16.937  28.2010  0.00  0.00     0.000 OA
ENDBRANCH 43 53
BRANCH 45 58
ATOM     58   C  SUS B   3      27.706  18.313  23.3640  0.00  0.00     0.000 C
ATOM     59   S  SUS B   3      27.934  19.509  21.1050  0.00  0.00     0.000 S
ATOM     60   O  SUS B   3      28.019  19.541  22.6860  0.00  0.00     0.000 O
ATOM     61   O  SUS B   3      26.518  19.586  20.8000  0.00  0.00     0.000 OA
ATOM     62   O  SUS B   3      28.641  20.717  20.7750  0.00  0.00     0.000 OA
ATOM     63   O  SUS B   3      28.576  18.304  20.7150  0.00  0.00     0.000 OA
ENDBRANCH 45 58
BRANCH 41 64
ATOM     64  O4  IDS B   4      29.261  19.143  27.3340  0.00  0.00     0.000 O
BRANCH 64 68
ATOM     65  C1  IDS B   4      32.669  19.110  28.6210  0.00  0.00     0.000 C
ATOM     66  C2  IDS B   4      32.107  20.373  27.9560  0.00  0.00     0.000 C
ATOM     67  C3  IDS B   4      31.381  20.122  26.6450  0.00  0.00     0.000 C
ATOM     68  C4  IDS B   4      30.520  18.874  26.6780  0.00  0.00     0.000 C
ATOM     69  C5  IDS B   4      31.328  17.752  27.3440  0.00  0.00     0.000 C
ATOM     70  O5  IDS B   4      31.645  18.134  28.6850  0.00  0.00     0.000 O
ATOM     71   O  IDS B   4      32.365  19.997  25.6390  0.00  0.00     0.000 O
ATOM     73  HD  IDS B   4      32.058  20.224  26.4160  0.00  0.00     0.000 HD
BRANCH 66 73
ATOM     73   O  IDS B   4      31.106  20.972  28.8490  0.00  0.00     0.000 O
ATOM     74   S  IDS B   4      31.426  22.427  29.4790  0.00  0.00     0.000 S
ATOM     75   O  IDS B   4      32.687  22.303  30.1770  0.00  0.00     0.000 OA
ATOM     76   O  IDS B   4      30.293  22.630  30.3460  0.00  0.00     0.000 OA
ATOM     77   O  IDS B   4      31.482  23.330  28.3540  0.00  0.00     0.000 OA
ENDBRANCH 66 73
BRANCH 69 78
ATOM     78   C  IDS B   4      30.685  16.375  27.2560  0.00  0.00     0.000 C
ATOM     79   O  IDS B   4      31.392  15.410  26.9670  0.00  0.00     0.000 OA
ATOM     80   O  IDS B   4      29.490  16.254  27.5830  0.00  0.00     0.000 OA
ENDBRANCH 69 78
BRANCH 65 81
ATOM     81  O4  SGN B   5      33.825  18.747  27.9990  0.00  0.00     0.000 O
BRANCH 81 85
ATOM     82  C1  SGN B   5      37.405  16.633  28.5950  0.00  0.00     0.000 C
ATOM     83  C2  SGN B   5      36.122  16.005  29.1580  0.00  0.00     0.000 C
ATOM     84  C3  SGN B   5      34.900  16.631  28.4720  0.00  0.00     0.000 C
ATOM     85  C4  SGN B   5      34.950  18.139  28.6400  0.00  0.00     0.000 C
ATOM     86  C5  SGN B   5      36.251  18.648  28.0250  0.00  0.00     0.000 C
ATOM     87  O5  SGN B   5      37.358  18.042  28.7200  0.00  0.00     0.000 O
ATOM     88   O  SGN B   5      33.715  16.099  29.0240  0.00  0.00     0.000 O
ATOM     90  HD  SGN B   5      34.065  15.867  28.2670  0.00  0.00     0.000 HD
BRANCH 83 92
ATOM     90   N  SGN B   5      36.637  14.630  29.0000  0.00  0.00     0.000 N
ATOM     92  HD  SGN B   5      37.359  14.622  28.5220  0.00  0.00     0.000 HD
ATOM     92   S  SGN B   5      36.668  13.687  30.2900  0.00  0.00     0.000 S
ATOM     93   O  SGN B   5      37.215  12.453  29.8130  0.00  0.00     0.000 OA
ATOM     94   O  SGN B   5      37.350  14.429  31.2940  0.00  0.00     0.000 OA
ATOM     95   O  SGN B   5      35.221  13.573  30.7180  0.00  0.00     0.000 OA
ENDBRANCH 83 92
BRANCH 86 96
ATOM     96   C  SGN B   5      36.432  20.149  28.1090  0.00  0.00     0.000 C
ATOM     97   O  SGN B   5      36.847  20.676  26.8470  0.00  0.00     0.000 O
ATOM     98   S  SGN B   5      36.001  21.919  26.2890  0.00  0.00     0.000 S
ATOM     99   O  SGN B   5      36.770  22.338  25.1420  0.00  0.00     0.000 OA
ATOM    100   O  SGN B   5      34.697  21.447  25.9870  0.00  0.00     0.000 OA
ATOM    101   O  SGN B   5      36.016  22.866  27.3560  0.00  0.00     0.000 OA
ENDBRANCH 86 96
BRANCH 82 102
ATOM    102  O4  IDS B   6      37.638  16.280  27.2990  0.00  0.00     0.000 O
BRANCH 102 106
ATOM    103  C1  IDS B   6      39.665  14.659  24.7450  0.00  0.00     0.000 C
ATOM    104  C2  IDS B   6      39.591  14.088  26.1700  0.00  0.00     0.000 C
ATOM    105  C3  IDS B   6      39.771  15.105  27.2800  0.00  0.00     0.000 C
ATOM    106  C4  IDS B   6      39.051  16.412  27.0000  0.00  0.00     0.000 C
ATOM    107  C5  IDS B   6      39.263  16.817  25.5390  0.00  0.00     0.000 C
ATOM    108  O5  IDS B   6      38.831  15.797  24.6360  0.00  0.00     0.000 O
ATOM    109   O  IDS B   6      41.161  15.323  27.4590  0.00  0.00     0.000 O
ATOM    111  HD  IDS B   6      41.507  15.091  26.7000  0.00  0.00     0.000 HD
BRANCH 104 111
ATOM    111   O  IDS B   6      38.257  13.508  26.3850  0.00  0.00     0.000 O
ATOM    112   S  IDS B   6      38.121  11.913  26.3950  0.00  0.00     0.000 S
ATOM    113   O  IDS B   6      38.617  11.496  25.0930  0.00  0.00     0.000 OA
ATOM    114   O  IDS B   6      38.879  11.390  27.5370  0.00  0.00     0.000 OA
ATOM    115   O  IDS B   6      36.685  11.802  26.5390  0.00  0.00     0.000 OA
ENDBRANCH 104 111
BRANCH 107 116
ATOM    116   C  IDS B   6      38.508  18.109  25.2590  0.00  0.00     0.000 C
ATOM    117   O  IDS B   6      39.050  19.135  25.5820  0.00  0.00     0.000 OA
ATOM    118   O  IDS B   6      37.402  18.100  24.7400  0.00  0.00     0.000 OA
ENDBRANCH 107 116
BRANCH 103 119
ATOM    119  O4  SGN B   7      40.998  14.734  24.4980  0.00  0.00     0.000 O
BRANCH 119 123
ATOM    120  C1  SGN B   7      43.482  14.520  21.1390  0.00  0.00     0.000 C
ATOM    121  C2  SGN B   7      42.643  15.798  21.3260  0.00  0.00     0.000 C
ATOM    122  C3  SGN B   7      42.119  15.892  22.7650  0.00  0.00     0.000 C
ATOM    123  C4  SGN B   7      41.381  14.614  23.1270  0.00  0.00     0.000 C
ATOM    124  C5  SGN B   7      42.297  13.400  22.9000  0.00  0.00     0.000 C
ATOM    125  O5  SGN B   7      42.765  13.351  21.5340  0.00  0.00     0.000 O
ATOM    126   O  SGN B   7      41.265  17.037  22.8760  0.00  0.00     0.000 O
ATOM    128  HD  SGN B   7      41.838  16.589  22.4050  0.00  0.00     0.000 HD
BRANCH 121 130
ATOM    128   N  SGN B   7      42.666  16.292  19.9470  0.00  0.00     0.000 N
ATOM    130  HD  SGN B   7      42.052  16.872  20.1370  0.00  0.00     0.000 HD
ATOM    130   S  SGN B   7      43.314  17.712  19.5530  0.00  0.00     0.000 S
ATOM    131   O  SGN B   7      44.606  17.709  20.1480  0.00  0.00     0.000 OA
ATOM    132   O  SGN B   7      43.169  17.896  18.1540  0.00  0.00     0.000 OA
ATOM    133   O  SGN B   7      42.266  18.686  20.1900  0.00  0.00     0.000 OA
ENDBRANCH 121 130
BRANCH 124 134
ATOM    134   C  SGN B   7      41.619  12.079  23.1210  0.00  0.00     0.000 C
ATOM    135   O  SGN B   7      41.672  11.328  21.8960  0.00  0.00     0.000 O
ATOM    136   S  SGN B   7      41.149   9.848  21.9600  0.00  0.00     0.000 S
ATOM    137   O  SGN B   7      41.203   9.340  20.6100  0.00  0.00     0.000 OA
ATOM    138   O  SGN B   7      39.802   9.944  22.4740  0.00  0.00     0.000 OA
ATOM    139   O  SGN B   7      42.097   9.220  22.8670  0.00  0.00     0.000 OA
ENDBRANCH 124 134
BRANCH 120 140
ATOM    140  O4  IDS B   8      44.670  14.228  21.6790  0.00  0.00     0.000 O
BRANCH 140 144
ATOM    141  C1  IDS B   8      47.355  14.006  24.0680  0.00  0.00     0.000 C
ATOM    142  C2  IDS B   8      46.487  15.292  23.9580  0.00  0.00     0.000 C
ATOM    143  C3  IDS B   8      46.323  15.787  22.5090  0.00  0.00     0.000 C
ATOM    144  C4  IDS B   8      46.035  14.641  21.5410  0.00  0.00     0.000 C
ATOM    145  C5  IDS B   8      46.975  13.459  21.8250  0.00  0.00     0.000 C
ATOM    146  O5  IDS B   8      46.867  13.013  23.1740  0.00  0.00     0.000 O
BRANCH 142 147
ATOM    147   O  IDS B   8      45.125  15.017  24.4850  0.00  0.00     0.000 O
ATOM    148   S  IDS B   8      44.538  15.840  25.7540  0.00  0.00     0.000 S
ATOM    149   O  IDS B   8      45.652  16.486  26.4110  0.00  0.00     0.000 OA
ATOM    150   O  IDS B   8      43.590  16.787  25.1960  0.00  0.00     0.000 OA
ATOM    151   O  IDS B   8      43.914  14.842  26.6010  0.00  0.00     0.000 OA
ENDBRANCH 142 147
BRANCH 145 152
ATOM    152   C  IDS B   8      46.672  12.252  20.9600  0.00  0.00     0.000 C
ATOM    153   O  IDS B   8      46.727  12.354  19.7400  0.00  0.00     0.000 OA
ATOM    154   O  IDS B   8      46.398  11.189  21.4870  0.00  0.00     0.000 OA
ENDBRANCH 145 152
ENDBRANCH 140 144
ENDBRANCH 120 140
ENDBRANCH 119 123
ENDBRANCH 103 119
ENDBRANCH 102 106
ENDBRANCH 82 102
ENDBRANCH 81 85
ENDBRANCH 65 81
ENDBRANCH 64 68
ENDBRANCH 41 64
ENDBRANCH 40 44
ENDBRANCH 24 40
ENDBRANCH 23 27
ENDBRANCH 1 23
TORSDOF 31
ENDMDL
MODEL 71
REMARK VINA RESULT:      -6.8     10.236     16.770
ROOT
ATOM      1  C1  SGN B   1      14.963  20.920  20.2840  0.00  0.00     0.000 C
ATOM      2  C2  SGN B   1      13.837  19.958  20.6980  0.00  0.00     0.000 C
ATOM      3  C3  SGN B   1      13.059  19.473  19.4700  0.00  0.00     0.000 C
ATOM      4  C4  SGN B   1      12.529  20.664  18.6780  0.00  0.00     0.000 C
ATOM      5  C5  SGN B   1      13.673  21.644  18.4260  0.00  0.00     0.000 C
ATOM      6  O5  SGN B   1      14.279  22.010  19.6810  0.00  0.00     0.000 O
ATOM      7   O  SGN B   1      11.991  18.618  19.8610  0.00  0.00     0.000 O
ATOM      9  HD  SGN B   1      11.779  19.358  20.2590  0.00  0.00     0.000 HD
ATOM      9   O  SGN B   1      11.994  20.211  17.4480  0.00  0.00     0.000 O
ATOM     11  HD  SGN B   1      11.783  20.950  17.8460  0.00  0.00     0.000 HD
ENDROOT
BRANCH 2 13
ATOM     11   N  SGN B   1      13.968  19.873  22.1650  0.00  0.00     0.000 N
ATOM     13  HD  SGN B   1      14.658  19.757  21.6540  0.00  0.00     0.000 HD
ATOM     13   S  SGN B   1      15.088  18.963  22.8760  0.00  0.00     0.000 S
ATOM     14   O  SGN B   1      15.901  18.345  21.9030  0.00  0.00     0.000 OA
ATOM     15   O  SGN B   1      15.695  19.725  23.9150  0.00  0.00     0.000 OA
ATOM     16   O  SGN B   1      14.136  17.931  23.5580  0.00  0.00     0.000 OA
ENDBRANCH 2 13
BRANCH 5 17
ATOM     17   C  SGN B   1      13.248  22.920  17.7420  0.00  0.00     0.000 C
ATOM     18   O  SGN B   1      14.129  24.008  18.0890  0.00  0.00     0.000 O
ATOM     19   S  SGN B   1      13.420  25.390  18.4700  0.00  0.00     0.000 S
ATOM     20   O  SGN B   1      14.496  26.356  18.5410  0.00  0.00     0.000 OA
ATOM     21   O  SGN B   1      12.502  25.626  17.3800  0.00  0.00     0.000 OA
ATOM     22   O  SGN B   1      12.775  25.146  19.7410  0.00  0.00     0.000 OA
ENDBRANCH 5 17
BRANCH 1 23
ATOM     23  O4  IDS B   2      16.276  20.910  19.9170  0.00  0.00     0.000 O
BRANCH 23 27
ATOM     24  C1  IDS B   2      19.366  20.633  22.6740  0.00  0.00     0.000 C
ATOM     25  C2  IDS B   2      18.600  21.975  22.6630  0.00  0.00     0.000 C
ATOM     26  C3  IDS B   2      17.319  21.865  21.8410  0.00  0.00     0.000 C
ATOM     27  C4  IDS B   2      17.549  21.364  20.4220  0.00  0.00     0.000 C
ATOM     28  C5  IDS B   2      18.657  20.292  20.4140  0.00  0.00     0.000 C
ATOM     29  O5  IDS B   2      18.825  19.726  21.7050  0.00  0.00     0.000 O
ATOM     30   O  IDS B   2      16.709  23.147  21.7510  0.00  0.00     0.000 O
ATOM     32  HD  IDS B   2      17.079  23.660  21.1600  0.00  0.00     0.000 HD
BRANCH 25 32
ATOM     32   O  IDS B   2      18.221  22.416  24.0280  0.00  0.00     0.000 O
ATOM     33   S  IDS B   2      18.735  23.853  24.6540  0.00  0.00     0.000 S
ATOM     34   O  IDS B   2      18.363  23.839  26.0600  0.00  0.00     0.000 OA
ATOM     35   O  IDS B   2      20.177  23.966  24.4860  0.00  0.00     0.000 OA
ATOM     36   O  IDS B   2      18.015  24.874  23.9290  0.00  0.00     0.000 OA
ENDBRANCH 25 32
BRANCH 28 37
ATOM     37   C  IDS B   2      18.541  19.142  19.3920  0.00  0.00     0.000 C
ATOM     38   O  IDS B   2      18.880  19.470  18.2790  0.00  0.00     0.000 OA
ATOM     39   O  IDS B   2      18.207  17.955  19.6250  0.00  0.00     0.000 OA
ENDBRANCH 28 37
BRANCH 24 40
ATOM     40  O4  SUS B   3      20.562  20.547  23.2940  0.00  0.00     0.000 O
BRANCH 40 44
ATOM     41  C1  SUS B   3      22.423  17.289  25.1560  0.00  0.00     0.000 C
ATOM     42  C2  SUS B   3      22.335  17.265  23.6170  0.00  0.00     0.000 C
ATOM     43  C3  SUS B   3      22.088  18.682  23.1050  0.00  0.00     0.000 C
ATOM     44  C4  SUS B   3      20.850  19.243  23.7870  0.00  0.00     0.000 C
ATOM     45  C5  SUS B   3      21.096  19.300  25.2810  0.00  0.00     0.000 C
ATOM     46  O5  SUS B   3      21.305  17.954  25.7540  0.00  0.00     0.000 O
BRANCH 42 49
ATOM     47   N  SUS B   3      23.548  16.565  23.1600  0.00  0.00     0.000 N
ATOM     49  HD  SUS B   3      24.076  17.008  22.6360  0.00  0.00     0.000 HD
ATOM     49   S  SUS B   3      23.226  15.157  22.4690  0.00  0.00     0.000 S
ATOM     50   O  SUS B   3      22.350  15.346  21.3800  0.00  0.00     0.000 OA
ATOM     51   O  SUS B   3      24.665  14.869  21.9690  0.00  0.00     0.000 OA
ATOM     52   O  SUS B   3      22.847  14.227  23.4580  0.00  0.00     0.000 OA
ENDBRANCH 42 49
BRANCH 43 53
ATOM     53   O  SUS B   3      21.868  18.608  21.6480  0.00  0.00     0.000 O
ATOM     54   S  SUS B   3      23.036  19.241  20.6800  0.00  0.00     0.000 S
ATOM     55   O  SUS B   3      24.191  18.357  20.7550  0.00  0.00     0.000 OA
ATOM     56   O  SUS B   3      22.418  19.287  19.3670  0.00  0.00     0.000 OA
ATOM     57   O  SUS B   3      23.348  20.568  21.2190  0.00  0.00     0.000 OA
ENDBRANCH 43 53
BRANCH 45 58
ATOM     58   C  SUS B   3      19.943  19.942  26.0210  0.00  0.00     0.000 C
ATOM     59   S  SUS B   3      18.223  19.505  27.8740  0.00  0.00     0.000 S
ATOM     60   O  SUS B   3      19.554  19.099  27.1180  0.00  0.00     0.000 O
ATOM     61   O  SUS B   3      17.145  19.052  27.0150  0.00  0.00     0.000 OA
ATOM     62   O  SUS B   3      18.345  18.720  29.0730  0.00  0.00     0.000 OA
ATOM     63   O  SUS B   3      18.304  20.911  28.0580  0.00  0.00     0.000 OA
ENDBRANCH 45 58
BRANCH 41 64
ATOM     64  O4  IDS B   4      23.643  17.700  25.6340  0.00  0.00     0.000 O
BRANCH 64 68
ATOM     65  C1  IDS B   4      26.740  17.823  27.5500  0.00  0.00     0.000 C
ATOM     66  C2  IDS B   4      26.583  16.821  26.3990  0.00  0.00     0.000 C
ATOM     67  C3  IDS B   4      25.269  16.059  26.4040  0.00  0.00     0.000 C
ATOM     68  C4  IDS B   4      24.083  16.930  26.7740  0.00  0.00     0.000 C
ATOM     69  C5  IDS B   4      24.483  17.795  27.9770  0.00  0.00     0.000 C
ATOM     70  O5  IDS B   4      25.581  18.635  27.6090  0.00  0.00     0.000 O
ATOM     71   O  IDS B   4      25.398  15.007  27.3380  0.00  0.00     0.000 O
ATOM     73  HD  IDS B   4      25.684  15.629  26.8080  0.00  0.00     0.000 HD
BRANCH 66 73
ATOM     73   O  IDS B   4      26.604  17.556  25.1270  0.00  0.00     0.000 O
ATOM     74   S  IDS B   4      27.620  17.048  23.9750  0.00  0.00     0.000 S
ATOM     75   O  IDS B   4      28.943  17.055  24.5620  0.00  0.00     0.000 OA
ATOM     76   O  IDS B   4      27.427  18.043  22.9500  0.00  0.00     0.000 OA
ATOM     77   O  IDS B   4      27.163  15.727  23.6130  0.00  0.00     0.000 OA
ENDBRANCH 66 73
BRANCH 69 78
ATOM     78   C  IDS B   4      23.333  18.567  28.6080  0.00  0.00     0.000 C
ATOM     79   O  IDS B   4      22.848  18.151  29.6600  0.00  0.00     0.000 OA
ATOM     80   O  IDS B   4      22.991  19.650  28.0970  0.00  0.00     0.000 OA
ENDBRANCH 69 78
BRANCH 65 81
ATOM     81  O4  SGN B   5      27.080  17.156  28.6880  0.00  0.00     0.000 O
BRANCH 81 85
ATOM     82  C1  SGN B   5      28.136  17.799  32.7020  0.00  0.00     0.000 C
ATOM     83  C2  SGN B   5      26.669  17.445  32.4140  0.00  0.00     0.000 C
ATOM     84  C3  SGN B   5      26.559  16.802  31.0250  0.00  0.00     0.000 C
ATOM     85  C4  SGN B   5      27.161  17.738  29.9910  0.00  0.00     0.000 C
ATOM     86  C5  SGN B   5      28.618  17.996  30.3680  0.00  0.00     0.000 C
ATOM     87  O5  SGN B   5      28.655  18.615  31.6690  0.00  0.00     0.000 O
ATOM     88   O  SGN B   5      25.207  16.526  30.7300  0.00  0.00     0.000 O
ATOM     90  HD  SGN B   5      25.794  15.944  30.9900  0.00  0.00     0.000 HD
BRANCH 83 92
ATOM     90   N  SGN B   5      26.543  17.869  33.8220  0.00  0.00     0.000 N
ATOM     92  HD  SGN B   5      26.686  18.719  33.9040  0.00  0.00     0.000 HD
ATOM     92   S  SGN B   5      25.310  17.306  34.6690  0.00  0.00     0.000 S
ATOM     93   O  SGN B   5      25.469  17.899  35.9630  0.00  0.00     0.000 OA
ATOM     94   O  SGN B   5      24.150  17.584  33.8940  0.00  0.00     0.000 OA
ATOM     95   O  SGN B   5      25.501  15.805  34.6730  0.00  0.00     0.000 OA
ENDBRANCH 83 92
BRANCH 86 96
ATOM     96   C  SGN B   5      29.354  18.910  29.4120  0.00  0.00     0.000 C
ATOM     97   O  SGN B   5      28.773  20.217  29.4190  0.00  0.00     0.000 O
ATOM     98   S  SGN B   5      29.789  21.440  29.6290  0.00  0.00     0.000 S
ATOM     99   O  SGN B   5      28.954  22.592  29.3860  0.00  0.00     0.000 OA
ATOM    100   O  SGN B   5      30.300  21.347  30.9490  0.00  0.00     0.000 OA
ATOM    101   O  SGN B   5      30.789  21.246  28.6300  0.00  0.00     0.000 OA
ENDBRANCH 86 96
BRANCH 82 102
ATOM    102  O4  IDS B   6      28.918  16.696  32.8740  0.00  0.00     0.000 O
BRANCH 102 106
ATOM    103  C1  IDS B   6      31.156  14.457  34.6720  0.00  0.00     0.000 C
ATOM    104  C2  IDS B   6      29.864  14.969  35.3280  0.00  0.00     0.000 C
ATOM    105  C3  IDS B   6      29.623  16.460  35.1930  0.00  0.00     0.000 C
ATOM    106  C4  IDS B   6      29.981  16.991  33.8160  0.00  0.00     0.000 C
ATOM    107  C5  IDS B   6      31.305  16.376  33.3530  0.00  0.00     0.000 C
ATOM    108  O5  IDS B   6      31.257  14.948  33.3490  0.00  0.00     0.000 O
ATOM    109   O  IDS B   6      30.374  17.121  36.1980  0.00  0.00     0.000 O
ATOM    111  HD  IDS B   6      31.003  16.559  36.3920  0.00  0.00     0.000 HD
BRANCH 104 111
ATOM    111   O  IDS B   6      28.710  14.329  34.6770  0.00  0.00     0.000 O
ATOM    112   S  IDS B   6      27.907  13.214  35.4980  0.00  0.00     0.000 S
ATOM    113   O  IDS B   6      28.902  12.200  35.8090  0.00  0.00     0.000 OA
ATOM    114   O  IDS B   6      27.294  13.851  36.6690  0.00  0.00     0.000 OA
ATOM    115   O  IDS B   6      26.959  12.813  34.4810  0.00  0.00     0.000 OA
ENDBRANCH 104 111
BRANCH 107 116
ATOM    116   C  IDS B   6      31.636  16.886  31.9560  0.00  0.00     0.000 C
ATOM    117   O  IDS B   6      31.909  18.055  31.8570  0.00  0.00     0.000 OA
ATOM    118   O  IDS B   6      31.615  16.143  30.9870  0.00  0.00     0.000 OA
ENDBRANCH 107 116
BRANCH 103 119
ATOM    119  O4  SGN B   7      32.113  14.722  35.5990  0.00  0.00     0.000 O
BRANCH 119 123
ATOM    120  C1  SGN B   7      35.742  13.018  36.7870  0.00  0.00     0.000 C
ATOM    121  C2  SGN B   7      35.734  13.843  35.4870  0.00  0.00     0.000 C
ATOM    122  C3  SGN B   7      34.472  14.711  35.4090  0.00  0.00     0.000 C
ATOM    123  C4  SGN B   7      33.239  13.843  35.5950  0.00  0.00     0.000 C
ATOM    124  C5  SGN B   7      33.346  13.058  36.9130  0.00  0.00     0.000 C
ATOM    125  O5  SGN B   7      34.547  12.254  36.9410  0.00  0.00     0.000 O
ATOM    126   O  SGN B   7      34.448  15.388  34.1470  0.00  0.00     0.000 O
ATOM    128  HD  SGN B   7      34.890  14.906  34.7150  0.00  0.00     0.000 HD
BRANCH 121 130
ATOM    128   N  SGN B   7      37.046  13.305  35.1180  0.00  0.00     0.000 N
ATOM    130  HD  SGN B   7      36.852  13.390  34.2780  0.00  0.00     0.000 HD
ATOM    130   S  SGN B   7      38.219  14.233  34.5230  0.00  0.00     0.000 S
ATOM    131   O  SGN B   7      38.318  15.330  35.4240  0.00  0.00     0.000 OA
ATOM    132   O  SGN B   7      39.348  13.414  34.2640  0.00  0.00     0.000 OA
ATOM    133   O  SGN B   7      37.632  14.557  33.1080  0.00  0.00     0.000 OA
ENDBRANCH 121 130
BRANCH 124 134
ATOM    134   C  SGN B   7      32.227  12.083  37.1310  0.00  0.00     0.000 C
ATOM    135   O  SGN B   7      32.793  10.783  37.3740  0.00  0.00     0.000 O
ATOM    136   S  SGN B   7      31.788   9.646  37.7790  0.00  0.00     0.000 S
ATOM    137   O  SGN B   7      32.562   8.431  37.8650  0.00  0.00     0.000 OA
ATOM    138   O  SGN B   7      30.805   9.616  36.7200  0.00  0.00     0.000 OA
ATOM    139   O  SGN B   7      31.281  10.118  39.0580  0.00  0.00     0.000 OA
ENDBRANCH 124 134
BRANCH 120 140
ATOM    140  O4  IDS B   8      35.871  13.461  38.0430  0.00  0.00     0.000 O
BRANCH 140 144
ATOM    141  C1  IDS B   8      35.384  15.635  40.8710  0.00  0.00     0.000 C
ATOM    142  C2  IDS B   8      35.513  16.212  39.4320  0.00  0.00     0.000 C
ATOM    143  C3  IDS B   8      36.717  15.641  38.6590  0.00  0.00     0.000 C
ATOM    144  C4  IDS B   8      36.852  14.131  38.8430  0.00  0.00     0.000 C
ATOM    145  C5  IDS B   8      36.670  13.759  40.3220  0.00  0.00     0.000 C
ATOM    146  O5  IDS B   8      35.418  14.214  40.8300  0.00  0.00     0.000 O
BRANCH 142 147
ATOM    147   O  IDS B   8      34.292  15.877  38.6520  0.00  0.00     0.000 O
ATOM    148   S  IDS B   8      33.095  16.957  38.4710  0.00  0.00     0.000 S
ATOM    149   O  IDS B   8      33.283  17.991  39.4630  0.00  0.00     0.000 OA
ATOM    150   O  IDS B   8      33.222  17.452  37.1130  0.00  0.00     0.000 OA
ATOM    151   O  IDS B   8      31.871  16.210  38.6920  0.00  0.00     0.000 OA
ENDBRANCH 142 147
BRANCH 145 152
ATOM    152   C  IDS B   8      36.695  12.262  40.5550  0.00  0.00     0.000 C
ATOM    153   O  IDS B   8      35.687  11.697  40.9630  0.00  0.00     0.000 OA
ATOM    154   O  IDS B   8      37.710  11.633  40.3150  0.00  0.00     0.000 OA
ENDBRANCH 145 152
ENDBRANCH 140 144
ENDBRANCH 120 140
ENDBRANCH 119 123
ENDBRANCH 103 119
ENDBRANCH 102 106
ENDBRANCH 82 102
ENDBRANCH 81 85
ENDBRANCH 65 81
ENDBRANCH 64 68
ENDBRANCH 41 64
ENDBRANCH 40 44
ENDBRANCH 24 40
ENDBRANCH 23 27
ENDBRANCH 1 23
TORSDOF 31
ENDMDL
MODEL 72
REMARK VINA RESULT:      -6.8      4.788      8.216
ROOT
ATOM      1  C1  SGN B   1      26.031  17.352  14.4550  0.00  0.00     0.000 C
ATOM      2  C2  SGN B   1      25.346  16.668  13.2610  0.00  0.00     0.000 C
ATOM      3  C3  SGN B   1      25.803  15.211  13.1350  0.00  0.00     0.000 C
ATOM      4  C4  SGN B   1      27.324  15.143  13.0350  0.00  0.00     0.000 C
ATOM      5  C5  SGN B   1      27.935  15.961  14.1700  0.00  0.00     0.000 C
ATOM      6  O5  SGN B   1      27.414  17.304  14.1310  0.00  0.00     0.000 O
ATOM      7   O  SGN B   1      25.201  14.594  12.0030  0.00  0.00     0.000 O
ATOM      9  HD  SGN B   1      25.651  15.235  11.6350  0.00  0.00     0.000 HD
ATOM      9   O  SGN B   1      27.742  13.793  13.1250  0.00  0.00     0.000 O
ATOM     11  HD  SGN B   1      28.192  14.435  12.7570  0.00  0.00     0.000 HD
ENDROOT
BRANCH 2 13
ATOM     11   N  SGN B   1      24.481  17.725  12.7020  0.00  0.00     0.000 N
ATOM     13  HD  SGN B   1      24.461  17.541  13.5480  0.00  0.00     0.000 HD
ATOM     13   S  SGN B   1      23.066  18.115  13.3620  0.00  0.00     0.000 S
ATOM     14   O  SGN B   1      22.845  17.349  14.5250  0.00  0.00     0.000 OA
ATOM     15   O  SGN B   1      22.978  19.535  13.4310  0.00  0.00     0.000 OA
ATOM     16   O  SGN B   1      22.141  17.653  12.1940  0.00  0.00     0.000 OA
ENDBRANCH 2 13
BRANCH 5 17
ATOM     17   C  SGN B   1      29.440  16.061  14.1140  0.00  0.00     0.000 C
ATOM     18   O  SGN B   1      29.897  16.176  12.7520  0.00  0.00     0.000 O
ATOM     19   S  SGN B   1      31.143  15.258  12.3500  0.00  0.00     0.000 S
ATOM     20   O  SGN B   1      31.547  15.724  11.0410  0.00  0.00     0.000 OA
ATOM     21   O  SGN B   1      32.119  15.516  13.3830  0.00  0.00     0.000 OA
ATOM     22   O  SGN B   1      30.630  13.905  12.3510  0.00  0.00     0.000 OA
ENDBRANCH 5 17
BRANCH 1 23
ATOM     23  O4  IDS B   2      25.854  17.569  15.7890  0.00  0.00     0.000 O
BRANCH 23 27
ATOM     24  C1  IDS B   2      25.495  19.012  19.6650  0.00  0.00     0.000 C
ATOM     25  C2  IDS B   2      24.447  19.537  18.6580  0.00  0.00     0.000 C
ATOM     26  C3  IDS B   2      24.483  18.729  17.3630  0.00  0.00     0.000 C
ATOM     27  C4  IDS B   2      25.863  18.670  16.7220  0.00  0.00     0.000 C
ATOM     28  C5  IDS B   2      26.947  18.572  17.8140  0.00  0.00     0.000 C
ATOM     29  O5  IDS B   2      26.398  18.095  19.0330  0.00  0.00     0.000 O
ATOM     30   O  IDS B   2      23.596  19.318  16.4190  0.00  0.00     0.000 O
ATOM     32  HD  IDS B   2      23.927  20.016  16.0290  0.00  0.00     0.000 HD
BRANCH 25 32
ATOM     32   O  IDS B   2      23.066  19.462  19.1950  0.00  0.00     0.000 O
ATOM     33   S  IDS B   2      22.097  20.793  19.2960  0.00  0.00     0.000 S
ATOM     34   O  IDS B   2      20.931  20.388  20.0650  0.00  0.00     0.000 OA
ATOM     35   O  IDS B   2      22.821  21.870  19.9560  0.00  0.00     0.000 OA
ATOM     36   O  IDS B   2      21.742  21.121  17.9350  0.00  0.00     0.000 OA
ENDBRANCH 25 32
BRANCH 28 37
ATOM     37   C  IDS B   2      28.215  17.750  17.4990  0.00  0.00     0.000 C
ATOM     38   O  IDS B   2      29.020  18.367  16.8410  0.00  0.00     0.000 OA
ATOM     39   O  IDS B   2      28.484  16.592  17.9020  0.00  0.00     0.000 OA
ENDBRANCH 28 37
BRANCH 24 40
ATOM     40  O4  SUS B   3      25.665  19.640  20.8470  0.00  0.00     0.000 O
BRANCH 40 44
ATOM     41  C1  SUS B   3      26.591  17.961  24.5710  0.00  0.00     0.000 C
ATOM     42  C2  SUS B   3      27.749  18.601  23.7790  0.00  0.00     0.000 C
ATOM     43  C3  SUS B   3      27.175  19.553  22.7310  0.00  0.00     0.000 C
ATOM     44  C4  SUS B   3      26.181  18.793  21.8670  0.00  0.00     0.000 C
ATOM     45  C5  SUS B   3      25.051  18.295  22.7440  0.00  0.00     0.000 C
ATOM     46  O5  SUS B   3      25.602  17.381  23.7140  0.00  0.00     0.000 O
BRANCH 42 49
ATOM     47   N  SUS B   3      28.686  19.193  24.7490  0.00  0.00     0.000 N
ATOM     49  HD  SUS B   3      28.860  20.036  24.6540  0.00  0.00     0.000 HD
ATOM     49   S  SUS B   3      30.077  18.402  24.8260  0.00  0.00     0.000 S
ATOM     50   O  SUS B   3      30.677  18.363  23.5510  0.00  0.00     0.000 OA
ATOM     51   O  SUS B   3      30.808  19.415  25.7430  0.00  0.00     0.000 OA
ATOM     52   O  SUS B   3      29.881  17.177  25.4940  0.00  0.00     0.000 OA
ENDBRANCH 42 49
BRANCH 43 53
ATOM     53   O  SUS B   3      28.293  20.041  21.9000  0.00  0.00     0.000 O
ATOM     54   S  SUS B   3      28.708  21.623  22.0560  0.00  0.00     0.000 S
ATOM     55   O  SUS B   3      29.341  21.782  23.3570  0.00  0.00     0.000 OA
ATOM     56   O  SUS B   3      29.602  21.864  20.9360  0.00  0.00     0.000 OA
ATOM     57   O  SUS B   3      27.461  22.390  21.9750  0.00  0.00     0.000 OA
ENDBRANCH 43 53
BRANCH 45 58
ATOM     58   C  SUS B   3      23.967  17.612  21.9380  0.00  0.00     0.000 C
ATOM     59   S  SUS B   3      23.480  15.499  20.5670  0.00  0.00     0.000 S
ATOM     60   O  SUS B   3      24.396  16.284  21.5930  0.00  0.00     0.000 O
ATOM     61   O  SUS B   3      23.810  16.049  19.2660  0.00  0.00     0.000 OA
ATOM     62   O  SUS B   3      23.971  14.158  20.7430  0.00  0.00     0.000 OA
ATOM     63   O  SUS B   3      22.147  15.720  21.0010  0.00  0.00     0.000 OA
ENDBRANCH 45 58
BRANCH 41 64
ATOM     64  O4  IDS B   4      26.078  18.772  25.5530  0.00  0.00     0.000 O
BRANCH 64 68
ATOM     65  C1  IDS B   4      24.779  19.230  28.9270  0.00  0.00     0.000 C
ATOM     66  C2  IDS B   4      25.728  18.065  28.6150  0.00  0.00     0.000 C
ATOM     67  C3  IDS B   4      25.379  17.291  27.3550  0.00  0.00     0.000 C
ATOM     68  C4  IDS B   4      24.934  18.189  26.2160  0.00  0.00     0.000 C
ATOM     69  C5  IDS B   4      23.959  19.230  26.7820  0.00  0.00     0.000 C
ATOM     70  O5  IDS B   4      24.633  20.022  27.7620  0.00  0.00     0.000 O
ATOM     71   O  IDS B   4      24.342  16.392  27.6880  0.00  0.00     0.000 O
ATOM     73  HD  IDS B   4      24.998  16.933  27.8520  0.00  0.00     0.000 HD
BRANCH 66 73
ATOM     73   O  IDS B   4      27.076  18.602  28.3850  0.00  0.00     0.000 O
ATOM     74   S  IDS B   4      28.223  18.265  29.4750  0.00  0.00     0.000 S
ATOM     75   O  IDS B   4      27.725  18.734  30.7510  0.00  0.00     0.000 OA
ATOM     76   O  IDS B   4      29.343  19.019  28.9700  0.00  0.00     0.000 OA
ATOM     77   O  IDS B   4      28.398  16.833  29.4210  0.00  0.00     0.000 OA
ENDBRANCH 66 73
BRANCH 69 78
ATOM     78   C  IDS B   4      23.252  20.069  25.7260  0.00  0.00     0.000 C
ATOM     79   O  IDS B   4      22.023  20.043  25.6770  0.00  0.00     0.000 OA
ATOM     80   O  IDS B   4      23.933  20.834  25.0190  0.00  0.00     0.000 OA
ENDBRANCH 69 78
BRANCH 65 81
ATOM     81  O4  SGN B   5      23.636  18.745  29.4870  0.00  0.00     0.000 O
BRANCH 81 85
ATOM     82  C1  SGN B   5      20.719  19.546  32.4000  0.00  0.00     0.000 C
ATOM     83  C2  SGN B   5      20.535  20.209  31.0270  0.00  0.00     0.000 C
ATOM     84  C3  SGN B   5      21.381  19.470  29.9820  0.00  0.00     0.000 C
ATOM     85  C4  SGN B   5      22.828  19.439  30.4410  0.00  0.00     0.000 C
ATOM     86  C5  SGN B   5      22.887  18.739  31.7960  0.00  0.00     0.000 C
ATOM     87  O5  SGN B   5      22.092  19.487  32.7360  0.00  0.00     0.000 O
ATOM     88   O  SGN B   5      21.261  20.109  28.7290  0.00  0.00     0.000 O
ATOM     90  HD  SGN B   5      20.853  19.382  28.9640  0.00  0.00     0.000 HD
BRANCH 83 92
ATOM     90   N  SGN B   5      19.519  20.954  31.7970  0.00  0.00     0.000 N
ATOM     92  HD  SGN B   5      19.891  21.462  32.3920  0.00  0.00     0.000 HD
ATOM     92   S  SGN B   5      18.310  21.624  30.9950  0.00  0.00     0.000 S
ATOM     93   O  SGN B   5      17.523  22.262  32.0070  0.00  0.00     0.000 OA
ATOM     94   O  SGN B   5      18.913  22.400  29.9660  0.00  0.00     0.000 OA
ATOM     95   O  SGN B   5      17.601  20.465  30.3300  0.00  0.00     0.000 OA
ENDBRANCH 83 92
BRANCH 86 96
ATOM     96   C  SGN B   5      24.282  18.624  32.3750  0.00  0.00     0.000 C
ATOM     97   O  SGN B   5      24.825  19.919  32.6380  0.00  0.00     0.000 O
ATOM     98   S  SGN B   5      25.429  20.147  34.1060  0.00  0.00     0.000 S
ATOM     99   O  SGN B   5      26.065  21.438  33.9920  0.00  0.00     0.000 OA
ATOM    100   O  SGN B   5      24.347  20.099  35.0240  0.00  0.00     0.000 OA
ATOM    101   O  SGN B   5      26.353  19.075  34.2800  0.00  0.00     0.000 OA
ENDBRANCH 86 96
BRANCH 82 102
ATOM    102  O4  IDS B   6      20.162  18.303  32.4610  0.00  0.00     0.000 O
BRANCH 102 106
ATOM    103  C1  IDS B   6      18.103  15.576  33.7200  0.00  0.00     0.000 C
ATOM    104  C2  IDS B   6      17.461  16.882  33.2260  0.00  0.00     0.000 C
ATOM    105  C3  IDS B   6      18.102  18.153  33.7510  0.00  0.00     0.000 C
ATOM    106  C4  IDS B   6      19.618  18.074  33.7860  0.00  0.00     0.000 C
ATOM    107  C5  IDS B   6      20.053  16.708  34.3250  0.00  0.00     0.000 C
ATOM    108  O5  IDS B   6      19.508  15.634  33.5560  0.00  0.00     0.000 O
ATOM    109   O  IDS B   6      17.581  18.407  35.0450  0.00  0.00     0.000 O
ATOM    111  HD  IDS B   6      17.309  17.631  35.3170  0.00  0.00     0.000 HD
BRANCH 104 111
ATOM    111   O  IDS B   6      17.593  16.957  31.7630  0.00  0.00     0.000 O
ATOM    112   S  IDS B   6      16.256  16.920  30.8830  0.00  0.00     0.000 S
ATOM    113   O  IDS B   6      15.617  15.664  31.2410  0.00  0.00     0.000 OA
ATOM    114   O  IDS B   6      15.467  18.119  31.1890  0.00  0.00     0.000 OA
ATOM    115   O  IDS B   6      16.846  16.924  29.5620  0.00  0.00     0.000 OA
ENDBRANCH 104 111
BRANCH 107 116
ATOM    116   C  IDS B   6      21.574  16.626  34.3210  0.00  0.00     0.000 C
ATOM    117   O  IDS B   6      22.078  15.942  33.4670  0.00  0.00     0.000 OA
ATOM    118   O  IDS B   6      22.244  17.218  35.1530  0.00  0.00     0.000 OA
ENDBRANCH 107 116
BRANCH 103 119
ATOM    119  O4  SGN B   7      17.542  15.385  34.9420  0.00  0.00     0.000 O
BRANCH 119 123
ATOM    120  C1  SGN B   7      16.643  12.121  37.3960  0.00  0.00     0.000 C
ATOM    121  C2  SGN B   7      18.128  12.490  37.2150  0.00  0.00     0.000 C
ATOM    122  C3  SGN B   7      18.264  13.906  36.6420  0.00  0.00     0.000 C
ATOM    123  C4  SGN B   7      17.440  14.027  35.3710  0.00  0.00     0.000 C
ATOM    124  C5  SGN B   7      15.981  13.633  35.6540  0.00  0.00     0.000 C
ATOM    125  O5  SGN B   7      15.901  12.293  36.1900  0.00  0.00     0.000 O
ATOM    126   O  SGN B   7      19.648  14.178  36.3950  0.00  0.00     0.000 O
ATOM    128  HD  SGN B   7      19.052  13.658  36.7480  0.00  0.00     0.000 HD
BRANCH 121 130
ATOM    128   N  SGN B   7      18.713  11.209  37.6190  0.00  0.00     0.000 N
ATOM    130  HD  SGN B   7      19.481  11.452  37.3020  0.00  0.00     0.000 HD
ATOM    130   S  SGN B   7      19.725  11.080  38.8640  0.00  0.00     0.000 S
ATOM    131   O  SGN B   7      19.074  11.742  39.9430  0.00  0.00     0.000 OA
ATOM    132   O  SGN B   7      20.113   9.722  38.9860  0.00  0.00     0.000 OA
ATOM    133   O  SGN B   7      20.986  11.801  38.2770  0.00  0.00     0.000 OA
ENDBRANCH 121 130
BRANCH 124 134
ATOM    134   C  SGN B   7      15.111  13.609  34.4320  0.00  0.00     0.000 C
ATOM    135   O  SGN B   7      14.866  12.239  34.0710  0.00  0.00     0.000 O
ATOM    136   S  SGN B   7      13.846  11.995  32.9020  0.00  0.00     0.000 S
ATOM    137   O  SGN B   7      13.844  10.573  32.6540  0.00  0.00     0.000 OA
ATOM    138   O  SGN B   7      14.356  12.762  31.7880  0.00  0.00     0.000 OA
ATOM    139   O  SGN B   7      12.602  12.500  33.4620  0.00  0.00     0.000 OA
ENDBRANCH 124 134
BRANCH 120 140
ATOM    140  O4  IDS B   8      15.764  12.643  38.2590  0.00  0.00     0.000 O
BRANCH 140 144
ATOM    141  C1  IDS B   8      14.082  12.039  41.3840  0.00  0.00     0.000 C
ATOM    142  C2  IDS B   8      14.413  10.868  40.4140  0.00  0.00     0.000 C
ATOM    143  C3  IDS B   8      13.994  11.153  38.9600  0.00  0.00     0.000 C
ATOM    144  C4  IDS B   8      14.358  12.571  38.5260  0.00  0.00     0.000 C
ATOM    145  C5  IDS B   8      13.977  13.576  39.6230  0.00  0.00     0.000 C
ATOM    146  O5  IDS B   8      14.598  13.259  40.8670  0.00  0.00     0.000 O
BRANCH 142 147
ATOM    147   O  IDS B   8      15.880  10.628  40.4100  0.00  0.00     0.000 O
ATOM    148   S  IDS B   8      16.480   9.123  40.3310  0.00  0.00     0.000 S
ATOM    149   O  IDS B   8      15.412   8.207  40.6610  0.00  0.00     0.000 OA
ATOM    150   O  IDS B   8      16.953   8.966  38.9680  0.00  0.00     0.000 OA
ATOM    151   O  IDS B   8      17.548   9.086  41.3120  0.00  0.00     0.000 OA
ENDBRANCH 142 147
BRANCH 145 152
ATOM    152   C  IDS B   8      14.405  14.992  39.2920  0.00  0.00     0.000 C
ATOM    153   O  IDS B   8      14.026  15.509  38.2480  0.00  0.00     0.000 OA
ATOM    154   O  IDS B   8      15.103  15.608  40.0770  0.00  0.00     0.000 OA
ENDBRANCH 145 152
ENDBRANCH 140 144
ENDBRANCH 120 140
ENDBRANCH 119 123
ENDBRANCH 103 119
ENDBRANCH 102 106
ENDBRANCH 82 102
ENDBRANCH 81 85
ENDBRANCH 65 81
ENDBRANCH 64 68
ENDBRANCH 41 64
ENDBRANCH 40 44
ENDBRANCH 24 40
ENDBRANCH 23 27
ENDBRANCH 1 23
TORSDOF 31
ENDMDL
MODEL 73
REMARK VINA RESULT:      -6.8     10.408     14.597
ROOT
ATOM      1  C1  SGN B   1      25.253  18.210  14.2880  0.00  0.00     0.000 C
ATOM      2  C2  SGN B   1      25.541  17.465  12.9740  0.00  0.00     0.000 C
ATOM      3  C3  SGN B   1      24.294  16.717  12.4900  0.00  0.00     0.000 C
ATOM      4  C4  SGN B   1      23.787  15.777  13.5800  0.00  0.00     0.000 C
ATOM      5  C5  SGN B   1      23.660  16.554  14.8890  0.00  0.00     0.000 C
ATOM      6  O5  SGN B   1      24.921  17.175  15.2040  0.00  0.00     0.000 O
ATOM      7   O  SGN B   1      24.576  15.992  11.2990  0.00  0.00     0.000 O
ATOM      9  HD  SGN B   1      25.124  15.627  11.8610  0.00  0.00     0.000 HD
ATOM      9   O  SGN B   1      22.529  15.251  13.2000  0.00  0.00     0.000 O
ATOM     11  HD  SGN B   1      23.077  14.886  13.7620  0.00  0.00     0.000 HD
ENDROOT
BRANCH 2 13
ATOM     11   N  SGN B   1      26.940  17.762  12.6150  0.00  0.00     0.000 N
ATOM     13  HD  SGN B   1      26.410  18.393  12.8830  0.00  0.00     0.000 HD
ATOM     13   S  SGN B   1      27.396  19.199  12.0520  0.00  0.00     0.000 S
ATOM     14   O  SGN B   1      26.294  20.079  12.0190  0.00  0.00     0.000 OA
ATOM     15   O  SGN B   1      28.585  19.592  12.7300  0.00  0.00     0.000 OA
ATOM     16   O  SGN B   1      27.810  18.754  10.6160  0.00  0.00     0.000 OA
ENDBRANCH 2 13
BRANCH 5 17
ATOM     17   C  SGN B   1      23.269  15.703  16.0720  0.00  0.00     0.000 C
ATOM     18   O  SGN B   1      24.042  14.487  16.1090  0.00  0.00     0.000 O
ATOM     19   S  SGN B   1      23.224  13.144  16.3990  0.00  0.00     0.000 S
ATOM     20   O  SGN B   1      24.233  12.129  16.6170  0.00  0.00     0.000 OA
ATOM     21   O  SGN B   1      22.449  13.452  17.5780  0.00  0.00     0.000 OA
ATOM     22   O  SGN B   1      22.427  12.924  15.2120  0.00  0.00     0.000 OA
ENDBRANCH 5 17
BRANCH 1 23
ATOM     23  O4  IDS B   2      24.807  19.417  14.7380  0.00  0.00     0.000 O
BRANCH 23 27
ATOM     24  C1  IDS B   2      24.913  19.447  18.8880  0.00  0.00     0.000 C
ATOM     25  C2  IDS B   2      23.523  19.676  18.2540  0.00  0.00     0.000 C
ATOM     26  C3  IDS B   2      23.543  19.353  16.7630  0.00  0.00     0.000 C
ATOM     27  C4  IDS B   2      24.617  20.107  15.9920  0.00  0.00     0.000 C
ATOM     28  C5  IDS B   2      25.892  20.232  16.8500  0.00  0.00     0.000 C
ATOM     29  O5  IDS B   2      25.911  19.252  17.8770  0.00  0.00     0.000 O
ATOM     30   O  IDS B   2      22.285  19.694  16.1930  0.00  0.00     0.000 O
ATOM     32  HD  IDS B   2      22.199  20.542  16.0380  0.00  0.00     0.000 HD
BRANCH 25 32
ATOM     32   O  IDS B   2      22.474  18.835  18.8820  0.00  0.00     0.000 O
ATOM     33   S  IDS B   2      21.061  19.478  19.4410  0.00  0.00     0.000 S
ATOM     34   O  IDS B   2      20.396  18.415  20.1780  0.00  0.00     0.000 OA
ATOM     35   O  IDS B   2      21.353  20.617  20.2990  0.00  0.00     0.000 OA
ATOM     36   O  IDS B   2      20.310  19.852  18.2650  0.00  0.00     0.000 OA
ENDBRANCH 25 32
BRANCH 28 37
ATOM     37   C  IDS B   2      27.254  20.203  16.1260  0.00  0.00     0.000 C
ATOM     38   O  IDS B   2      27.839  19.155  16.2730  0.00  0.00     0.000 OA
ATOM     39   O  IDS B   2      27.739  21.098  15.3920  0.00  0.00     0.000 OA
ENDBRANCH 28 37
BRANCH 24 40
ATOM     40  O4  SUS B   3      25.117  19.743  20.1880  0.00  0.00     0.000 O
BRANCH 40 44
ATOM     41  C1  SUS B   3      27.670  17.955  22.9870  0.00  0.00     0.000 C
ATOM     42  C2  SUS B   3      28.284  19.012  22.0470  0.00  0.00     0.000 C
ATOM     43  C3  SUS B   3      27.167  19.873  21.4610  0.00  0.00     0.000 C
ATOM     44  C4  SUS B   3      26.147  18.967  20.7900  0.00  0.00     0.000 C
ATOM     45  C5  SUS B   3      25.553  18.042  21.8320  0.00  0.00     0.000 C
ATOM     46  O5  SUS B   3      26.613  17.220  22.3610  0.00  0.00     0.000 O
BRANCH 42 49
ATOM     47   N  SUS B   3      29.323  19.963  22.4780  0.00  0.00     0.000 N
ATOM     49  HD  SUS B   3      29.289  20.756  22.1320  0.00  0.00     0.000 HD
ATOM     49   S  SUS B   3      30.806  19.392  22.2720  0.00  0.00     0.000 S
ATOM     50   O  SUS B   3      31.006  19.053  20.9190  0.00  0.00     0.000 OA
ATOM     51   O  SUS B   3      31.553  20.704  22.6240  0.00  0.00     0.000 OA
ATOM     52   O  SUS B   3      31.062  18.399  23.2390  0.00  0.00     0.000 OA
ENDBRANCH 42 49
BRANCH 43 53
ATOM     53   O  SUS B   3      27.768  20.779  20.4630  0.00  0.00     0.000 O
ATOM     54   S  SUS B   3      27.628  22.394  20.7350  0.00  0.00     0.000 S
ATOM     55   O  SUS B   3      28.497  22.725  21.8550  0.00  0.00     0.000 OA
ATOM     56   O  SUS B   3      28.035  22.999  19.4790  0.00  0.00     0.000 OA
ATOM     57   O  SUS B   3      26.220  22.638  21.0640  0.00  0.00     0.000 OA
ENDBRANCH 43 53
BRANCH 45 58
ATOM     58   C  SUS B   3      24.454  17.174  21.2590  0.00  0.00     0.000 C
ATOM     59   S  SUS B   3      23.233  14.944  21.6100  0.00  0.00     0.000 S
ATOM     60   O  SUS B   3      24.201  16.075  22.1500  0.00  0.00     0.000 O
ATOM     61   O  SUS B   3      24.044  14.152  20.7050  0.00  0.00     0.000 OA
ATOM     62   O  SUS B   3      22.924  14.250  22.8310  0.00  0.00     0.000 OA
ATOM     63   O  SUS B   3      22.145  15.631  21.0080  0.00  0.00     0.000 OA
ENDBRANCH 45 58
BRANCH 41 64
ATOM     64  O4  IDS B   4      27.355  18.439  24.2330  0.00  0.00     0.000 O
BRANCH 64 68
ATOM     65  C1  IDS B   4      28.241  19.018  27.7200  0.00  0.00     0.000 C
ATOM     66  C2  IDS B   4      29.338  18.867  26.6590  0.00  0.00     0.000 C
ATOM     67  C3  IDS B   4      29.140  17.695  25.7130  0.00  0.00     0.000 C
ATOM     68  C4  IDS B   4      27.694  17.516  25.2920  0.00  0.00     0.000 C
ATOM     69  C5  IDS B   4      26.811  17.664  26.5380  0.00  0.00     0.000 C
ATOM     70  O5  IDS B   4      26.978  18.977  27.0790  0.00  0.00     0.000 O
ATOM     71   O  IDS B   4      29.590  16.535  26.3820  0.00  0.00     0.000 O
ATOM     73  HD  IDS B   4      29.520  17.387  26.2440  0.00  0.00     0.000 HD
BRANCH 66 73
ATOM     73   O  IDS B   4      29.339  20.063  25.8060  0.00  0.00     0.000 O
ATOM     74   S  IDS B   4      30.385  21.246  26.1590  0.00  0.00     0.000 S
ATOM     75   O  IDS B   4      30.125  21.627  27.5300  0.00  0.00     0.000 OA
ATOM     76   O  IDS B   4      30.030  22.254  25.1920  0.00  0.00     0.000 OA
ATOM     77   O  IDS B   4      31.695  20.672  25.9650  0.00  0.00     0.000 OA
ENDBRANCH 66 73
BRANCH 69 78
ATOM     78   C  IDS B   4      25.350  17.294  26.3220  0.00  0.00     0.000 C
ATOM     79   O  IDS B   4      24.999  16.132  26.5210  0.00  0.00     0.000 OA
ATOM     80   O  IDS B   4      24.539  18.200  26.0560  0.00  0.00     0.000 OA
ENDBRANCH 69 78
BRANCH 65 81
ATOM     81  O4  SGN B   5      28.450  18.118  28.7200  0.00  0.00     0.000 O
BRANCH 81 85
ATOM     82  C1  SGN B   5      28.183  17.585  32.8780  0.00  0.00     0.000 C
ATOM     83  C2  SGN B   5      26.899  17.370  32.0620  0.00  0.00     0.000 C
ATOM     84  C3  SGN B   5      27.259  17.143  30.5880  0.00  0.00     0.000 C
ATOM     85  C4  SGN B   5      28.093  18.311  30.0910  0.00  0.00     0.000 C
ATOM     86  C5  SGN B   5      29.345  18.408  30.9580  0.00  0.00     0.000 C
ATOM     87  O5  SGN B   5      28.946  18.639  32.3230  0.00  0.00     0.000 O
ATOM     88   O  SGN B   5      26.081  17.002  29.8230  0.00  0.00     0.000 O
ATOM     90  HD  SGN B   5      26.592  16.353  30.0830  0.00  0.00     0.000 HD
BRANCH 83 92
ATOM     90   N  SGN B   5      26.383  17.267  33.4410  0.00  0.00     0.000 N
ATOM     92  HD  SGN B   5      26.543  17.991  33.8880  0.00  0.00     0.000 HD
ATOM     92   S  SGN B   5      24.923  16.651  33.6540  0.00  0.00     0.000 S
ATOM     93   O  SGN B   5      24.722  16.695  35.0710  0.00  0.00     0.000 OA
ATOM     94   O  SGN B   5      24.065  17.385  32.7880  0.00  0.00     0.000 OA
ATOM     95   O  SGN B   5      25.018  15.242  33.1080  0.00  0.00     0.000 OA
ENDBRANCH 83 92
BRANCH 86 96
ATOM     96   C  SGN B   5      30.285  19.530  30.5670  0.00  0.00     0.000 C
ATOM     97   O  SGN B   5      31.639  19.175  30.8570  0.00  0.00     0.000 O
ATOM     98   S  SGN B   5      32.690  19.362  29.6610  0.00  0.00     0.000 S
ATOM     99   O  SGN B   5      33.957  19.126  30.3100  0.00  0.00     0.000 OA
ATOM    100   O  SGN B   5      32.358  18.423  28.6510  0.00  0.00     0.000 OA
ATOM    101   O  SGN B   5      32.514  20.715  29.2420  0.00  0.00     0.000 OA
ENDBRANCH 86 96
BRANCH 82 102
ATOM    102  O4  IDS B   6      28.937  16.454  32.9760  0.00  0.00     0.000 O
BRANCH 102 106
ATOM    103  C1  IDS B   6      30.813  14.381  35.3090  0.00  0.00     0.000 C
ATOM    104  C2  IDS B   6      29.771  15.391  35.8170  0.00  0.00     0.000 C
ATOM    105  C3  IDS B   6      29.866  16.775  35.2040  0.00  0.00     0.000 C
ATOM    106  C4  IDS B   6      30.153  16.738  33.7130  0.00  0.00     0.000 C
ATOM    107  C5  IDS B   6      31.227  15.686  33.4190  0.00  0.00     0.000 C
ATOM    108  O5  IDS B   6      30.850  14.392  33.8940  0.00  0.00     0.000 O
ATOM    109   O  IDS B   6      30.875  17.495  35.8930  0.00  0.00     0.000 O
ATOM    111  HD  IDS B   6      31.376  16.876  36.2340  0.00  0.00     0.000 HD
BRANCH 104 111
ATOM    111   O  IDS B   6      28.426  14.905  35.4730  0.00  0.00     0.000 O
ATOM    112   S  IDS B   6      27.455  14.469  36.6690  0.00  0.00     0.000 S
ATOM    113   O  IDS B   6      28.180  13.416  37.3640  0.00  0.00     0.000 OA
ATOM    114   O  IDS B   6      27.164  15.653  37.4860  0.00  0.00     0.000 OA
ATOM    115   O  IDS B   6      26.329  13.995  35.8950  0.00  0.00     0.000 OA
ENDBRANCH 104 111
BRANCH 107 116
ATOM    116   C  IDS B   6      31.481  15.631  31.9180  0.00  0.00     0.000 C
ATOM    117   O  IDS B   6      32.520  16.099  31.5270  0.00  0.00     0.000 OA
ATOM    118   O  IDS B   6      30.664  15.144  31.1530  0.00  0.00     0.000 OA
ENDBRANCH 107 116
BRANCH 103 119
ATOM    119  O4  SGN B   7      31.918  14.661  36.0470  0.00  0.00     0.000 O
BRANCH 119 123
ATOM    120  C1  SGN B   7      35.568  12.787  36.8560  0.00  0.00     0.000 C
ATOM    121  C2  SGN B   7      35.454  13.593  35.5480  0.00  0.00     0.000 C
ATOM    122  C3  SGN B   7      34.237  14.525  35.5950  0.00  0.00     0.000 C
ATOM    123  C4  SGN B   7      32.990  13.725  35.9350  0.00  0.00     0.000 C
ATOM    124  C5  SGN B   7      33.206  12.954  37.2470  0.00  0.00     0.000 C
ATOM    125  O5  SGN B   7      34.361  12.089  37.1580  0.00  0.00     0.000 O
ATOM    126   O  SGN B   7      34.105  15.184  34.3300  0.00  0.00     0.000 O
ATOM    128  HD  SGN B   7      34.583  14.688  34.8550  0.00  0.00     0.000 HD
BRANCH 121 130
ATOM    128   N  SGN B   7      36.915  13.480  35.5800  0.00  0.00     0.000 N
ATOM    130  HD  SGN B   7      36.878  12.775  35.0770  0.00  0.00     0.000 HD
ATOM    130   S  SGN B   7      37.832  13.840  34.3060  0.00  0.00     0.000 S
ATOM    131   O  SGN B   7      37.398  15.129  33.8870  0.00  0.00     0.000 OA
ATOM    132   O  SGN B   7      39.189  13.619  34.6570  0.00  0.00     0.000 OA
ATOM    133   O  SGN B   7      37.471  12.650  33.3540  0.00  0.00     0.000 OA
ENDBRANCH 121 130
BRANCH 124 134
ATOM    134   C  SGN B   7      32.071  12.041  37.6080  0.00  0.00     0.000 C
ATOM    135   O  SGN B   7      32.162  10.855  36.8010  0.00  0.00     0.000 O
ATOM    136   S  SGN B   7      31.150   9.701  37.1340  0.00  0.00     0.000 S
ATOM    137   O  SGN B   7      31.360   8.676  36.1400  0.00  0.00     0.000 OA
ATOM    138   O  SGN B   7      29.842  10.310  37.0500  0.00  0.00     0.000 OA
ATOM    139   O  SGN B   7      31.549   9.313  38.4780  0.00  0.00     0.000 OA
ENDBRANCH 124 134
BRANCH 120 140
ATOM    140  O4  IDS B   8      35.858  13.241  38.0800  0.00  0.00     0.000 O
BRANCH 140 144
ATOM    141  C1  IDS B   8      37.260  14.136  41.2730  0.00  0.00     0.000 C
ATOM    142  C2  IDS B   8      35.891  13.403  41.1780  0.00  0.00     0.000 C
ATOM    143  C3  IDS B   8      34.931  14.049  40.1620  0.00  0.00     0.000 C
ATOM    144  C4  IDS B   8      35.638  14.422  38.8610  0.00  0.00     0.000 C
ATOM    145  C5  IDS B   8      36.977  15.111  39.1650  0.00  0.00     0.000 C
ATOM    146  O5  IDS B   8      37.819  14.293  39.9750  0.00  0.00     0.000 O
BRANCH 142 147
ATOM    147   O  IDS B   8      36.111  11.998  40.7440  0.00  0.00     0.000 O
ATOM    148   S  IDS B   8      35.096  10.816  41.1960  0.00  0.00     0.000 S
ATOM    149   O  IDS B   8      34.312  11.311  42.3040  0.00  0.00     0.000 OA
ATOM    150   O  IDS B   8      34.291  10.528  40.0230  0.00  0.00     0.000 OA
ATOM    151   O  IDS B   8      35.949   9.710  41.5870  0.00  0.00     0.000 OA
ENDBRANCH 142 147
BRANCH 145 152
ATOM    152   C  IDS B   8      37.774  15.416  37.9120  0.00  0.00     0.000 C
ATOM    153   O  IDS B   8      37.333  16.218  37.0960  0.00  0.00     0.000 OA
ATOM    154   O  IDS B   8      38.853  14.879  37.7390  0.00  0.00     0.000 OA
ENDBRANCH 145 152
ENDBRANCH 140 144
ENDBRANCH 120 140
ENDBRANCH 119 123
ENDBRANCH 103 119
ENDBRANCH 102 106
ENDBRANCH 82 102
ENDBRANCH 81 85
ENDBRANCH 65 81
ENDBRANCH 64 68
ENDBRANCH 41 64
ENDBRANCH 40 44
ENDBRANCH 24 40
ENDBRANCH 23 27
ENDBRANCH 1 23
TORSDOF 31
ENDMDL
MODEL 74
REMARK VINA RESULT:      -6.8      8.079     18.258
ROOT
ATOM      1  C1  SGN B   1      13.643  20.125  21.9620  0.00  0.00     0.000 C
ATOM      2  C2  SGN B   1      12.669  19.104  21.3510  0.00  0.00     0.000 C
ATOM      3  C3  SGN B   1      12.833  19.043  19.8280  0.00  0.00     0.000 C
ATOM      4  C4  SGN B   1      12.657  20.432  19.2230  0.00  0.00     0.000 C
ATOM      5  C5  SGN B   1      13.549  21.419  19.9730  0.00  0.00     0.000 C
ATOM      6  O5  SGN B   1      13.253  21.363  21.3810  0.00  0.00     0.000 O
ATOM      7   O  SGN B   1      11.900  18.130  19.2620  0.00  0.00     0.000 O
ATOM      9  HD  SGN B   1      11.375  18.712  19.6300  0.00  0.00     0.000 HD
ATOM      9   O  SGN B   1      13.011  20.396  17.8530  0.00  0.00     0.000 O
ATOM     11  HD  SGN B   1      12.486  20.978  18.2220  0.00  0.00     0.000 HD
ENDROOT
BRANCH 2 13
ATOM     11   N  SGN B   1      12.008  18.652  22.5900  0.00  0.00     0.000 N
ATOM     13  HD  SGN B   1      12.865  18.569  22.4920  0.00  0.00     0.000 HD
ATOM     13   S  SGN B   1      12.595  17.453  23.4880  0.00  0.00     0.000 S
ATOM     14   O  SGN B   1      13.806  16.982  22.9390  0.00  0.00     0.000 OA
ATOM     15   O  SGN B   1      12.555  17.853  24.8550  0.00  0.00     0.000 OA
ATOM     16   O  SGN B   1      11.438  16.428  23.2750  0.00  0.00     0.000 OA
ENDBRANCH 2 13
BRANCH 5 17
ATOM     17   C  SGN B   1      13.381  22.853  19.5350  0.00  0.00     0.000 C
ATOM     18   O  SGN B   1      14.483  23.271  18.7060  0.00  0.00     0.000 O
ATOM     19   S  SGN B   1      15.108  24.705  19.0400  0.00  0.00     0.000 S
ATOM     20   O  SGN B   1      16.012  24.984  17.9450  0.00  0.00     0.000 OA
ATOM     21   O  SGN B   1      13.964  25.586  19.0840  0.00  0.00     0.000 OA
ATOM     22   O  SGN B   1      15.772  24.540  20.3140  0.00  0.00     0.000 OA
ENDBRANCH 5 17
BRANCH 1 23
ATOM     23  O4  IDS B   2      14.907  20.204  22.4660  0.00  0.00     0.000 O
BRANCH 23 27
ATOM     24  C1  IDS B   2      19.001  19.636  22.8480  0.00  0.00     0.000 C
ATOM     25  C2  IDS B   2      18.323  18.855  21.7010  0.00  0.00     0.000 C
ATOM     26  C3  IDS B   2      16.902  19.357  21.4630  0.00  0.00     0.000 C
ATOM     27  C4  IDS B   2      16.034  19.338  22.7150  0.00  0.00     0.000 C
ATOM     28  C5  IDS B   2      16.877  19.725  23.9460  0.00  0.00     0.000 C
ATOM     29  O5  IDS B   2      18.045  20.433  23.5600  0.00  0.00     0.000 O
ATOM     30   O  IDS B   2      16.270  18.534  20.4900  0.00  0.00     0.000 O
ATOM     32  HD  IDS B   2      15.983  17.783  20.8120  0.00  0.00     0.000 HD
BRANCH 25 32
ATOM     32   O  IDS B   2      19.063  18.982  20.4210  0.00  0.00     0.000 O
ATOM     33   S  IDS B   2      19.977  17.748  19.8160  0.00  0.00     0.000 S
ATOM     34   O  IDS B   2      20.717  18.304  18.6940  0.00  0.00     0.000 OA
ATOM     35   O  IDS B   2      20.873  17.256  20.8530  0.00  0.00     0.000 OA
ATOM     36   O  IDS B   2      19.035  16.743  19.3790  0.00  0.00     0.000 OA
ENDBRANCH 25 32
BRANCH 28 37
ATOM     37   C  IDS B   2      16.183  20.514  25.0750  0.00  0.00     0.000 C
ATOM     38   O  IDS B   2      16.657  21.615  25.2360  0.00  0.00     0.000 OA
ATOM     39   O  IDS B   2      15.188  20.151  25.7500  0.00  0.00     0.000 OA
ENDBRANCH 28 37
BRANCH 24 40
ATOM     40  O4  SUS B   3      20.241  19.293  23.2540  0.00  0.00     0.000 O
BRANCH 40 44
ATOM     41  C1  SUS B   3      23.316  21.640  24.8620  0.00  0.00     0.000 C
ATOM     42  C2  SUS B   3      22.034  21.486  25.7030  0.00  0.00     0.000 C
ATOM     43  C3  SUS B   3      21.260  20.261  25.2210  0.00  0.00     0.000 C
ATOM     44  C4  SUS B   3      21.006  20.396  23.7270  0.00  0.00     0.000 C
ATOM     45  C5  SUS B   3      22.338  20.446  23.0070  0.00  0.00     0.000 C
ATOM     46  O5  SUS B   3      23.049  21.618  23.4550  0.00  0.00     0.000 O
BRANCH 42 49
ATOM     47   N  SUS B   3      22.183  21.403  27.1660  0.00  0.00     0.000 N
ATOM     49  HD  SUS B   3      21.699  20.811  27.5720  0.00  0.00     0.000 HD
ATOM     49   S  SUS B   3      21.955  22.813  27.8910  0.00  0.00     0.000 S
ATOM     50   O  SUS B   3      20.676  23.315  27.5730  0.00  0.00     0.000 OA
ATOM     51   O  SUS B   3      21.984  22.275  29.3450  0.00  0.00     0.000 OA
ATOM     52   O  SUS B   3      23.063  23.649  27.6470  0.00  0.00     0.000 OA
ENDBRANCH 42 49
BRANCH 43 53
ATOM     53   O  SUS B   3      19.975  20.220  25.9460  0.00  0.00     0.000 O
ATOM     54   S  SUS B   3      19.676  18.892  26.8680  0.00  0.00     0.000 S
ATOM     55   O  SUS B   3      20.559  18.956  28.0240  0.00  0.00     0.000 OA
ATOM     56   O  SUS B   3      18.267  19.004  27.1990  0.00  0.00     0.000 OA
ATOM     57   O  SUS B   3      19.982  17.729  26.0300  0.00  0.00     0.000 OA
ENDBRANCH 43 53
BRANCH 45 58
ATOM     58   C  SUS B   3      22.168  20.480  21.5040  0.00  0.00     0.000 C
ATOM     59   S  SUS B   3      21.788  22.083  19.5370  0.00  0.00     0.000 S
ATOM     60   O  SUS B   3      22.171  21.845  21.0550  0.00  0.00     0.000 O
ATOM     61   O  SUS B   3      20.343  21.967  19.4870  0.00  0.00     0.000 OA
ATOM     62   O  SUS B   3      22.242  23.436  19.3550  0.00  0.00     0.000 OA
ATOM     63   O  SUS B   3      22.503  21.098  18.8060  0.00  0.00     0.000 OA
ENDBRANCH 45 58
BRANCH 41 64
ATOM     64  O4  IDS B   4      24.338  20.810  25.2520  0.00  0.00     0.000 O
BRANCH 64 68
ATOM     65  C1  IDS B   4      27.684  19.517  25.8930  0.00  0.00     0.000 C
ATOM     66  C2  IDS B   4      26.893  20.204  27.0140  0.00  0.00     0.000 C
ATOM     67  C3  IDS B   4      26.235  21.512  26.6070  0.00  0.00     0.000 C
ATOM     68  C4  IDS B   4      25.628  21.460  25.2180  0.00  0.00     0.000 C
ATOM     69  C5  IDS B   4      26.633  20.774  24.2830  0.00  0.00     0.000 C
ATOM     70  O5  IDS B   4      26.865  19.439  24.7390  0.00  0.00     0.000 O
ATOM     71   O  IDS B   4      27.229  22.514  26.6570  0.00  0.00     0.000 O
ATOM     73  HD  IDS B   4      26.881  21.741  26.8340  0.00  0.00     0.000 HD
BRANCH 66 73
ATOM     73   O  IDS B   4      25.792  19.322  27.4240  0.00  0.00     0.000 O
ATOM     74   S  IDS B   4      25.277  19.415  28.9550  0.00  0.00     0.000 S
ATOM     75   O  IDS B   4      26.432  19.171  29.7920  0.00  0.00     0.000 OA
ATOM     76   O  IDS B   4      24.288  18.367  28.9990  0.00  0.00     0.000 OA
ATOM     77   O  IDS B   4      24.738  20.746  29.1000  0.00  0.00     0.000 OA
ENDBRANCH 66 73
BRANCH 69 78
ATOM     78   C  IDS B   4      26.265  20.840  22.8070  0.00  0.00     0.000 C
ATOM     79   O  IDS B   4      25.910  19.807  22.2400  0.00  0.00     0.000 OA
ATOM     80   O  IDS B   4      26.235  21.952  22.2500  0.00  0.00     0.000 OA
ENDBRANCH 69 78
BRANCH 65 81
ATOM     81  O4  SGN B   5      28.891  20.131  25.7480  0.00  0.00     0.000 O
BRANCH 81 85
ATOM     82  C1  SGN B   5      32.624  18.998  24.1920  0.00  0.00     0.000 C
ATOM     83  C2  SGN B   5      32.064  20.357  23.7440  0.00  0.00     0.000 C
ATOM     84  C3  SGN B   5      30.976  20.813  24.7260  0.00  0.00     0.000 C
ATOM     85  C4  SGN B   5      29.912  19.734  24.8300  0.00  0.00     0.000 C
ATOM     86  C5  SGN B   5      30.581  18.445  25.3030  0.00  0.00     0.000 C
ATOM     87  O5  SGN B   5      31.575  18.059  24.3360  0.00  0.00     0.000 O
ATOM     88   O  SGN B   5      30.417  22.032  24.2890  0.00  0.00     0.000 O
ATOM     90  HD  SGN B   5      31.001  21.946  24.9230  0.00  0.00     0.000 HD
BRANCH 83 92
ATOM     90   N  SGN B   5      33.190  20.224  22.7980  0.00  0.00     0.000 N
ATOM     92  HD  SGN B   5      33.058  19.567  22.2490  0.00  0.00     0.000 HD
ATOM     92   S  SGN B   5      33.773  21.555  22.1340  0.00  0.00     0.000 S
ATOM     93   O  SGN B   5      34.827  21.093  21.2810  0.00  0.00     0.000 OA
ATOM     94   O  SGN B   5      32.652  22.233  21.5790  0.00  0.00     0.000 OA
ATOM     95   O  SGN B   5      34.269  22.382  23.3000  0.00  0.00     0.000 OA
ENDBRANCH 83 92
BRANCH 86 96
ATOM     96   C  SGN B   5      29.631  17.277  25.4660  0.00  0.00     0.000 C
ATOM     97   O  SGN B   5      30.078  16.407  26.5090  0.00  0.00     0.000 O
ATOM     98   S  SGN B   5      28.990  16.021  27.6210  0.00  0.00     0.000 S
ATOM     99   O  SGN B   5      29.667  15.003  28.3880  0.00  0.00     0.000 OA
ATOM    100   O  SGN B   5      28.683  17.202  28.3450  0.00  0.00     0.000 OA
ATOM    101   O  SGN B   5      27.881  15.522  26.8750  0.00  0.00     0.000 OA
ENDBRANCH 86 96
BRANCH 82 102
ATOM    102  O4  IDS B   6      33.346  19.083  25.3450  0.00  0.00     0.000 O
BRANCH 102 106
ATOM    103  C1  IDS B   6      36.377  17.857  26.9470  0.00  0.00     0.000 C
ATOM    104  C2  IDS B   6      36.187  17.733  25.4270  0.00  0.00     0.000 C
ATOM    105  C3  IDS B   6      34.839  17.192  24.9900  0.00  0.00     0.000 C
ATOM    106  C4  IDS B   6      33.689  17.752  25.8080  0.00  0.00     0.000 C
ATOM    107  C5  IDS B   6      34.071  17.773  27.2910  0.00  0.00     0.000 C
ATOM    108  O5  IDS B   6      35.267  18.518  27.5230  0.00  0.00     0.000 O
ATOM    109   O  IDS B   6      34.881  15.777  25.0820  0.00  0.00     0.000 O
ATOM    111  HD  IDS B   6      35.511  15.624  25.6560  0.00  0.00     0.000 HD
BRANCH 104 111
ATOM    111   O  IDS B   6      36.283  19.071  24.8220  0.00  0.00     0.000 O
ATOM    112   S  IDS B   6      37.302  19.275  23.6050  0.00  0.00     0.000 S
ATOM    113   O  IDS B   6      38.599  18.902  24.1470  0.00  0.00     0.000 OA
ATOM    114   O  IDS B   6      36.849  18.452  22.4770  0.00  0.00     0.000 OA
ATOM    115   O  IDS B   6      37.138  20.698  23.3990  0.00  0.00     0.000 OA
ENDBRANCH 104 111
BRANCH 107 116
ATOM    116   C  IDS B   6      32.925  18.369  28.0980  0.00  0.00     0.000 C
ATOM    117   O  IDS B   6      32.908  19.569  28.2100  0.00  0.00     0.000 OA
ATOM    118   O  IDS B   6      32.074  17.661  28.6130  0.00  0.00     0.000 OA
ENDBRANCH 107 116
BRANCH 103 119
ATOM    119  O4  SGN B   7      36.728  16.602  27.3290  0.00  0.00     0.000 O
BRANCH 119 123
ATOM    120  C1  SGN B   7      38.481  14.858  30.7020  0.00  0.00     0.000 C
ATOM    121  C2  SGN B   7      36.955  15.067  30.7190  0.00  0.00     0.000 C
ATOM    122  C3  SGN B   7      36.432  15.326  29.3000  0.00  0.00     0.000 C
ATOM    123  C4  SGN B   7      37.204  16.473  28.6700  0.00  0.00     0.000 C
ATOM    124  C5  SGN B   7      38.711  16.172  28.7070  0.00  0.00     0.000 C
ATOM    125  O5  SGN B   7      39.160  15.937  30.0610  0.00  0.00     0.000 O
ATOM    126   O  SGN B   7      35.031  15.613  29.3660  0.00  0.00     0.000 O
ATOM    128  HD  SGN B   7      35.745  15.337  29.7710  0.00  0.00     0.000 HD
BRANCH 121 130
ATOM    128   N  SGN B   7      36.764  14.988  32.1690  0.00  0.00     0.000 N
ATOM    130  HD  SGN B   7      35.967  15.318  32.0890  0.00  0.00     0.000 HD
ATOM    130   S  SGN B   7      35.800  13.892  32.8510  0.00  0.00     0.000 S
ATOM    131   O  SGN B   7      36.197  12.647  32.2880  0.00  0.00     0.000 OA
ATOM    132   O  SGN B   7      35.828  14.086  34.2560  0.00  0.00     0.000 OA
ATOM    133   O  SGN B   7      34.400  14.433  32.4040  0.00  0.00     0.000 OA
ENDBRANCH 121 130
BRANCH 124 134
ATOM    134   C  SGN B   7      39.568  17.300  28.2110  0.00  0.00     0.000 C
ATOM    135   O  SGN B   7      39.295  18.466  29.0060  0.00  0.00     0.000 O
ATOM    136   S  SGN B   7      40.205  19.720  28.7440  0.00  0.00     0.000 S
ATOM    137   O  SGN B   7      39.682  20.781  29.5710  0.00  0.00     0.000 OA
ATOM    138   O  SGN B   7      40.078  19.991  27.3300  0.00  0.00     0.000 OA
ATOM    139   O  SGN B   7      41.518  19.244  29.1510  0.00  0.00     0.000 OA
ENDBRANCH 124 134
BRANCH 120 140
ATOM    140  O4  IDS B   8      39.166  13.837  30.1740  0.00  0.00     0.000 O
BRANCH 140 144
ATOM    141  C1  IDS B   8      40.331  11.343  27.8540  0.00  0.00     0.000 C
ATOM    142  C2  IDS B   8      38.818  11.686  27.9670  0.00  0.00     0.000 C
ATOM    143  C3  IDS B   8      38.310  11.704  29.4210  0.00  0.00     0.000 C
ATOM    144  C4  IDS B   8      39.282  12.421  30.3570  0.00  0.00     0.000 C
ATOM    145  C5  IDS B   8      40.722  11.967  30.0750  0.00  0.00     0.000 C
ATOM    146  O5  IDS B   8      41.086  12.187  28.7140  0.00  0.00     0.000 O
BRANCH 142 147
ATOM    147   O  IDS B   8      38.572  13.037  27.3980  0.00  0.00     0.000 O
ATOM    148   S  IDS B   8      38.041  13.219  25.8760  0.00  0.00     0.000 S
ATOM    149   O  IDS B   8      38.258  11.969  25.1840  0.00  0.00     0.000 OA
ATOM    150   O  IDS B   8      36.635  13.559  25.9950  0.00  0.00     0.000 OA
ATOM    151   O  IDS B   8      38.841  14.293  25.3180  0.00  0.00     0.000 OA
ENDBRANCH 142 147
BRANCH 145 152
ATOM    152   C  IDS B   8      41.743  12.717  30.9060  0.00  0.00     0.000 C
ATOM    153   O  IDS B   8      42.610  13.378  30.3460  0.00  0.00     0.000 OA
ATOM    154   O  IDS B   8      41.680  12.671  32.1220  0.00  0.00     0.000 OA
ENDBRANCH 145 152
ENDBRANCH 140 144
ENDBRANCH 120 140
ENDBRANCH 119 123
ENDBRANCH 103 119
ENDBRANCH 102 106
ENDBRANCH 82 102
ENDBRANCH 81 85
ENDBRANCH 65 81
ENDBRANCH 64 68
ENDBRANCH 41 64
ENDBRANCH 40 44
ENDBRANCH 24 40
ENDBRANCH 23 27
ENDBRANCH 1 23
TORSDOF 31
ENDMDL
MODEL 75
REMARK VINA RESULT:      -6.8      4.168     20.185
ROOT
ATOM      1  C1  SGN B   1       9.993  21.117  29.2030  0.00  0.00     0.000 C
ATOM      2  C2  SGN B   1       8.595  21.721  29.4150  0.00  0.00     0.000 C
ATOM      3  C3  SGN B   1       8.669  23.250  29.4800  0.00  0.00     0.000 C
ATOM      4  C4  SGN B   1       9.649  23.684  30.5660  0.00  0.00     0.000 C
ATOM      5  C5  SGN B   1      10.967  22.938  30.3750  0.00  0.00     0.000 C
ATOM      6  O5  SGN B   1      10.720  21.519  30.3560  0.00  0.00     0.000 O
ATOM      7   O  SGN B   1       7.380  23.803  29.7210  0.00  0.00     0.000 O
ATOM      9  HD  SGN B   1       7.500  23.320  30.4300  0.00  0.00     0.000 HD
ATOM      9   O  SGN B   1       9.860  25.081  30.4780  0.00  0.00     0.000 O
ATOM     11  HD  SGN B   1       9.980  24.598  31.1870  0.00  0.00     0.000 HD
ENDROOT
BRANCH 2 13
ATOM     11   N  SGN B   1       7.744  20.517  29.4610  0.00  0.00     0.000 N
ATOM     13  HD  SGN B   1       8.281  20.650  28.7950  0.00  0.00     0.000 HD
ATOM     13   S  SGN B   1       7.235  19.772  28.1290  0.00  0.00     0.000 S
ATOM     14   O  SGN B   1       7.764  20.407  26.9860  0.00  0.00     0.000 OA
ATOM     15   O  SGN B   1       7.420  18.370  28.2990  0.00  0.00     0.000 OA
ATOM     16   O  SGN B   1       5.709  20.058  28.2820  0.00  0.00     0.000 OA
ENDBRANCH 2 13
BRANCH 5 17
ATOM     17   C  SGN B   1      11.985  23.203  31.4570  0.00  0.00     0.000 C
ATOM     18   O  SGN B   1      11.407  23.013  32.7640  0.00  0.00     0.000 O
ATOM     19   S  SGN B   1      11.735  24.143  33.8470  0.00  0.00     0.000 S
ATOM     20   O  SGN B   1      11.252  23.611  35.1040  0.00  0.00     0.000 OA
ATOM     21   O  SGN B   1      13.172  24.278  33.7910  0.00  0.00     0.000 OA
ATOM     22   O  SGN B   1      11.016  25.316  33.3990  0.00  0.00     0.000 OA
ENDBRANCH 5 17
BRANCH 1 23
ATOM     23  O4  IDS B   2      10.841  20.749  28.2000  0.00  0.00     0.000 O
BRANCH 23 27
ATOM     24  C1  IDS B   2      13.579  18.971  25.6360  0.00  0.00     0.000 C
ATOM     25  C2  IDS B   2      12.201  18.279  25.7250  0.00  0.00     0.000 C
ATOM     26  C3  IDS B   2      11.190  19.165  26.4470  0.00  0.00     0.000 C
ATOM     27  C4  IDS B   2      11.655  19.618  27.8250  0.00  0.00     0.000 C
ATOM     28  C5  IDS B   2      13.170  19.902  27.8030  0.00  0.00     0.000 C
ATOM     29  O5  IDS B   2      13.624  20.131  26.4770  0.00  0.00     0.000 O
ATOM     30   O  IDS B   2       9.974  18.446  26.6190  0.00  0.00     0.000 O
ATOM     32  HD  IDS B   2       9.999  17.885  27.2780  0.00  0.00     0.000 HD
BRANCH 25 32
ATOM     32   O  IDS B   2      11.644  17.963  24.3860  0.00  0.00     0.000 O
ATOM     33   S  IDS B   2      11.253  16.422  23.9460  0.00  0.00     0.000 S
ATOM     34   O  IDS B   2      10.961  16.469  22.5220  0.00  0.00     0.000 OA
ATOM     35   O  IDS B   2      12.374  15.538  24.2300  0.00  0.00     0.000 OA
ATOM     36   O  IDS B   2      10.076  16.084  24.7130  0.00  0.00     0.000 OA
ENDBRANCH 25 32
BRANCH 28 37
ATOM     37   C  IDS B   2      13.704  21.037  28.7010  0.00  0.00     0.000 C
ATOM     38   O  IDS B   2      13.925  20.672  29.8320  0.00  0.00     0.000 OA
ATOM     39   O  IDS B   2      13.970  22.213  28.3540  0.00  0.00     0.000 OA
ENDBRANCH 28 37
BRANCH 24 40
ATOM     40  O4  SUS B   3      14.626  18.318  25.0910  0.00  0.00     0.000 O
BRANCH 40 44
ATOM     41  C1  SUS B   3      17.968  19.785  23.0350  0.00  0.00     0.000 C
ATOM     42  C2  SUS B   3      17.847  20.141  24.5300  0.00  0.00     0.000 C
ATOM     43  C3  SUS B   3      16.887  19.164  25.2040  0.00  0.00     0.000 C
ATOM     44  C4  SUS B   3      15.563  19.181  24.4560  0.00  0.00     0.000 C
ATOM     45  C5  SUS B   3      15.799  18.727  23.0310  0.00  0.00     0.000 C
ATOM     46  O5  SUS B   3      16.690  19.669  22.4000  0.00  0.00     0.000 O
BRANCH 42 49
ATOM     47   N  SUS B   3      19.186  20.196  25.1430  0.00  0.00     0.000 N
ATOM     49  HD  SUS B   3      19.307  19.716  25.8530  0.00  0.00     0.000 HD
ATOM     49   S  SUS B   3      19.655  21.693  25.4690  0.00  0.00     0.000 S
ATOM     50   O  SUS B   3      18.719  22.314  26.3200  0.00  0.00     0.000 OA
ATOM     51   O  SUS B   3      20.938  21.312  26.2520  0.00  0.00     0.000 OA
ATOM     52   O  SUS B   3      19.982  22.352  24.2670  0.00  0.00     0.000 OA
ENDBRANCH 42 49
BRANCH 43 53
ATOM     53   O  SUS B   3      16.683  19.613  26.5950  0.00  0.00     0.000 O
ATOM     54   S  SUS B   3      17.254  18.638  27.7890  0.00  0.00     0.000 S
ATOM     55   O  SUS B   3      18.708  18.720  27.7610  0.00  0.00     0.000 OA
ATOM     56   O  SUS B   3      16.660  19.178  28.9990  0.00  0.00     0.000 OA
ATOM     57   O  SUS B   3      16.793  17.283  27.4740  0.00  0.00     0.000 OA
ENDBRANCH 43 53
BRANCH 45 58
ATOM     58   C  SUS B   3      14.509  18.622  22.2480  0.00  0.00     0.000 C
ATOM     59   S  SUS B   3      13.255  19.632  20.2500  0.00  0.00     0.000 S
ATOM     60   O  SUS B   3      14.594  19.449  21.0750  0.00  0.00     0.000 O
ATOM     61   O  SUS B   3      12.478  20.602  20.9970  0.00  0.00     0.000 OA
ATOM     62   O  SUS B   3      13.772  20.165  19.0170  0.00  0.00     0.000 OA
ATOM     63   O  SUS B   3      12.684  18.335  20.1590  0.00  0.00     0.000 OA
ENDBRANCH 45 58
BRANCH 41 64
ATOM     64  O4  IDS B   4      18.818  18.736  22.7830  0.00  0.00     0.000 O
BRANCH 64 68
ATOM     65  C1  IDS B   4      21.874  17.052  21.7350  0.00  0.00     0.000 C
ATOM     66  C2  IDS B   4      21.945  18.287  22.6420  0.00  0.00     0.000 C
ATOM     67  C3  IDS B   4      21.071  19.446  22.1940  0.00  0.00     0.000 C
ATOM     68  C4  IDS B   4      19.715  18.999  21.6810  0.00  0.00     0.000 C
ATOM     69  C5  IDS B   4      19.927  17.787  20.7640  0.00  0.00     0.000 C
ATOM     70  O5  IDS B   4      20.514  16.723  21.5170  0.00  0.00     0.000 O
ATOM     71   O  IDS B   4      21.768  20.125  21.1700  0.00  0.00     0.000 O
ATOM     73  HD  IDS B   4      21.686  19.588  21.8440  0.00  0.00     0.000 HD
BRANCH 66 73
ATOM     73   O  IDS B   4      21.454  17.921  23.9780  0.00  0.00     0.000 O
ATOM     74   S  IDS B   4      22.547  17.557  25.1140  0.00  0.00     0.000 S
ATOM     75   O  IDS B   4      23.351  16.479  24.5790  0.00  0.00     0.000 OA
ATOM     76   O  IDS B   4      21.708  17.170  26.2200  0.00  0.00     0.000 OA
ATOM     77   O  IDS B   4      23.295  18.772  25.3320  0.00  0.00     0.000 OA
ENDBRANCH 66 73
BRANCH 69 78
ATOM     78   C  IDS B   4      18.686  17.355  19.9950  0.00  0.00     0.000 C
ATOM     79   O  IDS B   4      17.776  18.168  19.8370  0.00  0.00     0.000 OA
ATOM     80   O  IDS B   4      18.678  16.231  19.4610  0.00  0.00     0.000 OA
ENDBRANCH 69 78
BRANCH 65 81
ATOM     81  O4  SGN B   5      22.640  17.259  20.6280  0.00  0.00     0.000 O
BRANCH 81 85
ATOM     82  C1  SGN B   5      25.116  15.351  17.8230  0.00  0.00     0.000 C
ATOM     83  C2  SGN B   5      23.603  15.123  17.6870  0.00  0.00     0.000 C
ATOM     84  C3  SGN B   5      22.848  16.219  18.4530  0.00  0.00     0.000 C
ATOM     85  C4  SGN B   5      23.322  16.238  19.8950  0.00  0.00     0.000 C
ATOM     86  C5  SGN B   5      24.827  16.494  19.9020  0.00  0.00     0.000 C
ATOM     87  O5  SGN B   5      25.480  15.428  19.1880  0.00  0.00     0.000 O
ATOM     88   O  SGN B   5      21.459  15.984  18.3800  0.00  0.00     0.000 O
ATOM     90  HD  SGN B   5      21.895  16.565  17.9090  0.00  0.00     0.000 HD
BRANCH 83 92
ATOM     90   N  SGN B   5      22.979  13.892  17.1660  0.00  0.00     0.000 N
ATOM     92  HD  SGN B   5      22.189  13.778  17.5010  0.00  0.00     0.000 HD
ATOM     92   S  SGN B   5      23.100  13.592  15.6000  0.00  0.00     0.000 S
ATOM     93   O  SGN B   5      22.401  12.356  15.4210  0.00  0.00     0.000 OA
ATOM     94   O  SGN B   5      22.644  14.771  14.9460  0.00  0.00     0.000 OA
ATOM     95   O  SGN B   5      24.587  13.480  15.3440  0.00  0.00     0.000 OA
ENDBRANCH 83 92
BRANCH 86 96
ATOM     96   C  SGN B   5      25.440  16.553  21.2860  0.00  0.00     0.000 C
ATOM     97   O  SGN B   5      26.495  17.517  21.3280  0.00  0.00     0.000 O
ATOM     98   S  SGN B   5      26.424  18.590  22.5170  0.00  0.00     0.000 S
ATOM     99   O  SGN B   5      27.695  19.266  22.4110  0.00  0.00     0.000 OA
ATOM    100   O  SGN B   5      25.293  19.413  22.2820  0.00  0.00     0.000 OA
ATOM    101   O  SGN B   5      26.301  17.801  23.7000  0.00  0.00     0.000 OA
ENDBRANCH 86 96
BRANCH 82 102
ATOM    102  O4  IDS B   6      25.541  16.461  17.1550  0.00  0.00     0.000 O
BRANCH 102 106
ATOM    103  C1  IDS B   6      27.331  18.231  14.5240  0.00  0.00     0.000 C
ATOM    104  C2  IDS B   6      26.501  16.977  14.2040  0.00  0.00     0.000 C
ATOM    105  C3  IDS B   6      26.729  15.801  15.1340  0.00  0.00     0.000 C
ATOM    106  C4  IDS B   6      26.854  16.220  16.5890  0.00  0.00     0.000 C
ATOM    107  C5  IDS B   6      27.731  17.471  16.6930  0.00  0.00     0.000 C
ATOM    108  O5  IDS B   6      27.224  18.545  15.8990  0.00  0.00     0.000 O
ATOM    109   O  IDS B   6      27.895  15.118  14.7040  0.00  0.00     0.000 O
ATOM    111  HD  IDS B   6      28.335  15.717  14.2600  0.00  0.00     0.000 HD
BRANCH 104 111
ATOM    111   O  IDS B   6      25.072  17.302  14.3320  0.00  0.00     0.000 O
ATOM    112   S  IDS B   6      24.214  17.466  12.9910  0.00  0.00     0.000 S
ATOM    113   O  IDS B   6      24.881  18.529  12.2560  0.00  0.00     0.000 OA
ATOM    114   O  IDS B   6      24.181  16.171  12.3000  0.00  0.00     0.000 OA
ATOM    115   O  IDS B   6      22.947  17.857  13.5700  0.00  0.00     0.000 OA
ENDBRANCH 104 111
BRANCH 107 116
ATOM    116   C  IDS B   6      27.821  17.903  18.1510  0.00  0.00     0.000 C
ATOM    117   O  IDS B   6      28.488  17.214  18.8810  0.00  0.00     0.000 OA
ATOM    118   O  IDS B   6      27.236  18.895  18.5570  0.00  0.00     0.000 OA
ENDBRANCH 107 116
BRANCH 103 119
ATOM    119  O4  SGN B   7      28.534  17.975  13.9480  0.00  0.00     0.000 O
BRANCH 119 123
ATOM    120  C1  SGN B   7      31.718  20.226  12.4360  0.00  0.00     0.000 C
ATOM    121  C2  SGN B   7      31.566  20.143  13.9670  0.00  0.00     0.000 C
ATOM    122  C3  SGN B   7      30.634  18.988  14.3530  0.00  0.00     0.000 C
ATOM    123  C4  SGN B   7      29.315  19.122  13.6100  0.00  0.00     0.000 C
ATOM    124  C5  SGN B   7      29.573  19.203  12.0970  0.00  0.00     0.000 C
ATOM    125  O5  SGN B   7      30.453  20.304  11.7790  0.00  0.00     0.000 O
ATOM    126   O  SGN B   7      30.438  19.002  15.7720  0.00  0.00     0.000 O
ATOM    128  HD  SGN B   7      30.871  19.306  15.0860  0.00  0.00     0.000 HD
BRANCH 121 130
ATOM    128   N  SGN B   7      32.960  20.595  13.9510  0.00  0.00     0.000 N
ATOM    130  HD  SGN B   7      32.700  21.421  13.9600  0.00  0.00     0.000 HD
ATOM    130   S  SGN B   7      33.671  21.231  15.2480  0.00  0.00     0.000 S
ATOM    131   O  SGN B   7      33.411  20.312  16.3040  0.00  0.00     0.000 OA
ATOM    132   O  SGN B   7      35.005  21.569  14.9050  0.00  0.00     0.000 OA
ATOM    133   O  SGN B   7      32.924  22.605  15.3330  0.00  0.00     0.000 OA
ENDBRANCH 121 130
BRANCH 124 134
ATOM    134   C  SGN B   7      28.338  19.453  11.2830  0.00  0.00     0.000 C
ATOM    135   O  SGN B   7      28.640  19.194   9.9010  0.00  0.00     0.000 O
ATOM    136   S  SGN B   7      27.432  19.251   8.8980  0.00  0.00     0.000 S
ATOM    137   O  SGN B   7      27.990  19.065   7.5800  0.00  0.00     0.000 OA
ATOM    138   O  SGN B   7      26.847  20.559   9.0850  0.00  0.00     0.000 OA
ATOM    139   O  SGN B   7      26.599  18.147   9.3490  0.00  0.00     0.000 OA
ENDBRANCH 124 134
BRANCH 120 140
ATOM    140  O4  IDS B   8      32.323  19.355  11.6210  0.00  0.00     0.000 O
BRANCH 140 144
ATOM    141  C1  IDS B   8      34.976  17.966   9.6220  0.00  0.00     0.000 C
ATOM    142  C2  IDS B   8      34.760  19.504   9.7080  0.00  0.00     0.000 C
ATOM    143  C3  IDS B   8      33.296  19.922   9.4800  0.00  0.00     0.000 C
ATOM    144  C4  IDS B   8      32.319  19.016  10.2280  0.00  0.00     0.000 C
ATOM    145  C5  IDS B   8      32.713  17.543  10.0420  0.00  0.00     0.000 C
ATOM    146  O5  IDS B   8      34.051  17.298  10.4710  0.00  0.00     0.000 O
BRANCH 142 147
ATOM    147   O  IDS B   8      35.150  19.985  11.0590  0.00  0.00     0.000 O
ATOM    148   S  IDS B   8      35.733  21.483  11.2780  0.00  0.00     0.000 S
ATOM    149   O  IDS B   8      36.132  21.991   9.9850  0.00  0.00     0.000 OA
ATOM    150   O  IDS B   8      34.645  22.240  11.8680  0.00  0.00     0.000 OA
ATOM    151   O  IDS B   8      36.865  21.325  12.1710  0.00  0.00     0.000 OA
ENDBRANCH 142 147
BRANCH 145 152
ATOM    152   C  IDS B   8      31.839  16.600  10.8430  0.00  0.00     0.000 C
ATOM    153   O  IDS B   8      32.278  16.093  11.8690  0.00  0.00     0.000 OA
ATOM    154   O  IDS B   8      30.702  16.370  10.4700  0.00  0.00     0.000 OA
ENDBRANCH 145 152
ENDBRANCH 140 144
ENDBRANCH 120 140
ENDBRANCH 119 123
ENDBRANCH 103 119
ENDBRANCH 102 106
ENDBRANCH 82 102
ENDBRANCH 81 85
ENDBRANCH 65 81
ENDBRANCH 64 68
ENDBRANCH 41 64
ENDBRANCH 40 44
ENDBRANCH 24 40
ENDBRANCH 23 27
ENDBRANCH 1 23
TORSDOF 31
ENDMDL
MODEL 76
REMARK VINA RESULT:      -6.8      6.886     12.073
ROOT
ATOM      1  C1  SGN B   1      24.541  18.871  19.4050  0.00  0.00     0.000 C
ATOM      2  C2  SGN B   1      23.098  18.661  18.9180  0.00  0.00     0.000 C
ATOM      3  C3  SGN B   1      22.207  18.158  20.0590  0.00  0.00     0.000 C
ATOM      4  C4  SGN B   1      22.794  16.888  20.6650  0.00  0.00     0.000 C
ATOM      5  C5  SGN B   1      24.266  17.126  20.9940  0.00  0.00     0.000 C
ATOM      6  O5  SGN B   1      24.958  17.574  19.8120  0.00  0.00     0.000 O
ATOM      7   O  SGN B   1      20.883  17.923  19.5930  0.00  0.00     0.000 O
ATOM      9  HD  SGN B   1      21.341  17.370  19.1090  0.00  0.00     0.000 HD
ATOM      9   O  SGN B   1      22.079  16.553  21.8400  0.00  0.00     0.000 O
ATOM     11  HD  SGN B   1      22.537  16.000  21.3550  0.00  0.00     0.000 HD
ENDROOT
BRANCH 2 13
ATOM     11   N  SGN B   1      23.153  19.055  17.4970  0.00  0.00     0.000 N
ATOM     13  HD  SGN B   1      23.469  19.577  18.1110  0.00  0.00     0.000 HD
ATOM     13   S  SGN B   1      23.141  20.595  17.0310  0.00  0.00     0.000 S
ATOM     14   O  SGN B   1      23.125  21.443  18.1580  0.00  0.00     0.000 OA
ATOM     15   O  SGN B   1      24.145  20.771  16.0360  0.00  0.00     0.000 OA
ATOM     16   O  SGN B   1      21.763  20.596  16.2990  0.00  0.00     0.000 OA
ENDBRANCH 2 13
BRANCH 5 17
ATOM     17   C  SGN B   1      24.989  15.903  21.5000  0.00  0.00     0.000 C
ATOM     18   O  SGN B   1      24.660  15.645  22.8800  0.00  0.00     0.000 O
ATOM     19   S  SGN B   1      25.889  15.293  23.8400  0.00  0.00     0.000 S
ATOM     20   O  SGN B   1      25.283  14.855  25.0800  0.00  0.00     0.000 OA
ATOM     21   O  SGN B   1      26.595  14.246  23.1390  0.00  0.00     0.000 OA
ATOM     22   O  SGN B   1      26.636  16.525  23.9640  0.00  0.00     0.000 OA
ENDBRANCH 5 17
BRANCH 1 23
ATOM     23  O4  IDS B   2      25.338  19.830  19.9550  0.00  0.00     0.000 O
BRANCH 23 27
ATOM     24  C1  IDS B   2      25.122  20.058  24.0940  0.00  0.00     0.000 C
ATOM     25  C2  IDS B   2      24.103  20.927  23.3240  0.00  0.00     0.000 C
ATOM     26  C3  IDS B   2      24.068  20.547  21.8460  0.00  0.00     0.000 C
ATOM     27  C4  IDS B   2      25.434  20.596  21.1740  0.00  0.00     0.000 C
ATOM     28  C5  IDS B   2      26.520  20.105  22.1520  0.00  0.00     0.000 C
ATOM     29  O5  IDS B   2      25.952  19.319  23.1890  0.00  0.00     0.000 O
ATOM     30   O  IDS B   2      23.215  21.448  21.1510  0.00  0.00     0.000 O
ATOM     32  HD  IDS B   2      23.590  22.209  20.9770  0.00  0.00     0.000 HD
BRANCH 25 32
ATOM     32   O  IDS B   2      22.726  20.781  23.8570  0.00  0.00     0.000 O
ATOM     33   S  IDS B   2      21.898  22.058  24.4950  0.00  0.00     0.000 S
ATOM     34   O  IDS B   2      20.703  21.501  25.1080  0.00  0.00     0.000 OA
ATOM     35   O  IDS B   2      22.734  22.735  25.4760  0.00  0.00     0.000 OA
ATOM     36   O  IDS B   2      21.568  22.908  23.3740  0.00  0.00     0.000 OA
ENDBRANCH 25 32
BRANCH 28 37
ATOM     37   C  IDS B   2      27.724  19.338  21.5660  0.00  0.00     0.000 C
ATOM     38   O  IDS B   2      28.669  20.056  21.3380  0.00  0.00     0.000 OA
ATOM     39   O  IDS B   2      27.814  18.100  21.3820  0.00  0.00     0.000 OA
ENDBRANCH 28 37
BRANCH 24 40
ATOM     40  O4  SUS B   3      25.348  20.289  25.4040  0.00  0.00     0.000 O
BRANCH 40 44
ATOM     41  C1  SUS B   3      26.048  17.450  28.4040  0.00  0.00     0.000 C
ATOM     42  C2  SUS B   3      27.255  18.281  27.9240  0.00  0.00     0.000 C
ATOM     43  C3  SUS B   3      26.752  19.541  27.2240  0.00  0.00     0.000 C
ATOM     44  C4  SUS B   3      25.797  19.138  26.1110  0.00  0.00     0.000 C
ATOM     45  C5  SUS B   3      24.614  18.412  26.7190  0.00  0.00     0.000 C
ATOM     46  O5  SUS B   3      25.101  17.214  27.3570  0.00  0.00     0.000 O
BRANCH 42 49
ATOM     47   N  SUS B   3      28.129  18.462  29.0960  0.00  0.00     0.000 N
ATOM     49  HD  SUS B   3      28.301  19.279  29.3280  0.00  0.00     0.000 HD
ATOM     49   S  SUS B   3      29.520  17.680  28.9570  0.00  0.00     0.000 S
ATOM     50   O  SUS B   3      30.194  18.103  27.7940  0.00  0.00     0.000 OA
ATOM     51   O  SUS B   3      30.188  18.275  30.2230  0.00  0.00     0.000 OA
ATOM     52   O  SUS B   3      29.296  16.298  29.1150  0.00  0.00     0.000 OA
ENDBRANCH 42 49
BRANCH 43 53
ATOM     53   O  SUS B   3      27.919  20.242  26.6550  0.00  0.00     0.000 O
ATOM     54   S  SUS B   3      28.343  21.673  27.3440  0.00  0.00     0.000 S
ATOM     55   O  SUS B   3      28.905  21.377  28.6540  0.00  0.00     0.000 OA
ATOM     56   O  SUS B   3      29.299  22.243  26.4110  0.00  0.00     0.000 OA
ATOM     57   O  SUS B   3      27.111  22.459  27.4600  0.00  0.00     0.000 OA
ENDBRANCH 43 53
BRANCH 45 58
ATOM     58   C  SUS B   3      23.569  18.065  25.6820  0.00  0.00     0.000 C
ATOM     59   S  SUS B   3      21.073  17.534  25.4100  0.00  0.00     0.000 S
ATOM     60   O  SUS B   3      22.268  18.084  26.2920  0.00  0.00     0.000 O
ATOM     61   O  SUS B   3      21.189  16.090  25.4710  0.00  0.00     0.000 OA
ATOM     62   O  SUS B   3      19.944  18.033  26.1480  0.00  0.00     0.000 OA
ATOM     63   O  SUS B   3      21.257  18.105  24.1230  0.00  0.00     0.000 OA
ENDBRANCH 45 58
BRANCH 41 64
ATOM     64  O4  IDS B   4      25.491  17.907  29.5730  0.00  0.00     0.000 O
BRANCH 64 68
ATOM     65  C1  IDS B   4      24.102  17.189  32.8640  0.00  0.00     0.000 C
ATOM     66  C2  IDS B   4      25.044  16.185  32.1880  0.00  0.00     0.000 C
ATOM     67  C3  IDS B   4      24.723  15.906  30.7290  0.00  0.00     0.000 C
ATOM     68  C4  IDS B   4      24.322  17.154  29.9650  0.00  0.00     0.000 C
ATOM     69  C5  IDS B   4      23.344  17.954  30.8360  0.00  0.00     0.000 C
ATOM     70  O5  IDS B   4      23.999  18.340  32.0460  0.00  0.00     0.000 O
ATOM     71   O  IDS B   4      23.664  14.971  30.7040  0.00  0.00     0.000 O
ATOM     73  HD  IDS B   4      24.323  15.406  31.0610  0.00  0.00     0.000 HD
BRANCH 66 73
ATOM     73   O  IDS B   4      26.405  16.739  32.1890  0.00  0.00     0.000 O
ATOM     74   S  IDS B   4      27.510  16.031  33.1350  0.00  0.00     0.000 S
ATOM     75   O  IDS B   4      26.974  16.054  34.4800  0.00  0.00     0.000 OA
ATOM     76   O  IDS B   4      28.654  16.886  32.9450  0.00  0.00     0.000 OA
ATOM     77   O  IDS B   4      27.672  14.697  32.6080  0.00  0.00     0.000 OA
ENDBRANCH 66 73
BRANCH 69 78
ATOM     78   C  IDS B   4      22.678  19.124  30.1230  0.00  0.00     0.000 C
ATOM     79   O  IDS B   4      22.960  20.268  30.4760  0.00  0.00     0.000 OA
ATOM     80   O  IDS B   4      21.954  18.887  29.1390  0.00  0.00     0.000 OA
ENDBRANCH 69 78
BRANCH 65 81
ATOM     81  O4  SGN B   5      22.937  16.565  33.1940  0.00  0.00     0.000 O
BRANCH 81 85
ATOM     82  C1  SGN B   5      19.858  16.509  36.0500  0.00  0.00     0.000 C
ATOM     83  C2  SGN B   5      19.698  17.480  34.8700  0.00  0.00     0.000 C
ATOM     84  C3  SGN B   5      20.627  17.054  33.7250  0.00  0.00     0.000 C
ATOM     85  C4  SGN B   5      22.053  16.971  34.2410  0.00  0.00     0.000 C
ATOM     86  C5  SGN B   5      22.090  15.964  35.3880  0.00  0.00     0.000 C
ATOM     87  O5  SGN B   5      21.217  16.427  36.4360  0.00  0.00     0.000 O
ATOM     88   O  SGN B   5      20.528  17.973  32.6590  0.00  0.00     0.000 O
ATOM     90  HD  SGN B   5      20.149  17.195  32.6880  0.00  0.00     0.000 HD
BRANCH 83 92
ATOM     90   N  SGN B   5      18.612  17.971  35.7400  0.00  0.00     0.000 N
ATOM     92  HD  SGN B   5      18.930  18.333  36.4600  0.00  0.00     0.000 HD
ATOM     92   S  SGN B   5      17.405  18.767  35.0590  0.00  0.00     0.000 S
ATOM     93   O  SGN B   5      16.542  19.105  36.1500  0.00  0.00     0.000 OA
ATOM     94   O  SGN B   5      18.010  19.796  34.2840  0.00  0.00     0.000 OA
ATOM     95   O  SGN B   5      16.788  17.778  34.0940  0.00  0.00     0.000 OA
ENDBRANCH 83 92
BRANCH 86 96
ATOM     96   C  SGN B   5      23.462  15.768  35.9980  0.00  0.00     0.000 C
ATOM     97   O  SGN B   5      24.045  17.028  36.3390  0.00  0.00     0.000 O
ATOM     98   S  SGN B   5      24.615  17.162  37.8320  0.00  0.00     0.000 S
ATOM     99   O  SGN B   5      25.300  18.432  37.7980  0.00  0.00     0.000 OA
ATOM    100   O  SGN B   5      23.507  17.110  38.7170  0.00  0.00     0.000 OA
ATOM    101   O  SGN B   5      25.494  16.048  37.9770  0.00  0.00     0.000 OA
ENDBRANCH 86 96
BRANCH 82 102
ATOM    102  O4  IDS B   6      19.366  15.268  35.7780  0.00  0.00     0.000 O
BRANCH 102 106
ATOM    103  C1  IDS B   6      17.021  12.510  36.1680  0.00  0.00     0.000 C
ATOM    104  C2  IDS B   6      16.522  13.962  36.1060  0.00  0.00     0.000 C
ATOM    105  C3  IDS B   6      17.277  14.939  36.9860  0.00  0.00     0.000 C
ATOM    106  C4  IDS B   6      18.777  14.701  36.9760  0.00  0.00     0.000 C
ATOM    107  C5  IDS B   6      19.062  13.199  37.0640  0.00  0.00     0.000 C
ATOM    108  O5  IDS B   6      18.426  12.472  36.0110  0.00  0.00     0.000 O
ATOM    109   O  IDS B   6      16.760  14.837  38.3030  0.00  0.00     0.000 O
ATOM    111  HD  IDS B   6      16.407  14.046  38.3280  0.00  0.00     0.000 HD
BRANCH 104 111
ATOM    111   O  IDS B   6      16.688  14.467  34.7340  0.00  0.00     0.000 O
ATOM    112   S  IDS B   6      15.398  14.516  33.7880  0.00  0.00     0.000 S
ATOM    113   O  IDS B   6      14.929  13.140  33.7370  0.00  0.00     0.000 OA
ATOM    114   O  IDS B   6      14.439  15.468  34.3600  0.00  0.00     0.000 OA
ATOM    115   O  IDS B   6      16.022  14.971  32.5650  0.00  0.00     0.000 OA
ENDBRANCH 104 111
BRANCH 107 116
ATOM    116   C  IDS B   6      20.567  12.968  37.0160  0.00  0.00     0.000 C
ATOM    117   O  IDS B   6      21.223  13.489  37.8820  0.00  0.00     0.000 OA
ATOM    118   O  IDS B   6      21.079  12.295  36.1350  0.00  0.00     0.000 OA
ENDBRANCH 107 116
BRANCH 103 119
ATOM    119  O4  SGN B   7      16.421  12.012  37.2800  0.00  0.00     0.000 O
BRANCH 119 123
ATOM    120  C1  SGN B   7      15.344   8.211  38.6540  0.00  0.00     0.000 C
ATOM    121  C2  SGN B   7      16.740   8.739  39.0360  0.00  0.00     0.000 C
ATOM    122  C3  SGN B   7      16.821  10.255  38.8140  0.00  0.00     0.000 C
ATOM    123  C4  SGN B   7      16.406  10.588  37.3910  0.00  0.00     0.000 C
ATOM    124  C5  SGN B   7      15.008  10.014  37.1060  0.00  0.00     0.000 C
ATOM    125  O5  SGN B   7      14.978   8.587  37.3270  0.00  0.00     0.000 O
ATOM    126   O  SGN B   7      18.157  10.695  39.0840  0.00  0.00     0.000 O
ATOM    128  HD  SGN B   7      17.570  10.059  39.1220  0.00  0.00     0.000 HD
BRANCH 121 130
ATOM    128   N  SGN B   7      16.679   7.908  40.2410  0.00  0.00     0.000 N
ATOM    130  HD  SGN B   7      16.741   7.191  39.7580  0.00  0.00     0.000 HD
ATOM    130   S  SGN B   7      17.969   7.138  40.8200  0.00  0.00     0.000 S
ATOM    131   O  SGN B   7      18.990   8.127  40.8950  0.00  0.00     0.000 OA
ATOM    132   O  SGN B   7      17.578   6.421  41.9800  0.00  0.00     0.000 OA
ATOM    133   O  SGN B   7      18.158   6.039  39.7200  0.00  0.00     0.000 OA
ENDBRANCH 121 130
BRANCH 124 134
ATOM    134   C  SGN B   7      14.556  10.192  35.6860  0.00  0.00     0.000 C
ATOM    135   O  SGN B   7      13.756   9.057  35.3150  0.00  0.00     0.000 O
ATOM    136   S  SGN B   7      13.057   9.123  33.9100  0.00  0.00     0.000 S
ATOM    137   O  SGN B   7      12.408   7.847  33.7190  0.00  0.00     0.000 OA
ATOM    138   O  SGN B   7      14.126   9.358  32.9660  0.00  0.00     0.000 OA
ATOM    139   O  SGN B   7      12.137  10.238  34.0690  0.00  0.00     0.000 OA
ENDBRANCH 124 134
BRANCH 120 140
ATOM    140  O4  IDS B   8      14.179   8.447  39.2660  0.00  0.00     0.000 O
BRANCH 140 144
ATOM    141  C1  IDS B   8      11.494   9.624  41.3570  0.00  0.00     0.000 C
ATOM    142  C2  IDS B   8      12.834   9.133  41.9760  0.00  0.00     0.000 C
ATOM    143  C3  IDS B   8      13.296   7.776  41.4160  0.00  0.00     0.000 C
ATOM    144  C4  IDS B   8      13.134   7.697  39.8990  0.00  0.00     0.000 C
ATOM    145  C5  IDS B   8      11.762   8.248  39.4830  0.00  0.00     0.000 C
ATOM    146  O5  IDS B   8      11.573   9.586  39.9370  0.00  0.00     0.000 O
BRANCH 142 147
ATOM    147   O  IDS B   8      13.907  10.119  41.6810  0.00  0.00     0.000 O
ATOM    148   S  IDS B   8      15.001  10.526  42.8070  0.00  0.00     0.000 S
ATOM    149   O  IDS B   8      14.489  10.099  44.0900  0.00  0.00     0.000 OA
ATOM    150   O  IDS B   8      16.220   9.835  42.4300  0.00  0.00     0.000 OA
ATOM    151   O  IDS B   8      15.116  11.970  42.7240  0.00  0.00     0.000 OA
ENDBRANCH 142 147
BRANCH 145 152
ATOM    152   C  IDS B   8      11.581   8.288  37.9790  0.00  0.00     0.000 C
ATOM    153   O  IDS B   8      11.326   9.354  37.4300  0.00  0.00     0.000 OA
ATOM    154   O  IDS B   8      11.709   7.266  37.3300  0.00  0.00     0.000 OA
ENDBRANCH 145 152
ENDBRANCH 140 144
ENDBRANCH 120 140
ENDBRANCH 119 123
ENDBRANCH 103 119
ENDBRANCH 102 106
ENDBRANCH 82 102
ENDBRANCH 81 85
ENDBRANCH 65 81
ENDBRANCH 64 68
ENDBRANCH 41 64
ENDBRANCH 40 44
ENDBRANCH 24 40
ENDBRANCH 23 27
ENDBRANCH 1 23
TORSDOF 31
ENDMDL
MODEL 77
REMARK VINA RESULT:      -6.7      9.644     19.764
ROOT
ATOM      1  C1  SGN B   1      19.163  20.075  20.0890  0.00  0.00     0.000 C
ATOM      2  C2  SGN B   1      18.226  18.943  19.6360  0.00  0.00     0.000 C
ATOM      3  C3  SGN B   1      18.769  17.580  20.0810  0.00  0.00     0.000 C
ATOM      4  C4  SGN B   1      20.190  17.385  19.5630  0.00  0.00     0.000 C
ATOM      5  C5  SGN B   1      21.025  18.611  19.9270  0.00  0.00     0.000 C
ATOM      6  O5  SGN B   1      20.385  19.798  19.4190  0.00  0.00     0.000 O
ATOM      7   O  SGN B   1      17.923  16.532  19.6220  0.00  0.00     0.000 O
ATOM      9  HD  SGN B   1      18.177  16.891  18.8770  0.00  0.00     0.000 HD
ATOM      9   O  SGN B   1      20.748  16.223  20.1480  0.00  0.00     0.000 O
ATOM     11  HD  SGN B   1      21.003  16.583  19.4020  0.00  0.00     0.000 HD
ENDROOT
BRANCH 2 13
ATOM     11   N  SGN B   1      17.102  19.599  18.9430  0.00  0.00     0.000 N
ATOM     13  HD  SGN B   1      17.384  19.899  19.7040  0.00  0.00     0.000 HD
ATOM     13   S  SGN B   1      15.946  20.389  19.7350  0.00  0.00     0.000 S
ATOM     14   O  SGN B   1      16.218  20.387  21.1200  0.00  0.00     0.000 OA
ATOM     15   O  SGN B   1      15.710  21.627  19.0710  0.00  0.00     0.000 OA
ATOM     16   O  SGN B   1      14.753  19.446  19.3890  0.00  0.00     0.000 OA
ENDBRANCH 2 13
BRANCH 5 17
ATOM     17   C  SGN B   1      22.428  18.585  19.3710  0.00  0.00     0.000 C
ATOM     18   O  SGN B   1      22.442  18.049  18.0330  0.00  0.00     0.000 O
ATOM     19   S  SGN B   1      23.584  16.975  17.7190  0.00  0.00     0.000 S
ATOM     20   O  SGN B   1      23.532  16.780  16.2850  0.00  0.00     0.000 OA
ATOM     21   O  SGN B   1      24.800  17.611  18.1720  0.00  0.00     0.000 OA
ATOM     22   O  SGN B   1      23.217  15.800  18.4780  0.00  0.00     0.000 OA
ENDBRANCH 5 17
BRANCH 1 23
ATOM     23  O4  IDS B   2      19.367  20.915  21.1430  0.00  0.00     0.000 O
BRANCH 23 27
ATOM     24  C1  IDS B   2      22.715  19.811  23.3360  0.00  0.00     0.000 C
ATOM     25  C2  IDS B   2      21.359  19.338  23.9040  0.00  0.00     0.000 C
ATOM     26  C3  IDS B   2      20.240  19.534  22.8840  0.00  0.00     0.000 C
ATOM     27  C4  IDS B   2      20.137  20.961  22.3630  0.00  0.00     0.000 C
ATOM     28  C5  IDS B   2      21.546  21.568  22.2050  0.00  0.00     0.000 C
ATOM     29  O5  IDS B   2      22.531  20.548  22.1200  0.00  0.00     0.000 O
ATOM     30   O  IDS B   2      18.994  19.205  23.4860  0.00  0.00     0.000 O
ATOM     32  HD  IDS B   2      18.683  19.835  23.9930  0.00  0.00     0.000 HD
BRANCH 25 32
ATOM     32   O  IDS B   2      21.377  17.902  24.2790  0.00  0.00     0.000 O
ATOM     33   S  IDS B   2      21.012  17.395  25.8060  0.00  0.00     0.000 S
ATOM     34   O  IDS B   2      21.351  15.982  25.8550  0.00  0.00     0.000 OA
ATOM     35   O  IDS B   2      21.788  18.163  26.7700  0.00  0.00     0.000 OA
ATOM     36   O  IDS B   2      19.590  17.601  25.9560  0.00  0.00     0.000 OA
ENDBRANCH 25 32
BRANCH 28 37
ATOM     37   C  IDS B   2      21.777  22.563  21.0500  0.00  0.00     0.000 C
ATOM     38   O  IDS B   2      20.928  23.422  20.9960  0.00  0.00     0.000 OA
ATOM     39   O  IDS B   2      22.749  22.587  20.2560  0.00  0.00     0.000 OA
ENDBRANCH 28 37
BRANCH 24 40
ATOM     40  O4  SUS B   3      23.817  19.782  24.1130  0.00  0.00     0.000 O
BRANCH 40 44
ATOM     41  C1  SUS B   3      27.830  19.128  23.1070  0.00  0.00     0.000 C
ATOM     42  C2  SUS B   3      27.203  20.467  22.6690  0.00  0.00     0.000 C
ATOM     43  C3  SUS B   3      25.954  20.734  23.5060  0.00  0.00     0.000 C
ATOM     44  C4  SUS B   3      25.016  19.543  23.3840  0.00  0.00     0.000 C
ATOM     45  C5  SUS B   3      25.713  18.313  23.9290  0.00  0.00     0.000 C
ATOM     46  O5  SUS B   3      26.878  18.059  23.1170  0.00  0.00     0.000 O
BRANCH 42 49
ATOM     47   N  SUS B   3      27.296  21.246  21.4220  0.00  0.00     0.000 N
ATOM     49  HD  SUS B   3      27.145  20.816  20.6860  0.00  0.00     0.000 HD
ATOM     49   S  SUS B   3      28.697  22.009  21.2740  0.00  0.00     0.000 S
ATOM     50   O  SUS B   3      29.757  21.082  21.3340  0.00  0.00     0.000 OA
ATOM     51   O  SUS B   3      28.481  22.499  19.8190  0.00  0.00     0.000 OA
ATOM     52   O  SUS B   3      28.731  23.099  22.1670  0.00  0.00     0.000 OA
ENDBRANCH 42 49
BRANCH 43 53
ATOM     53   O  SUS B   3      25.299  21.944  22.9720  0.00  0.00     0.000 O
ATOM     54   S  SUS B   3      25.139  23.223  23.9930  0.00  0.00     0.000 S
ATOM     55   O  SUS B   3      26.467  23.785  24.1990  0.00  0.00     0.000 OA
ATOM     56   O  SUS B   3      24.226  24.114  23.3000  0.00  0.00     0.000 OA
ATOM     57   O  SUS B   3      24.589  22.689  25.2430  0.00  0.00     0.000 OA
ENDBRANCH 43 53
BRANCH 45 58
ATOM     58   C  SUS B   3      24.805  17.103  23.9340  0.00  0.00     0.000 C
ATOM     59   S  SUS B   3      23.826  15.290  22.4050  0.00  0.00     0.000 S
ATOM     60   O  SUS B   3      24.874  16.450  22.6550  0.00  0.00     0.000 O
ATOM     61   O  SUS B   3      22.577  15.964  22.1040  0.00  0.00     0.000 OA
ATOM     62   O  SUS B   3      24.404  14.651  21.2530  0.00  0.00     0.000 OA
ATOM     63   O  SUS B   3      23.826  14.514  23.5940  0.00  0.00     0.000 OA
ENDBRANCH 45 58
BRANCH 41 64
ATOM     64  O4  IDS B   4      28.585  19.219  24.2510  0.00  0.00     0.000 O
BRANCH 64 68
ATOM     65  C1  IDS B   4      31.720  19.560  26.0760  0.00  0.00     0.000 C
ATOM     66  C2  IDS B   4      31.542  20.241  24.7130  0.00  0.00     0.000 C
ATOM     67  C3  IDS B   4      30.939  19.350  23.6400  0.00  0.00     0.000 C
ATOM     68  C4  IDS B   4      29.819  18.471  24.1640  0.00  0.00     0.000 C
ATOM     69  C5  IDS B   4      30.267  17.875  25.5060  0.00  0.00     0.000 C
ATOM     70  O5  IDS B   4      30.501  18.935  26.4360  0.00  0.00     0.000 O
ATOM     71   O  IDS B   4      31.981  18.543  23.1310  0.00  0.00     0.000 O
ATOM     73  HD  IDS B   4      31.643  19.219  23.5550  0.00  0.00     0.000 HD
BRANCH 66 73
ATOM     73   O  IDS B   4      30.604  21.362  24.8640  0.00  0.00     0.000 O
ATOM     74   S  IDS B   4      31.215  22.858  24.9310  0.00  0.00     0.000 S
ATOM     75   O  IDS B   4      32.161  22.865  26.0270  0.00  0.00     0.000 OA
ATOM     76   O  IDS B   4      30.035  23.650  25.1700  0.00  0.00     0.000 OA
ATOM     77   O  IDS B   4      31.830  23.082  23.6450  0.00  0.00     0.000 OA
ENDBRANCH 66 73
BRANCH 69 78
ATOM     78   C  IDS B   4      29.344  16.797  26.0550  0.00  0.00     0.000 C
ATOM     79   O  IDS B   4      29.208  16.700  27.2740  0.00  0.00     0.000 OA
ATOM     80   O  IDS B   4      28.675  16.120  25.2530  0.00  0.00     0.000 OA
ENDBRANCH 69 78
BRANCH 65 81
ATOM     81  O4  SGN B   5      32.829  18.770  26.0460  0.00  0.00     0.000 O
BRANCH 81 85
ATOM     82  C1  SGN B   5      35.776  17.054  28.4980  0.00  0.00     0.000 C
ATOM     83  C2  SGN B   5      34.326  16.992  29.0020  0.00  0.00     0.000 C
ATOM     84  C3  SGN B   5      33.364  17.222  27.8270  0.00  0.00     0.000 C
ATOM     85  C4  SGN B   5      33.706  18.538  27.1510  0.00  0.00     0.000 C
ATOM     86  C5  SGN B   5      35.155  18.471  26.6760  0.00  0.00     0.000 C
ATOM     87  O5  SGN B   5      36.007  18.274  27.8200  0.00  0.00     0.000 O
ATOM     88   O  SGN B   5      32.032  17.223  28.2920  0.00  0.00     0.000 O
ATOM     90  HD  SGN B   5      32.423  16.564  27.8880  0.00  0.00     0.000 HD
BRANCH 83 92
ATOM     90   N  SGN B   5      34.418  15.705  29.7180  0.00  0.00     0.000 N
ATOM     92  HD  SGN B   5      35.091  15.239  29.4350  0.00  0.00     0.000 HD
ATOM     92   S  SGN B   5      34.219  15.712  31.3040  0.00  0.00     0.000 S
ATOM     93   O  SGN B   5      34.371  14.340  31.6860  0.00  0.00     0.000 OA
ATOM     94   O  SGN B   5      35.119  16.695  31.8010  0.00  0.00     0.000 OA
ATOM     95   O  SGN B   5      32.815  16.237  31.5130  0.00  0.00     0.000 OA
ENDBRANCH 83 92
BRANCH 86 96
ATOM     96   C  SGN B   5      35.633  19.721  25.9660  0.00  0.00     0.000 C
ATOM     97   O  SGN B   5      36.204  19.391  24.6980  0.00  0.00     0.000 O
ATOM     98   S  SGN B   5      35.656  20.219  23.4390  0.00  0.00     0.000 S
ATOM     99   O  SGN B   5      36.546  19.813  22.3780  0.00  0.00     0.000 OA
ATOM    100   O  SGN B   5      34.299  19.852  23.2460  0.00  0.00     0.000 OA
ATOM    101   O  SGN B   5      35.813  21.586  23.8170  0.00  0.00     0.000 OA
ENDBRANCH 86 96
BRANCH 82 102
ATOM    102  O4  IDS B   6      36.100  15.998  27.7000  0.00  0.00     0.000 O
BRANCH 102 106
ATOM    103  C1  IDS B   6      38.751  13.586  27.0620  0.00  0.00     0.000 C
ATOM    104  C2  IDS B   6      38.721  14.393  28.3690  0.00  0.00     0.000 C
ATOM    105  C3  IDS B   6      38.480  15.881  28.2000  0.00  0.00     0.000 C
ATOM    106  C4  IDS B   6      37.428  16.189  27.1490  0.00  0.00     0.000 C
ATOM    107  C5  IDS B   6      37.643  15.295  25.9240  0.00  0.00     0.000 C
ATOM    108  O5  IDS B   6      37.626  13.908  26.2670  0.00  0.00     0.000 O
ATOM    109   O  IDS B   6      39.716  16.494  27.8700  0.00  0.00     0.000 O
ATOM    111  HD  IDS B   6      40.185  15.848  27.5350  0.00  0.00     0.000 HD
BRANCH 104 111
ATOM    111   O  IDS B   6      37.610  13.912  29.2050  0.00  0.00     0.000 O
ATOM    112   S  IDS B   6      37.967  13.181  30.5830  0.00  0.00     0.000 S
ATOM    113   O  IDS B   6      38.796  12.051  30.1950  0.00  0.00     0.000 OA
ATOM    114   O  IDS B   6      38.627  14.150  31.4660  0.00  0.00     0.000 OA
ATOM    115   O  IDS B   6      36.632  12.814  31.0050  0.00  0.00     0.000 OA
ENDBRANCH 104 111
BRANCH 107 116
ATOM    116   C  IDS B   6      36.562  15.586  24.8920  0.00  0.00     0.000 C
ATOM    117   O  IDS B   6      35.569  14.904  24.9400  0.00  0.00     0.000 OA
ATOM    118   O  IDS B   6      36.703  16.462  24.0530  0.00  0.00     0.000 OA
ENDBRANCH 107 116
BRANCH 103 119
ATOM    119  O4  SGN B   7      40.016  13.765  26.6030  0.00  0.00     0.000 O
BRANCH 119 123
ATOM    120  C1  SGN B   7      42.404  12.117  23.5900  0.00  0.00     0.000 C
ATOM    121  C2  SGN B   7      41.405  13.218  23.1870  0.00  0.00     0.000 C
ATOM    122  C3  SGN B   7      40.916  13.981  24.4250  0.00  0.00     0.000 C
ATOM    123  C4  SGN B   7      40.370  13.001  25.4500  0.00  0.00     0.000 C
ATOM    124  C5  SGN B   7      41.436  11.942  25.7800  0.00  0.00     0.000 C
ATOM    125  O5  SGN B   7      41.865  11.249  24.5870  0.00  0.00     0.000 O
ATOM    126   O  SGN B   7      39.918  14.927  24.0250  0.00  0.00     0.000 O
ATOM    128  HD  SGN B   7      40.532  14.363  23.7920  0.00  0.00     0.000 HD
BRANCH 121 130
ATOM    128   N  SGN B   7      42.231  13.259  21.9780  0.00  0.00     0.000 N
ATOM    130  HD  SGN B   7      41.702  12.696  21.5880  0.00  0.00     0.000 HD
ATOM    130   S  SGN B   7      41.755  14.011  20.6360  0.00  0.00     0.000 S
ATOM    131   O  SGN B   7      41.350  15.308  21.0600  0.00  0.00     0.000 OA
ATOM    132   O  SGN B   7      42.769  13.861  19.6560  0.00  0.00     0.000 OA
ATOM    133   O  SGN B   7      40.608  13.052  20.1690  0.00  0.00     0.000 OA
ENDBRANCH 121 130
BRANCH 124 134
ATOM    134   C  SGN B   7      40.952  10.859  26.6980  0.00  0.00     0.000 C
ATOM    135   O  SGN B   7      42.080  10.328  27.4150  0.00  0.00     0.000 O
ATOM    136   S  SGN B   7      41.763   9.284  28.5440  0.00  0.00     0.000 S
ATOM    137   O  SGN B   7      43.038   8.823  29.0400  0.00  0.00     0.000 OA
ATOM    138   O  SGN B   7      41.001   8.242  27.8930  0.00  0.00     0.000 OA
ATOM    139   O  SGN B   7      41.007  10.076  29.5010  0.00  0.00     0.000 OA
ENDBRANCH 124 134
BRANCH 120 140
ATOM    140  O4  IDS B   8      43.637  12.266  24.0870  0.00  0.00     0.000 O
BRANCH 140 144
ATOM    141  C1  IDS B   8      47.164  12.517  24.7620  0.00  0.00     0.000 C
ATOM    142  C2  IDS B   8      46.254  11.578  25.6040  0.00  0.00     0.000 C
ATOM    143  C3  IDS B   8      44.972  12.270  26.1040  0.00  0.00     0.000 C
ATOM    144  C4  IDS B   8      44.317  13.119  25.0160  0.00  0.00     0.000 C
ATOM    145  C5  IDS B   8      45.380  13.954  24.2840  0.00  0.00     0.000 C
ATOM    146  O5  IDS B   8      46.404  13.132  23.7290  0.00  0.00     0.000 O
BRANCH 142 147
ATOM    147   O  IDS B   8      45.833  10.420  24.7730  0.00  0.00     0.000 O
ATOM    148   S  IDS B   8      45.460   8.995  25.4530  0.00  0.00     0.000 S
ATOM    149   O  IDS B   8      45.981   9.003  26.8010  0.00  0.00     0.000 OA
ATOM    150   O  IDS B   8      44.011   8.914  25.4120  0.00  0.00     0.000 OA
ATOM    151   O  IDS B   8      46.109   7.996  24.6270  0.00  0.00     0.000 OA
ENDBRANCH 142 147
BRANCH 145 152
ATOM    152   C  IDS B   8      44.805  14.744  23.1260  0.00  0.00     0.000 C
ATOM    153   O  IDS B   8      43.986  15.628  23.3450  0.00  0.00     0.000 OA
ATOM    154   O  IDS B   8      45.179  14.506  21.9910  0.00  0.00     0.000 OA
ENDBRANCH 145 152
ENDBRANCH 140 144
ENDBRANCH 120 140
ENDBRANCH 119 123
ENDBRANCH 103 119
ENDBRANCH 102 106
ENDBRANCH 82 102
ENDBRANCH 81 85
ENDBRANCH 65 81
ENDBRANCH 64 68
ENDBRANCH 41 64
ENDBRANCH 40 44
ENDBRANCH 24 40
ENDBRANCH 23 27
ENDBRANCH 1 23
TORSDOF 31
ENDMDL
MODEL 78
REMARK VINA RESULT:      -6.7      5.137      9.422
ROOT
ATOM      1  C1  SGN B   1      34.801  20.870   8.8330  0.00  0.00     0.000 C
ATOM      2  C2  SGN B   1      36.232  20.450   8.4600  0.00  0.00     0.000 C
ATOM      3  C3  SGN B   1      37.251  21.093   9.4080  0.00  0.00     0.000 C
ATOM      4  C4  SGN B   1      37.083  22.609   9.4120  0.00  0.00     0.000 C
ATOM      5  C5  SGN B   1      35.613  22.948   9.6480  0.00  0.00     0.000 C
ATOM      6  O5  SGN B   1      34.801  22.281   8.6630  0.00  0.00     0.000 O
ATOM      7   O  SGN B   1      38.577  20.738   9.0320  0.00  0.00     0.000 O
ATOM      9  HD  SGN B   1      38.299  21.156   8.3260  0.00  0.00     0.000 HD
ATOM      9   O  SGN B   1      37.884  23.168  10.4360  0.00  0.00     0.000 O
ATOM     11  HD  SGN B   1      37.607  23.586   9.7300  0.00  0.00     0.000 HD
ENDROOT
BRANCH 2 13
ATOM     11   N  SGN B   1      35.933  19.584   7.3040  0.00  0.00     0.000 N
ATOM     13  HD  SGN B   1      35.592  19.414   8.0820  0.00  0.00     0.000 HD
ATOM     13   S  SGN B   1      35.579  18.023   7.4690  0.00  0.00     0.000 S
ATOM     14   O  SGN B   1      35.555  17.672   8.8350  0.00  0.00     0.000 OA
ATOM     15   O  SGN B   1      34.450  17.728   6.6510  0.00  0.00     0.000 OA
ATOM     16   O  SGN B   1      36.833  17.433   6.7540  0.00  0.00     0.000 OA
ENDBRANCH 2 13
BRANCH 5 17
ATOM     17   C  SGN B   1      35.302  24.421   9.5640  0.00  0.00     0.000 C
ATOM     18   O  SGN B   1      34.841  24.923  10.8350  0.00  0.00     0.000 O
ATOM     19   S  SGN B   1      33.556  25.873  10.7890  0.00  0.00     0.000 S
ATOM     20   O  SGN B   1      33.445  26.419  12.1250  0.00  0.00     0.000 OA
ATOM     21   O  SGN B   1      33.883  26.860   9.7860  0.00  0.00     0.000 OA
ATOM     22   O  SGN B   1      32.457  25.006  10.4240  0.00  0.00     0.000 OA
ENDBRANCH 5 17
BRANCH 1 23
ATOM     23  O4  IDS B   2      33.760  20.477   9.6220  0.00  0.00     0.000 O
BRANCH 23 27
ATOM     24  C1  IDS B   2      31.369  19.458  12.8580  0.00  0.00     0.000 C
ATOM     25  C2  IDS B   2      32.737  20.084  13.2100  0.00  0.00     0.000 C
ATOM     26  C3  IDS B   2      33.396  20.687  11.9720  0.00  0.00     0.000 C
ATOM     27  C4  IDS B   2      33.535  19.703  10.8180  0.00  0.00     0.000 C
ATOM     28  C5  IDS B   2      32.300  18.782  10.7590  0.00  0.00     0.000 C
ATOM     29  O5  IDS B   2      31.198  19.367  11.4380  0.00  0.00     0.000 O
ATOM     30   O  IDS B   2      34.701  21.140  12.3110  0.00  0.00     0.000 O
ATOM     32  HD  IDS B   2      35.285  20.501  12.3480  0.00  0.00     0.000 HD
BRANCH 25 32
ATOM     32   O  IDS B   2      32.617  21.161  14.2230  0.00  0.00     0.000 O
ATOM     33   S  IDS B   2      33.487  21.140  15.6250  0.00  0.00     0.000 S
ATOM     34   O  IDS B   2      32.950  22.210  16.4510  0.00  0.00     0.000 OA
ATOM     35   O  IDS B   2      33.336  19.843  16.2690  0.00  0.00     0.000 OA
ATOM     36   O  IDS B   2      34.853  21.408  15.2400  0.00  0.00     0.000 OA
ENDBRANCH 25 32
BRANCH 28 37
ATOM     37   C  IDS B   2      31.819  18.309   9.3720  0.00  0.00     0.000 C
ATOM     38   O  IDS B   2      32.253  17.221   9.0730  0.00  0.00     0.000 OA
ATOM     39   O  IDS B   2      31.014  18.898   8.6100  0.00  0.00     0.000 OA
ENDBRANCH 28 37
BRANCH 24 40
ATOM     40  O4  SUS B   3      30.660  18.813  13.8080  0.00  0.00     0.000 O
BRANCH 40 44
ATOM     41  C1  SUS B   3      26.513  18.636  14.3720  0.00  0.00     0.000 C
ATOM     42  C2  SUS B   3      27.150  17.553  13.4790  0.00  0.00     0.000 C
ATOM     43  C3  SUS B   3      28.647  17.477  13.7700  0.00  0.00     0.000 C
ATOM     44  C4  SUS B   3      29.254  18.860  13.5930  0.00  0.00     0.000 C
ATOM     45  C5  SUS B   3      28.612  19.808  14.5850  0.00  0.00     0.000 C
ATOM     46  O5  SUS B   3      27.204  19.887  14.2840  0.00  0.00     0.000 O
BRANCH 42 49
ATOM     47   N  SUS B   3      26.290  16.379  13.7050  0.00  0.00     0.000 N
ATOM     49  HD  SUS B   3      26.668  15.685  14.0620  0.00  0.00     0.000 HD
ATOM     49   S  SUS B   3      25.530  15.904  12.3770  0.00  0.00     0.000 S
ATOM     50   O  SUS B   3      26.468  15.616  11.3650  0.00  0.00     0.000 OA
ATOM     51   O  SUS B   3      24.942  14.596  12.9650  0.00  0.00     0.000 OA
ATOM     52   O  SUS B   3      24.503  16.820  12.0740  0.00  0.00     0.000 OA
ENDBRANCH 42 49
BRANCH 43 53
ATOM     53   O  SUS B   3      29.251  16.536  12.8070  0.00  0.00     0.000 O
ATOM     54   S  SUS B   3      29.732  15.075  13.3860  0.00  0.00     0.000 S
ATOM     55   O  SUS B   3      28.531  14.309  13.6890  0.00  0.00     0.000 OA
ATOM     56   O  SUS B   3      30.527  14.514  12.3090  0.00  0.00     0.000 OA
ATOM     57   O  SUS B   3      30.510  15.345  14.5990  0.00  0.00     0.000 OA
ENDBRANCH 43 53
BRANCH 45 58
ATOM     58   C  SUS B   3      29.236  21.185  14.5370  0.00  0.00     0.000 C
ATOM     59   S  SUS B   3      29.391  23.298  13.0890  0.00  0.00     0.000 S
ATOM     60   O  SUS B   3      28.695  21.915  13.4230  0.00  0.00     0.000 O
ATOM     61   O  SUS B   3      30.614  22.949  12.3930  0.00  0.00     0.000 OA
ATOM     62   O  SUS B   3      28.407  23.889  12.2220  0.00  0.00     0.000 OA
ATOM     63   O  SUS B   3      29.566  23.947  14.3400  0.00  0.00     0.000 OA
ENDBRANCH 45 58
BRANCH 41 64
ATOM     64  O4  IDS B   4      26.267  18.219  15.6570  0.00  0.00     0.000 O
BRANCH 64 68
ATOM     65  C1  IDS B   4      24.388  17.722  18.7390  0.00  0.00     0.000 C
ATOM     66  C2  IDS B   4      23.738  17.426  17.3820  0.00  0.00     0.000 C
ATOM     67  C3  IDS B   4      23.946  18.508  16.3360  0.00  0.00     0.000 C
ATOM     68  C4  IDS B   4      25.348  19.087  16.3580  0.00  0.00     0.000 C
ATOM     69  C5  IDS B   4      25.739  19.336  17.8210  0.00  0.00     0.000 C
ATOM     70  O5  IDS B   4      25.738  18.093  18.5270  0.00  0.00     0.000 O
ATOM     71   O  IDS B   4      23.004  19.529  16.5950  0.00  0.00     0.000 O
ATOM     73  HD  IDS B   4      23.337  18.731  16.6520  0.00  0.00     0.000 HD
BRANCH 66 73
ATOM     73   O  IDS B   4      24.349  16.214  16.8190  0.00  0.00     0.000 O
ATOM     74   S  IDS B   4      23.414  14.907  16.6360  0.00  0.00     0.000 S
ATOM     75   O  IDS B   4      22.863  14.612  17.9410  0.00  0.00     0.000 OA
ATOM     76   O  IDS B   4      24.361  13.929  16.1630  0.00  0.00     0.000 OA
ATOM     77   O  IDS B   4      22.413  15.282  15.6650  0.00  0.00     0.000 OA
ENDBRANCH 66 73
BRANCH 69 78
ATOM     78   C  IDS B   4      27.032  20.119  18.0020  0.00  0.00     0.000 C
ATOM     79   O  IDS B   4      27.148  21.207  17.4400  0.00  0.00     0.000 OA
ATOM     80   O  IDS B   4      27.886  19.684  18.7970  0.00  0.00     0.000 OA
ENDBRANCH 69 78
BRANCH 65 81
ATOM     81  O4  SGN B   5      23.612  18.602  19.4300  0.00  0.00     0.000 O
BRANCH 81 85
ATOM     82  C1  SGN B   5      22.846  19.931  23.3400  0.00  0.00     0.000 C
ATOM     83  C2  SGN B   5      23.736  20.823  22.4620  0.00  0.00     0.000 C
ATOM     84  C3  SGN B   5      23.534  20.455  20.9850  0.00  0.00     0.000 C
ATOM     85  C4  SGN B   5      23.804  18.972  20.7980  0.00  0.00     0.000 C
ATOM     86  C5  SGN B   5      22.849  18.193  21.6990  0.00  0.00     0.000 C
ATOM     87  O5  SGN B   5      23.098  18.566  23.0680  0.00  0.00     0.000 O
ATOM     88   O  SGN B   5      24.390  21.231  20.1760  0.00  0.00     0.000 O
ATOM     90  HD  SGN B   5      23.544  21.373  20.2930  0.00  0.00     0.000 HD
BRANCH 83 92
ATOM     90   N  SGN B   5      24.225  21.410  23.7250  0.00  0.00     0.000 N
ATOM     92  HD  SGN B   5      24.875  20.942  24.0540  0.00  0.00     0.000 HD
ATOM     92   S  SGN B   5      24.433  22.994  23.7860  0.00  0.00     0.000 S
ATOM     93   O  SGN B   5      24.910  23.237  25.1140  0.00  0.00     0.000 OA
ATOM     94   O  SGN B   5      25.247  23.320  22.6650  0.00  0.00     0.000 OA
ATOM     95   O  SGN B   5      23.059  23.572  23.5300  0.00  0.00     0.000 OA
ENDBRANCH 83 92
BRANCH 86 96
ATOM     96   C  SGN B   5      22.997  16.689  21.6060  0.00  0.00     0.000 C
ATOM     97   O  SGN B   5      23.824  16.200  22.6650  0.00  0.00     0.000 O
ATOM     98   S  SGN B   5      23.228  14.981  23.5210  0.00  0.00     0.000 S
ATOM     99   O  SGN B   5      24.348  14.594  24.3450  0.00  0.00     0.000 OA
ATOM    100   O  SGN B   5      22.107  15.472  24.2380  0.00  0.00     0.000 OA
ATOM    101   O  SGN B   5      22.879  14.000  22.5450  0.00  0.00     0.000 OA
ENDBRANCH 86 96
BRANCH 82 102
ATOM    102  O4  IDS B   6      21.519  20.207  23.1930  0.00  0.00     0.000 O
BRANCH 102 106
ATOM    103  C1  IDS B   6      18.569  20.240  25.3280  0.00  0.00     0.000 C
ATOM    104  C2  IDS B   6      19.973  20.068  25.9300  0.00  0.00     0.000 C
ATOM    105  C3  IDS B   6      20.852  19.050  25.2300  0.00  0.00     0.000 C
ATOM    106  C4  IDS B   6      20.729  19.110  23.7170  0.00  0.00     0.000 C
ATOM    107  C5  IDS B   6      19.257  19.262  23.3240  0.00  0.00     0.000 C
ATOM    108  O5  IDS B   6      18.660  20.412  23.9260  0.00  0.00     0.000 O
ATOM    109   O  IDS B   6      20.506  17.762  25.7130  0.00  0.00     0.000 O
ATOM    111  HD  IDS B   6      19.698  17.860  26.0080  0.00  0.00     0.000 HD
BRANCH 104 111
ATOM    111   O  IDS B   6      20.698  21.344  25.8260  0.00  0.00     0.000 O
ATOM    112   S  IDS B   6      21.234  22.017  27.1760  0.00  0.00     0.000 S
ATOM    113   O  IDS B   6      20.042  22.210  27.9870  0.00  0.00     0.000 OA
ATOM    114   O  IDS B   6      22.241  21.130  27.7700  0.00  0.00     0.000 OA
ATOM    115   O  IDS B   6      21.776  23.241  26.6280  0.00  0.00     0.000 OA
ENDBRANCH 104 111
BRANCH 107 116
ATOM    116   C  IDS B   6      19.147  19.358  21.8070  0.00  0.00     0.000 C
ATOM    117   O  IDS B   6      19.438  18.371  21.1800  0.00  0.00     0.000 OA
ATOM    118   O  IDS B   6      18.791  20.389  21.2600  0.00  0.00     0.000 OA
ENDBRANCH 107 116
BRANCH 103 119
ATOM    119  O4  SGN B   7      17.860  19.217  25.8690  0.00  0.00     0.000 O
BRANCH 119 123
ATOM    120  C1  SGN B   7      13.878  18.511  26.9330  0.00  0.00     0.000 C
ATOM    121  C2  SGN B   7      14.238  18.452  25.4360  0.00  0.00     0.000 C
ATOM    122  C3  SGN B   7      15.756  18.328  25.2530  0.00  0.00     0.000 C
ATOM    123  C4  SGN B   7      16.457  19.442  26.0110  0.00  0.00     0.000 C
ATOM    124  C5  SGN B   7      16.028  19.421  27.4870  0.00  0.00     0.000 C
ATOM    125  O5  SGN B   7      14.593  19.541  27.6120  0.00  0.00     0.000 O
ATOM    126   O  SGN B   7      16.061  18.375  23.8540  0.00  0.00     0.000 O
ATOM    128  HD  SGN B   7      15.460  18.314  24.4740  0.00  0.00     0.000 HD
BRANCH 121 130
ATOM    128   N  SGN B   7      13.078  17.570  25.2830  0.00  0.00     0.000 N
ATOM    130  HD  SGN B   7      12.544  18.246  25.3620  0.00  0.00     0.000 HD
ATOM    130   S  SGN B   7      12.189  17.544  23.9410  0.00  0.00     0.000 S
ATOM    131   O  SGN B   7      13.123  17.400  22.8780  0.00  0.00     0.000 OA
ATOM    132   O  SGN B   7      11.147  16.597  24.1140  0.00  0.00     0.000 OA
ATOM    133   O  SGN B   7      11.479  18.937  24.0480  0.00  0.00     0.000 OA
ENDBRANCH 121 130
BRANCH 124 134
ATOM    134   C  SGN B   7      16.580  20.557  28.2960  0.00  0.00     0.000 C
ATOM    135   O  SGN B   7      16.119  20.421  29.6510  0.00  0.00     0.000 O
ATOM    136   S  SGN B   7      16.712  21.431  30.6980  0.00  0.00     0.000 S
ATOM    137   O  SGN B   7      16.032  21.170  31.9440  0.00  0.00     0.000 OA
ATOM    138   O  SGN B   7      16.425  22.742  30.1620  0.00  0.00     0.000 OA
ATOM    139   O  SGN B   7      18.123  21.079  30.7070  0.00  0.00     0.000 OA
ENDBRANCH 124 134
BRANCH 120 140
ATOM    140  O4  IDS B   8      13.992  17.540  27.8460  0.00  0.00     0.000 O
BRANCH 140 144
ATOM    141  C1  IDS B   8      12.704  14.865  29.8820  0.00  0.00     0.000 C
ATOM    142  C2  IDS B   8      11.830  16.108  29.5480  0.00  0.00     0.000 C
ATOM    143  C3  IDS B   8      12.560  17.442  29.7930  0.00  0.00     0.000 C
ATOM    144  C4  IDS B   8      13.997  17.412  29.2730  0.00  0.00     0.000 C
ATOM    145  C5  IDS B   8      14.681  16.099  29.6830  0.00  0.00     0.000 C
ATOM    146  O5  IDS B   8      13.959  14.961  29.2200  0.00  0.00     0.000 O
BRANCH 142 147
ATOM    147   O  IDS B   8      11.446  16.073  28.1130  0.00  0.00     0.000 O
ATOM    148   S  IDS B   8      10.032  16.689  27.6100  0.00  0.00     0.000 S
ATOM    149   O  IDS B   8       9.186  16.848  28.7720  0.00  0.00     0.000 OA
ATOM    150   O  IDS B   8      10.362  17.952  26.9780  0.00  0.00     0.000 OA
ATOM    151   O  IDS B   8       9.498  15.710  26.6820  0.00  0.00     0.000 OA
ENDBRANCH 142 147
BRANCH 145 152
ATOM    152   C  IDS B   8      16.079  15.967  29.1110  0.00  0.00     0.000 C
ATOM    153   O  IDS B   8      16.899  16.856  29.3090  0.00  0.00     0.000 OA
ATOM    154   O  IDS B   8      16.378  14.970  28.4800  0.00  0.00     0.000 OA
ENDBRANCH 145 152
ENDBRANCH 140 144
ENDBRANCH 120 140
ENDBRANCH 119 123
ENDBRANCH 103 119
ENDBRANCH 102 106
ENDBRANCH 82 102
ENDBRANCH 81 85
ENDBRANCH 65 81
ENDBRANCH 64 68
ENDBRANCH 41 64
ENDBRANCH 40 44
ENDBRANCH 24 40
ENDBRANCH 23 27
ENDBRANCH 1 23
TORSDOF 31
ENDMDL
MODEL 79
REMARK VINA RESULT:      -6.7      5.318      8.923
ROOT
ATOM      1  C1  SGN B   1      25.351  16.518  14.1890  0.00  0.00     0.000 C
ATOM      2  C2  SGN B   1      25.383  14.991  14.0130  0.00  0.00     0.000 C
ATOM      3  C3  SGN B   1      26.232  14.602  12.7970  0.00  0.00     0.000 C
ATOM      4  C4  SGN B   1      25.717  15.310  11.5480  0.00  0.00     0.000 C
ATOM      5  C5  SGN B   1      25.576  16.802  11.8420  0.00  0.00     0.000 C
ATOM      6  O5  SGN B   1      24.736  16.988  12.9970  0.00  0.00     0.000 O
ATOM      7   O  SGN B   1      26.224  13.192  12.6120  0.00  0.00     0.000 O
ATOM      9  HD  SGN B   1      25.384  13.386  12.5250  0.00  0.00     0.000 HD
ATOM      9   O  SGN B   1      26.627  15.105  10.4830  0.00  0.00     0.000 O
ATOM     11  HD  SGN B   1      25.787  15.299  10.3970  0.00  0.00     0.000 HD
ENDROOT
BRANCH 2 13
ATOM     11   N  SGN B   1      24.567  14.483  15.1320  0.00  0.00     0.000 N
ATOM     13  HD  SGN B   1      25.198  15.059  15.2740  0.00  0.00     0.000 HD
ATOM     13   S  SGN B   1      25.134  14.387  16.6350  0.00  0.00     0.000 S
ATOM     14   O  SGN B   1      26.449  14.896  16.6910  0.00  0.00     0.000 OA
ATOM     15   O  SGN B   1      24.146  14.902  17.5220  0.00  0.00     0.000 OA
ATOM     16   O  SGN B   1      25.120  12.834  16.7800  0.00  0.00     0.000 OA
ENDBRANCH 2 13
BRANCH 5 17
ATOM     17   C  SGN B   1      24.968  17.595  10.7110  0.00  0.00     0.000 C
ATOM     18   O  SGN B   1      24.296  18.769  11.2100  0.00  0.00     0.000 O
ATOM     19   S  SGN B   1      22.849  19.061  10.5960  0.00  0.00     0.000 S
ATOM     20   O  SGN B   1      22.501  20.385  11.0680  0.00  0.00     0.000 OA
ATOM     21   O  SGN B   1      23.051  18.992   9.1680  0.00  0.00     0.000 OA
ATOM     22   O  SGN B   1      21.997  18.017  11.1220  0.00  0.00     0.000 OA
ENDBRANCH 5 17
BRANCH 1 23
ATOM     23  O4  IDS B   2      26.033  17.521  14.8100  0.00  0.00     0.000 O
BRANCH 23 27
ATOM     24  C1  IDS B   2      25.519  18.785  18.7310  0.00  0.00     0.000 C
ATOM     25  C2  IDS B   2      24.305  18.992  17.7990  0.00  0.00     0.000 C
ATOM     26  C3  IDS B   2      24.489  18.234  16.4860  0.00  0.00     0.000 C
ATOM     27  C4  IDS B   2      25.786  18.575  15.7650  0.00  0.00     0.000 C
ATOM     28  C5  IDS B   2      26.919  18.785  16.7900  0.00  0.00     0.000 C
ATOM     29  O5  IDS B   2      26.605  18.166  18.0280  0.00  0.00     0.000 O
ATOM     30   O  IDS B   2      23.414  18.550  15.6090  0.00  0.00     0.000 O
ATOM     32  HD  IDS B   2      23.508  19.315  15.2150  0.00  0.00     0.000 HD
BRANCH 25 32
ATOM     32   O  IDS B   2      23.039  18.523  18.4130  0.00  0.00     0.000 O
ATOM     33   S  IDS B   2      21.848  19.573  18.8640  0.00  0.00     0.000 S
ATOM     34   O  IDS B   2      20.883  18.789  19.6190  0.00  0.00     0.000 OA
ATOM     35   O  IDS B   2      22.422  20.636  19.6770  0.00  0.00     0.000 OA
ATOM     36   O  IDS B   2      21.277  20.067  17.6330  0.00  0.00     0.000 OA
ENDBRANCH 25 32
BRANCH 28 37
ATOM     37   C  IDS B   2      28.346  18.362  16.3830  0.00  0.00     0.000 C
ATOM     38   O  IDS B   2      28.704  17.345  16.9280  0.00  0.00     0.000 OA
ATOM     39   O  IDS B   2      29.087  18.920  15.5380  0.00  0.00     0.000 OA
ENDBRANCH 28 37
BRANCH 24 40
ATOM     40  O4  SUS B   3      25.576  19.429  19.9150  0.00  0.00     0.000 O
BRANCH 40 44
ATOM     41  C1  SUS B   3      27.397  18.290  23.5110  0.00  0.00     0.000 C
ATOM     42  C2  SUS B   3      28.290  18.969  22.4530  0.00  0.00     0.000 C
ATOM     43  C3  SUS B   3      27.408  19.726  21.4620  0.00  0.00     0.000 C
ATOM     44  C4  SUS B   3      26.383  18.766  20.8810  0.00  0.00     0.000 C
ATOM     45  C5  SUS B   3      25.513  18.240  22.0050  0.00  0.00     0.000 C
ATOM     46  O5  SUS B   3      26.353  17.508  22.9200  0.00  0.00     0.000 O
BRANCH 42 49
ATOM     47   N  SUS B   3      29.298  19.752  23.1870  0.00  0.00     0.000 N
ATOM     49  HD  SUS B   3      29.329  20.601  23.0160  0.00  0.00     0.000 HD
ATOM     49   S  SUS B   3      30.777  19.158  23.0300  0.00  0.00     0.000 S
ATOM     50   O  SUS B   3      31.127  19.096  21.6660  0.00  0.00     0.000 OA
ATOM     51   O  SUS B   3      31.516  20.327  23.7310  0.00  0.00     0.000 OA
ATOM     52   O  SUS B   3      30.888  17.974  23.7860  0.00  0.00     0.000 OA
ENDBRANCH 42 49
BRANCH 43 53
ATOM     53   O  SUS B   3      28.275  20.245  20.3870  0.00  0.00     0.000 O
ATOM     54   S  SUS B   3      28.498  21.873  20.3230  0.00  0.00     0.000 S
ATOM     55   O  SUS B   3      29.337  22.243  21.4540  0.00  0.00     0.000 OA
ATOM     56   O  SUS B   3      29.126  22.092  19.0320  0.00  0.00     0.000 OA
ATOM     57   O  SUS B   3      27.167  22.478  20.4280  0.00  0.00     0.000 OA
ENDBRANCH 43 53
BRANCH 45 58
ATOM     58   C  SUS B   3      24.401  17.351  21.4910  0.00  0.00     0.000 C
ATOM     59   S  SUS B   3      23.216  15.118  21.9320  0.00  0.00     0.000 S
ATOM     60   O  SUS B   3      24.194  16.267  22.4120  0.00  0.00     0.000 O
ATOM     61   O  SUS B   3      23.998  14.315  21.0100  0.00  0.00     0.000 OA
ATOM     62   O  SUS B   3      22.962  14.445  23.1770  0.00  0.00     0.000 OA
ATOM     63   O  SUS B   3      22.099  15.783  21.3610  0.00  0.00     0.000 OA
ENDBRANCH 45 58
BRANCH 41 64
ATOM     64  O4  IDS B   4      26.970  19.140  24.5020  0.00  0.00     0.000 O
BRANCH 64 68
ATOM     65  C1  IDS B   4      26.599  19.740  28.0770  0.00  0.00     0.000 C
ATOM     66  C2  IDS B   4      27.595  18.690  27.5690  0.00  0.00     0.000 C
ATOM     67  C3  IDS B   4      27.038  17.758  26.5060  0.00  0.00     0.000 C
ATOM     68  C4  IDS B   4      26.161  18.474  25.4960  0.00  0.00     0.000 C
ATOM     69  C5  IDS B   4      25.229  19.423  26.2610  0.00  0.00     0.000 C
ATOM     70  O5  IDS B   4      26.015  20.390  26.9620  0.00  0.00     0.000 O
ATOM     71   O  IDS B   4      26.287  16.764  27.1720  0.00  0.00     0.000 O
ATOM     73  HD  IDS B   4      26.870  17.401  27.1100  0.00  0.00     0.000 HD
BRANCH 66 73
ATOM     73   O  IDS B   4      28.726  19.379  26.9320  0.00  0.00     0.000 O
ATOM     74   S  IDS B   4      30.196  19.177  27.5750  0.00  0.00     0.000 S
ATOM     75   O  IDS B   4      30.098  19.583  28.9610  0.00  0.00     0.000 OA
ATOM     76   O  IDS B   4      30.999  20.055  26.7620  0.00  0.00     0.000 OA
ATOM     77   O  IDS B   4      30.499  17.775  27.4120  0.00  0.00     0.000 OA
ENDBRANCH 66 73
BRANCH 69 78
ATOM     78   C  IDS B   4      24.135  20.053  25.4100  0.00  0.00     0.000 C
ATOM     79   O  IDS B   4      24.397  20.366  24.2490  0.00  0.00     0.000 OA
ATOM     80   O  IDS B   4      22.986  20.134  25.8800  0.00  0.00     0.000 OA
ENDBRANCH 69 78
BRANCH 65 81
ATOM     81  O4  SGN B   5      25.745  19.162  28.9670  0.00  0.00     0.000 O
BRANCH 81 85
ATOM     82  C1  SGN B   5      23.474  19.867  32.4280  0.00  0.00     0.000 C
ATOM     83  C2  SGN B   5      23.095  20.664  31.1710  0.00  0.00     0.000 C
ATOM     84  C3  SGN B   5      23.679  19.974  29.9310  0.00  0.00     0.000 C
ATOM     85  C4  SGN B   5      25.179  19.813  30.1070  0.00  0.00     0.000 C
ATOM     86  C5  SGN B   5      25.428  18.990  31.3680  0.00  0.00     0.000 C
ATOM     87  O5  SGN B   5      24.877  19.695  32.4960  0.00  0.00     0.000 O
ATOM     88   O  SGN B   5      23.384  20.731  28.7770  0.00  0.00     0.000 O
ATOM     90  HD  SGN B   5      22.970  20.012  29.0250  0.00  0.00     0.000 HD
BRANCH 83 92
ATOM     90   N  SGN B   5      22.578  22.031  31.3750  0.00  0.00     0.000 N
ATOM     92  HD  SGN B   5      22.905  22.578  30.7880  0.00  0.00     0.000 HD
ATOM     92   S  SGN B   5      21.017  22.208  31.6670  0.00  0.00     0.000 S
ATOM     93   O  SGN B   5      20.840  23.622  31.8070  0.00  0.00     0.000 OA
ATOM     94   O  SGN B   5      20.347  21.505  30.6270  0.00  0.00     0.000 OA
ATOM     95   O  SGN B   5      20.778  21.447  32.9530  0.00  0.00     0.000 OA
ENDBRANCH 83 92
BRANCH 86 96
ATOM     96   C  SGN B   5      26.892  18.737  31.6650  0.00  0.00     0.000 C
ATOM     97   O  SGN B   5      27.109  17.360  31.9840  0.00  0.00     0.000 O
ATOM     98   S  SGN B   5      28.284  16.625  31.1780  0.00  0.00     0.000 S
ATOM     99   O  SGN B   5      28.386  15.354  31.8530  0.00  0.00     0.000 OA
ATOM    100   O  SGN B   5      27.882  16.544  29.8200  0.00  0.00     0.000 OA
ATOM    101   O  SGN B   5      29.424  17.461  31.3710  0.00  0.00     0.000 OA
ENDBRANCH 86 96
BRANCH 82 102
ATOM    102  O4  IDS B   6      22.844  18.660  32.4940  0.00  0.00     0.000 O
BRANCH 102 106
ATOM    103  C1  IDS B   6      20.543  16.369  34.1420  0.00  0.00     0.000 C
ATOM    104  C2  IDS B   6      20.315  17.888  34.1980  0.00  0.00     0.000 C
ATOM    105  C3  IDS B   6      21.540  18.709  34.5500  0.00  0.00     0.000 C
ATOM    106  C4  IDS B   6      22.800  18.204  33.8700  0.00  0.00     0.000 C
ATOM    107  C5  IDS B   6      22.847  16.675  33.9380  0.00  0.00     0.000 C
ATOM    108  O5  IDS B   6      21.685  16.079  33.3590  0.00  0.00     0.000 O
ATOM    109   O  IDS B   6      21.689  18.696  35.9610  0.00  0.00     0.000 O
ATOM    111  HD  IDS B   6      21.267  17.982  36.2090  0.00  0.00     0.000 HD
BRANCH 104 111
ATOM    111   O  IDS B   6      19.900  18.360  32.8680  0.00  0.00     0.000 O
ATOM    112   S  IDS B   6      18.349  18.681  32.6330  0.00  0.00     0.000 S
ATOM    113   O  IDS B   6      17.667  17.431  32.9300  0.00  0.00     0.000 OA
ATOM    114   O  IDS B   6      17.971  19.805  33.4980  0.00  0.00     0.000 OA
ATOM    115   O  IDS B   6      18.389  19.008  31.2250  0.00  0.00     0.000 OA
ENDBRANCH 104 111
BRANCH 107 116
ATOM    116   C  IDS B   6      24.096  16.176  33.2220  0.00  0.00     0.000 C
ATOM    117   O  IDS B   6      23.961  15.827  32.0770  0.00  0.00     0.000 OA
ATOM    118   O  IDS B   6      25.176  16.127  33.7880  0.00  0.00     0.000 OA
ENDBRANCH 107 116
BRANCH 103 119
ATOM    119  O4  SGN B   7      20.460  15.983  35.4410  0.00  0.00     0.000 O
BRANCH 119 123
ATOM    120  C1  SGN B   7      19.686  12.428  37.5030  0.00  0.00     0.000 C
ATOM    121  C2  SGN B   7      21.107  12.634  36.9440  0.00  0.00     0.000 C
ATOM    122  C3  SGN B   7      21.337  14.108  36.5880  0.00  0.00     0.000 C
ATOM    123  C4  SGN B   7      20.234  14.590  35.6600  0.00  0.00     0.000 C
ATOM    124  C5  SGN B   7      18.861  14.336  36.3030  0.00  0.00     0.000 C
ATOM    125  O5  SGN B   7      18.688  12.936  36.6200  0.00  0.00     0.000 O
ATOM    126   O  SGN B   7      22.627  14.245  35.9820  0.00  0.00     0.000 O
ATOM    128  HD  SGN B   7      22.065  13.745  36.4110  0.00  0.00     0.000 HD
BRANCH 121 130
ATOM    128   N  SGN B   7      21.565  11.243  36.9090  0.00  0.00     0.000 N
ATOM    130  HD  SGN B   7      22.266  11.477  36.4570  0.00  0.00     0.000 HD
ATOM    130   S  SGN B   7      22.809  10.725  37.7900  0.00  0.00     0.000 S
ATOM    131   O  SGN B   7      22.540  11.173  39.1140  0.00  0.00     0.000 OA
ATOM    132   O  SGN B   7      23.001   9.345  37.5250  0.00  0.00     0.000 OA
ATOM    133   O  SGN B   7      23.993  11.437  37.0510  0.00  0.00     0.000 OA
ENDBRANCH 121 130
BRANCH 124 134
ATOM    134   C  SGN B   7      17.702  14.673  35.4130  0.00  0.00     0.000 C
ATOM    135   O  SGN B   7      17.096  13.448  34.9650  0.00  0.00     0.000 O
ATOM    136   S  SGN B   7      15.766  13.585  34.1410  0.00  0.00     0.000 S
ATOM    137   O  SGN B   7      15.411  12.252  33.7180  0.00  0.00     0.000 OA
ATOM    138   O  SGN B   7      16.093  14.459  33.0360  0.00  0.00     0.000 OA
ATOM    139   O  SGN B   7      14.853  14.162  35.1140  0.00  0.00     0.000 OA
ENDBRANCH 124 134
BRANCH 120 140
ATOM    140  O4  IDS B   8      19.186  12.871  38.6610  0.00  0.00     0.000 O
BRANCH 140 144
ATOM    141  C1  IDS B   8      18.285  11.409  41.8260  0.00  0.00     0.000 C
ATOM    142  C2  IDS B   8      18.063  10.636  40.4950  0.00  0.00     0.000 C
ATOM    143  C3  IDS B   8      17.358  11.479  39.4170  0.00  0.00     0.000 C
ATOM    144  C4  IDS B   8      17.923  12.897  39.3390  0.00  0.00     0.000 C
ATOM    145  C5  IDS B   8      18.093  13.478  40.7500  0.00  0.00     0.000 C
ATOM    146  O5  IDS B   8      18.923  12.653  41.5640  0.00  0.00     0.000 O
BRANCH 142 147
ATOM    147   O  IDS B   8      19.376  10.219  39.9380  0.00  0.00     0.000 O
ATOM    148   S  IDS B   8      19.559   8.778  39.2160  0.00  0.00     0.000 S
ATOM    149   O  IDS B   8      18.429   7.956  39.5860  0.00  0.00     0.000 OA
ATOM    150   O  IDS B   8      19.607   9.060  37.7940  0.00  0.00     0.000 OA
ATOM    151   O  IDS B   8      20.806   8.247  39.7340  0.00  0.00     0.000 OA
ENDBRANCH 142 147
BRANCH 145 152
ATOM    152   C  IDS B   8      18.743  14.847  40.7430  0.00  0.00     0.000 C
ATOM    153   O  IDS B   8      18.067  15.836  40.4860  0.00  0.00     0.000 OA
ATOM    154   O  IDS B   8      19.926  14.952  41.0120  0.00  0.00     0.000 OA
ENDBRANCH 145 152
ENDBRANCH 140 144
ENDBRANCH 120 140
ENDBRANCH 119 123
ENDBRANCH 103 119
ENDBRANCH 102 106
ENDBRANCH 82 102
ENDBRANCH 81 85
ENDBRANCH 65 81
ENDBRANCH 64 68
ENDBRANCH 41 64
ENDBRANCH 40 44
ENDBRANCH 24 40
ENDBRANCH 23 27
ENDBRANCH 1 23
TORSDOF 31
ENDMDL
MODEL 80
REMARK VINA RESULT:      -6.7      3.235      5.707
ROOT
ATOM      1  C1  SGN B   1      27.526  16.646  13.1710  0.00  0.00     0.000 C
ATOM      2  C2  SGN B   1      27.208  16.240  11.7230  0.00  0.00     0.000 C
ATOM      3  C3  SGN B   1      27.111  14.716  11.5940  0.00  0.00     0.000 C
ATOM      4  C4  SGN B   1      28.392  14.063  12.1020  0.00  0.00     0.000 C
ATOM      5  C5  SGN B   1      28.722  14.618  13.4850  0.00  0.00     0.000 C
ATOM      6  O5  SGN B   1      28.794  16.055  13.4230  0.00  0.00     0.000 O
ATOM      7   O  SGN B   1      26.861  14.343  10.2450  0.00  0.00     0.000 O
ATOM      9  HD  SGN B   1      27.623  14.748  10.1770  0.00  0.00     0.000 HD
ATOM      9   O  SGN B   1      28.210  12.660  12.1690  0.00  0.00     0.000 O
ATOM     11  HD  SGN B   1      28.973  13.065  12.1010  0.00  0.00     0.000 HD
ENDROOT
BRANCH 2 13
ATOM     11   N  SGN B   1      27.106  17.528  11.0100  0.00  0.00     0.000 N
ATOM     13  HD  SGN B   1      26.671  17.397  11.7470  0.00  0.00     0.000 HD
ATOM     13   S  SGN B   1      25.797  18.459  11.0990  0.00  0.00     0.000 S
ATOM     14   O  SGN B   1      24.849  17.881  11.9700  0.00  0.00     0.000 OA
ATOM     15   O  SGN B   1      26.214  19.804  11.3120  0.00  0.00     0.000 OA
ATOM     16   O  SGN B   1      25.342  18.347   9.6110  0.00  0.00     0.000 OA
ENDBRANCH 2 13
BRANCH 5 17
ATOM     17   C  SGN B   1      30.032  14.126  14.0480  0.00  0.00     0.000 C
ATOM     18   O  SGN B   1      30.643  13.164  13.1650  0.00  0.00     0.000 O
ATOM     19   S  SGN B   1      31.228  11.847  13.8600  0.00  0.00     0.000 S
ATOM     20   O  SGN B   1      31.978  11.176  12.8190  0.00  0.00     0.000 OA
ATOM     21   O  SGN B   1      32.052  12.352  14.9330  0.00  0.00     0.000 OA
ATOM     22   O  SGN B   1      30.067  11.109  14.3070  0.00  0.00     0.000 OA
ENDBRANCH 5 17
BRANCH 1 23
ATOM     23  O4  IDS B   2      26.897  16.958  14.3400  0.00  0.00     0.000 O
BRANCH 23 27
ATOM     24  C1  IDS B   2      25.943  18.389  18.1180  0.00  0.00     0.000 C
ATOM     25  C2  IDS B   2      25.202  19.064  16.9420  0.00  0.00     0.000 C
ATOM     26  C3  IDS B   2      25.396  18.275  15.6500  0.00  0.00     0.000 C
ATOM     27  C4  IDS B   2      26.858  18.036  15.2990  0.00  0.00     0.000 C
ATOM     28  C5  IDS B   2      27.673  17.777  16.5820  0.00  0.00     0.000 C
ATOM     29  O5  IDS B   2      26.828  17.365  17.6450  0.00  0.00     0.000 O
ATOM     30   O  IDS B   2      24.807  18.992  14.5710  0.00  0.00     0.000 O
ATOM     32  HD  IDS B   2      25.300  19.643  14.2840  0.00  0.00     0.000 HD
BRANCH 25 32
ATOM     32   O  IDS B   2      23.742  19.171  17.1870  0.00  0.00     0.000 O
ATOM     33   S  IDS B   2      22.952  20.618  17.1190  0.00  0.00     0.000 S
ATOM     34   O  IDS B   2      21.611  20.371  17.6260  0.00  0.00     0.000 OA
ATOM     35   O  IDS B   2      23.658  21.595  17.9360  0.00  0.00     0.000 OA
ATOM     36   O  IDS B   2      22.927  20.984  15.7220  0.00  0.00     0.000 OA
ENDBRANCH 25 32
BRANCH 28 37
ATOM     37   C  IDS B   2      28.859  16.795  16.4960  0.00  0.00     0.000 C
ATOM     38   O  IDS B   2      29.813  17.262  15.9180  0.00  0.00     0.000 OA
ATOM     39   O  IDS B   2      28.929  15.649  17.0040  0.00  0.00     0.000 OA
ENDBRANCH 28 37
BRANCH 24 40
ATOM     40  O4  SUS B   3      25.947  18.973  19.3340  0.00  0.00     0.000 O
BRANCH 40 44
ATOM     41  C1  SUS B   3      24.781  17.111  22.9000  0.00  0.00     0.000 C
ATOM     42  C2  SUS B   3      26.234  17.620  22.8130  0.00  0.00     0.000 C
ATOM     43  C3  SUS B   3      26.337  18.658  21.6980  0.00  0.00     0.000 C
ATOM     44  C4  SUS B   3      25.818  18.046  20.4070  0.00  0.00     0.000 C
ATOM     45  C5  SUS B   3      24.361  17.673  20.5920  0.00  0.00     0.000 C
ATOM     46  O5  SUS B   3      24.280  16.677  21.6310  0.00  0.00     0.000 O
BRANCH 42 49
ATOM     47   N  SUS B   3      26.552  17.998  24.2010  0.00  0.00     0.000 N
ATOM     49  HD  SUS B   3      26.739  18.832  24.3420  0.00  0.00     0.000 HD
ATOM     49   S  SUS B   3      27.729  17.111  24.8280  0.00  0.00     0.000 S
ATOM     50   O  SUS B   3      28.887  17.217  24.0310  0.00  0.00     0.000 OA
ATOM     51   O  SUS B   3      27.890  17.926  26.1370  0.00  0.00     0.000 OA
ATOM     52   O  SUS B   3      27.243  15.818  25.1040  0.00  0.00     0.000 OA
ENDBRANCH 42 49
BRANCH 43 53
ATOM     53   O  SUS B   3      27.759  19.022  21.5460  0.00  0.00     0.000 O
ATOM     54   S  SUS B   3      28.207  20.522  22.0470  0.00  0.00     0.000 S
ATOM     55   O  SUS B   3      28.152  20.530  23.5020  0.00  0.00     0.000 OA
ATOM     56   O  SUS B   3      29.547  20.686  21.5110  0.00  0.00     0.000 OA
ATOM     57   O  SUS B   3      27.236  21.458  21.4740  0.00  0.00     0.000 OA
ENDBRANCH 43 53
BRANCH 45 58
ATOM     58   C  SUS B   3      23.744  17.148  19.3140  0.00  0.00     0.000 C
ATOM     59   S  SUS B   3      21.894  15.601  18.4360  0.00  0.00     0.000 S
ATOM     60   O  SUS B   3      22.554  16.406  19.6300  0.00  0.00     0.000 O
ATOM     61   O  SUS B   3      22.712  14.413  18.2830  0.00  0.00     0.000 OA
ATOM     62   O  SUS B   3      20.598  15.315  18.9900  0.00  0.00     0.000 OA
ATOM     63   O  SUS B   3      21.900  16.490  17.3290  0.00  0.00     0.000 OA
ENDBRANCH 45 58
BRANCH 41 64
ATOM     64  O4  IDS B   4      23.937  17.957  23.5770  0.00  0.00     0.000 O
BRANCH 64 68
ATOM     65  C1  IDS B   4      21.286  18.914  25.8860  0.00  0.00     0.000 C
ATOM     66  C2  IDS B   4      22.320  17.855  26.2920  0.00  0.00     0.000 C
ATOM     67  C3  IDS B   4      22.583  16.797  25.2340  0.00  0.00     0.000 C
ATOM     68  C4  IDS B   4      22.643  17.368  23.8300  0.00  0.00     0.000 C
ATOM     69  C5  IDS B   4      21.480  18.356  23.6670  0.00  0.00     0.000 C
ATOM     70  O5  IDS B   4      21.630  19.421  24.6090  0.00  0.00     0.000 O
ATOM     71   O  IDS B   4      21.538  15.849  25.3200  0.00  0.00     0.000 O
ATOM     73  HD  IDS B   4      22.037  16.499  25.6010  0.00  0.00     0.000 HD
BRANCH 66 73
ATOM     73   O  IDS B   4      23.613  18.517  26.5140  0.00  0.00     0.000 O
ATOM     74   S  IDS B   4      24.401  18.199  27.8910  0.00  0.00     0.000 S
ATOM     75   O  IDS B   4      23.493  18.532  28.9680  0.00  0.00     0.000 OA
ATOM     76   O  IDS B   4      25.539  19.077  27.7900  0.00  0.00     0.000 OA
ATOM     77   O  IDS B   4      24.727  16.794  27.8330  0.00  0.00     0.000 OA
ENDBRANCH 66 73
BRANCH 69 78
ATOM     78   C  IDS B   4      21.270  18.851  22.2430  0.00  0.00     0.000 C
ATOM     79   O  IDS B   4      21.971  19.773  21.8280  0.00  0.00     0.000 OA
ATOM     80   O  IDS B   4      20.471  18.239  21.5100  0.00  0.00     0.000 OA
ENDBRANCH 69 78
BRANCH 65 81
ATOM     81  O4  SGN B   5      20.033  18.400  26.0250  0.00  0.00     0.000 O
BRANCH 81 85
ATOM     82  C1  SGN B   5      16.055  19.494  26.8090  0.00  0.00     0.000 C
ATOM     83  C2  SGN B   5      16.481  19.423  25.3350  0.00  0.00     0.000 C
ATOM     84  C3  SGN B   5      17.761  18.585  25.2110  0.00  0.00     0.000 C
ATOM     85  C4  SGN B   5      18.832  19.170  26.1150  0.00  0.00     0.000 C
ATOM     86  C5  SGN B   5      18.304  19.167  27.5480  0.00  0.00     0.000 C
ATOM     87  O5  SGN B   5      17.118  19.982  27.6050  0.00  0.00     0.000 O
ATOM     88   O  SGN B   5      18.191  18.563  23.8670  0.00  0.00     0.000 O
ATOM     90  HD  SGN B   5      17.770  17.923  24.2710  0.00  0.00     0.000 HD
BRANCH 83 92
ATOM     90   N  SGN B   5      15.051  19.774  25.2290  0.00  0.00     0.000 N
ATOM     92  HD  SGN B   5      14.837  20.381  25.8090  0.00  0.00     0.000 HD
ATOM     92   S  SGN B   5      14.435  19.983  23.7700  0.00  0.00     0.000 S
ATOM     93   O  SGN B   5      13.062  20.313  24.0090  0.00  0.00     0.000 OA
ATOM     94   O  SGN B   5      15.290  20.917  23.1200  0.00  0.00     0.000 OA
ATOM     95   O  SGN B   5      14.617  18.648  23.0810  0.00  0.00     0.000 OA
ENDBRANCH 83 92
BRANCH 86 96
ATOM     96   C  SGN B   5      19.279  19.716  28.5690  0.00  0.00     0.000 C
ATOM     97   O  SGN B   5      19.660  21.052  28.2320  0.00  0.00     0.000 O
ATOM     98   S  SGN B   5      19.529  22.141  29.4020  0.00  0.00     0.000 S
ATOM     99   O  SGN B   5      20.165  23.302  28.8290  0.00  0.00     0.000 OA
ATOM    100   O  SGN B   5      18.148  22.300  29.6830  0.00  0.00     0.000 OA
ATOM    101   O  SGN B   5      20.257  21.578  30.4930  0.00  0.00     0.000 OA
ENDBRANCH 86 96
BRANCH 82 102
ATOM    102  O4  IDS B   6      15.616  18.295  27.2860  0.00  0.00     0.000 O
BRANCH 102 106
ATOM    103  C1  IDS B   6      12.797  16.580  28.8250  0.00  0.00     0.000 C
ATOM    104  C2  IDS B   6      12.596  17.907  28.0770  0.00  0.00     0.000 C
ATOM    105  C3  IDS B   6      13.585  19.001  28.4310  0.00  0.00     0.000 C
ATOM    106  C4  IDS B   6      15.003  18.480  28.5880  0.00  0.00     0.000 C
ATOM    107  C5  IDS B   6      14.987  17.166  29.3740  0.00  0.00     0.000 C
ATOM    108  O5  IDS B   6      14.153  16.185  28.7560  0.00  0.00     0.000 O
ATOM    109   O  IDS B   6      13.143  19.627  29.6240  0.00  0.00     0.000 O
ATOM    111  HD  IDS B   6      12.642  19.029  30.0000  0.00  0.00     0.000 HD
BRANCH 104 111
ATOM    111   O  IDS B   6      12.771  17.676  26.6350  0.00  0.00     0.000 O
ATOM    112   S  IDS B   6      11.459  17.485  25.7380  0.00  0.00     0.000 S
ATOM    113   O  IDS B   6      10.778  16.342  26.3250  0.00  0.00     0.000 OA
ATOM    114   O  IDS B   6      10.692  18.735  25.7650  0.00  0.00     0.000 OA
ATOM    115   O  IDS B   6      12.086  17.205  24.4640  0.00  0.00     0.000 OA
ENDBRANCH 104 111
BRANCH 107 116
ATOM    116   C  IDS B   6      16.410  16.634  29.4950  0.00  0.00     0.000 C
ATOM    117   O  IDS B   6      17.183  17.294  30.1410  0.00  0.00     0.000 OA
ATOM    118   O  IDS B   6      16.747  15.593  28.9520  0.00  0.00     0.000 OA
ENDBRANCH 107 116
BRANCH 103 119
ATOM    119  O4  SGN B   7      12.181  16.787  30.0180  0.00  0.00     0.000 O
BRANCH 119 123
ATOM    120  C1  SGN B   7      10.188  14.449  32.8550  0.00  0.00     0.000 C
ATOM    121  C2  SGN B   7      11.703  14.231  32.6890  0.00  0.00     0.000 C
ATOM    122  C3  SGN B   7      12.336  15.407  31.9340  0.00  0.00     0.000 C
ATOM    123  C4  SGN B   7      11.600  15.632  30.6240  0.00  0.00     0.000 C
ATOM    124  C5  SGN B   7      10.100  15.832  30.8950  0.00  0.00     0.000 C
ATOM    125  O5  SGN B   7       9.546  14.702  31.6060  0.00  0.00     0.000 O
ATOM    126   O  SGN B   7      13.723  15.126  31.7110  0.00  0.00     0.000 O
ATOM    128  HD  SGN B   7      12.983  14.911  32.1060  0.00  0.00     0.000 HD
BRANCH 121 130
ATOM    128   N  SGN B   7      11.495  13.390  33.8700  0.00  0.00     0.000 N
ATOM    130  HD  SGN B   7      11.599  12.677  33.3900  0.00  0.00     0.000 HD
ATOM    130   S  SGN B   7      12.700  12.594  34.5820  0.00  0.00     0.000 S
ATOM    131   O  SGN B   7      13.721  13.565  34.7810  0.00  0.00     0.000 OA
ATOM    132   O  SGN B   7      12.170  11.874  35.6830  0.00  0.00     0.000 OA
ATOM    133   O  SGN B   7      12.993  11.501  33.4990  0.00  0.00     0.000 OA
ENDBRANCH 121 130
BRANCH 124 134
ATOM    134   C  SGN B   7       9.268  15.947  29.6520  0.00  0.00     0.000 C
ATOM    135   O  SGN B   7       8.380  14.818  29.5890  0.00  0.00     0.000 O
ATOM    136   S  SGN B   7       7.313  14.831  28.4350  0.00  0.00     0.000 S
ATOM    137   O  SGN B   7       6.619  13.567  28.5110  0.00  0.00     0.000 OA
ATOM    138   O  SGN B   7       8.076  14.984  27.2170  0.00  0.00     0.000 OA
ATOM    139   O  SGN B   7       6.492  15.980  28.7810  0.00  0.00     0.000 OA
ENDBRANCH 124 134
BRANCH 120 140
ATOM    140  O4  IDS B   8       9.565  15.369  33.5990  0.00  0.00     0.000 O
BRANCH 140 144
ATOM    141  C1  IDS B   8       7.708  17.326  35.9830  0.00  0.00     0.000 C
ATOM    142  C2  IDS B   8       7.328  17.332  34.4750  0.00  0.00     0.000 C
ATOM    143  C3  IDS B   8       8.537  17.558  33.5490  0.00  0.00     0.000 C
ATOM    144  C4  IDS B   8       9.751  16.738  33.9810  0.00  0.00     0.000 C
ATOM    145  C5  IDS B   8       9.946  16.840  35.5010  0.00  0.00     0.000 C
ATOM    146  O5  IDS B   8       8.782  16.422  36.2100  0.00  0.00     0.000 O
BRANCH 142 147
ATOM    147   O  IDS B   8       6.733  16.019  34.1090  0.00  0.00     0.000 O
ATOM    148   S  IDS B   8       5.293  15.932  33.3690  0.00  0.00     0.000 S
ATOM    149   O  IDS B   8       4.639  17.211  33.5290  0.00  0.00     0.000 OA
ATOM    150   O  IDS B   8       5.588  15.623  31.9820  0.00  0.00     0.000 OA
ATOM    151   O  IDS B   8       4.578  14.869  34.0490  0.00  0.00     0.000 OA
ENDBRANCH 142 147
BRANCH 145 152
ATOM    152   C  IDS B   8      11.077  15.967  36.0050  0.00  0.00     0.000 C
ATOM    153   O  IDS B   8      10.819  14.920  36.5870  0.00  0.00     0.000 OA
ATOM    154   O  IDS B   8      12.231  16.305  35.8080  0.00  0.00     0.000 OA
ENDBRANCH 145 152
ENDBRANCH 140 144
ENDBRANCH 120 140
ENDBRANCH 119 123
ENDBRANCH 103 119
ENDBRANCH 102 106
ENDBRANCH 82 102
ENDBRANCH 81 85
ENDBRANCH 65 81
ENDBRANCH 64 68
ENDBRANCH 41 64
ENDBRANCH 40 44
ENDBRANCH 24 40
ENDBRANCH 23 27
ENDBRANCH 1 23
TORSDOF 31
ENDMDL
MODEL 81
REMARK VINA RESULT:      -6.7      2.789      4.810
ROOT
ATOM      1  C1  SGN B   1      28.788  12.563  13.1610  0.00  0.00     0.000 C
ATOM      2  C2  SGN B   1      29.643  11.961  14.2880  0.00  0.00     0.000 C
ATOM      3  C3  SGN B   1      29.640  12.875  15.5180  0.00  0.00     0.000 C
ATOM      4  C4  SGN B   1      30.106  14.275  15.1350  0.00  0.00     0.000 C
ATOM      5  C5  SGN B   1      29.310  14.751  13.9220  0.00  0.00     0.000 C
ATOM      6  O5  SGN B   1      29.436  13.790  12.8560  0.00  0.00     0.000 O
ATOM      7   O  SGN B   1      30.468  12.337  16.5430  0.00  0.00     0.000 O
ATOM      9  HD  SGN B   1      31.037  12.455  15.9010  0.00  0.00     0.000 HD
ATOM      9   O  SGN B   1      29.904  15.154  16.2270  0.00  0.00     0.000 O
ATOM     11  HD  SGN B   1      30.473  15.272  15.5850  0.00  0.00     0.000 HD
ENDROOT
BRANCH 2 13
ATOM     11   N  SGN B   1      30.132  10.691  13.7190  0.00  0.00     0.000 N
ATOM     13  HD  SGN B   1      29.290  10.891  13.6880  0.00  0.00     0.000 HD
ATOM     13   S  SGN B   1      29.210   9.375  13.6360  0.00  0.00     0.000 S
ATOM     14   O  SGN B   1      27.917   9.656  14.1250  0.00  0.00     0.000 OA
ATOM     15   O  SGN B   1      29.360   8.801  12.3410  0.00  0.00     0.000 OA
ATOM     16   O  SGN B   1      30.011   8.479  14.6310  0.00  0.00     0.000 OA
ENDBRANCH 2 13
BRANCH 5 17
ATOM     17   C  SGN B   1      29.758  16.086  13.3790  0.00  0.00     0.000 C
ATOM     18   O  SGN B   1      30.801  16.651  14.1980  0.00  0.00     0.000 O
ATOM     19   S  SGN B   1      30.647  18.202  14.5580  0.00  0.00     0.000 S
ATOM     20   O  SGN B   1      31.907  18.572  15.1670  0.00  0.00     0.000 OA
ATOM     21   O  SGN B   1      30.413  18.838  13.2820  0.00  0.00     0.000 OA
ATOM     22   O  SGN B   1      29.522  18.269  15.4640  0.00  0.00     0.000 OA
ENDBRANCH 5 17
BRANCH 1 23
ATOM     23  O4  IDS B   2      27.506  12.564  12.6970  0.00  0.00     0.000 O
BRANCH 23 27
ATOM     24  C1  IDS B   2      25.062  14.780  15.2170  0.00  0.00     0.000 C
ATOM     25  C2  IDS B   2      24.935  13.246  15.3440  0.00  0.00     0.000 C
ATOM     26  C3  IDS B   2      26.069  12.541  14.6050  0.00  0.00     0.000 C
ATOM     27  C4  IDS B   2      26.189  12.952  13.1440  0.00  0.00     0.000 C
ATOM     28  C5  IDS B   2      25.882  14.456  12.9920  0.00  0.00     0.000 C
ATOM     29  O5  IDS B   2      26.040  15.133  14.2300  0.00  0.00     0.000 O
ATOM     30   O  IDS B   2      25.848  11.136  14.6390  0.00  0.00     0.000 O
ATOM     32  HD  IDS B   2      25.264  10.868  14.0590  0.00  0.00     0.000 HD
BRANCH 25 32
ATOM     32   O  IDS B   2      24.972  12.795  16.7570  0.00  0.00     0.000 O
ATOM     33   S  IDS B   2      23.789  11.840  17.3990  0.00  0.00     0.000 S
ATOM     34   O  IDS B   2      24.039  11.793  18.8310  0.00  0.00     0.000 OA
ATOM     35   O  IDS B   2      22.486  12.419  17.1040  0.00  0.00     0.000 OA
ATOM     36   O  IDS B   2      23.965  10.541  16.7910  0.00  0.00     0.000 OA
ENDBRANCH 25 32
BRANCH 28 37
ATOM     37   C  IDS B   2      26.648  15.242  11.9080  0.00  0.00     0.000 C
ATOM     38   O  IDS B   2      26.857  16.390  12.2230  0.00  0.00     0.000 OA
ATOM     39   O  IDS B   2      27.097  14.793  10.8250  0.00  0.00     0.000 OA
ENDBRANCH 28 37
BRANCH 24 40
ATOM     40  O4  SUS B   3      24.113  15.580  15.7480  0.00  0.00     0.000 O
BRANCH 40 44
ATOM     41  C1  SUS B   3      24.392  19.461  17.3000  0.00  0.00     0.000 C
ATOM     42  C2  SUS B   3      24.592  19.293  15.7800  0.00  0.00     0.000 C
ATOM     43  C3  SUS B   3      23.995  17.959  15.3390  0.00  0.00     0.000 C
ATOM     44  C4  SUS B   3      24.612  16.845  16.1690  0.00  0.00     0.000 C
ATOM     45  C5  SUS B   3      24.269  17.073  17.6270  0.00  0.00     0.000 C
ATOM     46  O5  SUS B   3      24.857  18.324  18.0370  0.00  0.00     0.000 O
BRANCH 42 49
ATOM     47   N  SUS B   3      24.060  20.527  15.1750  0.00  0.00     0.000 N
ATOM     49  HD  SUS B   3      23.412  20.431  14.6090  0.00  0.00     0.000 HD
ATOM     49   S  SUS B   3      25.199  21.415  14.4830  0.00  0.00     0.000 S
ATOM     50   O  SUS B   3      25.869  20.657  13.5010  0.00  0.00     0.000 OA
ATOM     51   O  SUS B   3      24.246  22.444  13.8220  0.00  0.00     0.000 OA
ATOM     52   O  SUS B   3      25.982  22.030  15.4790  0.00  0.00     0.000 OA
ENDBRANCH 42 49
BRANCH 43 53
ATOM     53   O  SUS B   3      24.324  17.763  13.9130  0.00  0.00     0.000 O
ATOM     54   S  SUS B   3      23.067  17.701  12.8560  0.00  0.00     0.000 S
ATOM     55   O  SUS B   3      22.516  19.045  12.7530  0.00  0.00     0.000 OA
ATOM     56   O  SUS B   3      23.667  17.218  11.6250  0.00  0.00     0.000 OA
ATOM     57   O  SUS B   3      22.090  16.769  13.4270  0.00  0.00     0.000 OA
ENDBRANCH 43 53
BRANCH 45 58
ATOM     58   C  SUS B   3      24.765  15.948  18.5090  0.00  0.00     0.000 C
ATOM     59   S  SUS B   3      24.548  14.970  20.8720  0.00  0.00     0.000 S
ATOM     60   O  SUS B   3      24.021  15.943  19.7390  0.00  0.00     0.000 O
ATOM     61   O  SUS B   3      25.691  15.648  21.4520  0.00  0.00     0.000 OA
ATOM     62   O  SUS B   3      23.411  14.944  21.7520  0.00  0.00     0.000 OA
ATOM     63   O  SUS B   3      24.838  13.744  20.2160  0.00  0.00     0.000 OA
ENDBRANCH 45 58
BRANCH 41 64
ATOM     64  O4  IDS B   4      23.132  19.880  17.6500  0.00  0.00     0.000 O
BRANCH 64 68
ATOM     65  C1  IDS B   4      21.484  22.201  19.9240  0.00  0.00     0.000 C
ATOM     66  C2  IDS B   4      23.007  22.241  19.7500  0.00  0.00     0.000 C
ATOM     67  C3  IDS B   4      23.681  20.880  19.8010  0.00  0.00     0.000 C
ATOM     68  C4  IDS B   4      22.895  19.806  19.0730  0.00  0.00     0.000 C
ATOM     69  C5  IDS B   4      21.416  19.954  19.4550  0.00  0.00     0.000 C
ATOM     70  O5  IDS B   4      20.948  21.238  19.0350  0.00  0.00     0.000 O
ATOM     71   O  IDS B   4      23.818  20.531  21.1630  0.00  0.00     0.000 O
ATOM     73  HD  IDS B   4      23.691  21.070  20.4970  0.00  0.00     0.000 HD
BRANCH 66 73
ATOM     73   O  IDS B   4      23.318  22.782  18.4200  0.00  0.00     0.000 O
ATOM     74   S  IDS B   4      24.185  24.145  18.3380  0.00  0.00     0.000 S
ATOM     75   O  IDS B   4      23.465  25.135  19.1100  0.00  0.00     0.000 OA
ATOM     76   O  IDS B   4      24.200  24.402  16.9200  0.00  0.00     0.000 OA
ATOM     77   O  IDS B   4      25.475  23.814  18.8960  0.00  0.00     0.000 OA
ENDBRANCH 66 73
BRANCH 69 78
ATOM     78   C  IDS B   4      20.526  18.814  18.9790  0.00  0.00     0.000 C
ATOM     79   O  IDS B   4      19.379  19.072  18.6190  0.00  0.00     0.000 OA
ATOM     80   O  IDS B   4      21.021  17.677  18.8710  0.00  0.00     0.000 OA
ENDBRANCH 69 78
BRANCH 65 81
ATOM     81  O4  SGN B   5      21.182  22.052  21.2440  0.00  0.00     0.000 O
BRANCH 81 85
ATOM     82  C1  SGN B   5      18.078  22.694  23.9990  0.00  0.00     0.000 C
ATOM     83  C2  SGN B   5      17.672  22.321  22.5650  0.00  0.00     0.000 C
ATOM     84  C3  SGN B   5      18.867  21.682  21.8430  0.00  0.00     0.000 C
ATOM     85  C4  SGN B   5      20.052  22.630  21.9010  0.00  0.00     0.000 C
ATOM     86  C5  SGN B   5      20.374  22.906  23.3680  0.00  0.00     0.000 C
ATOM     87  O5  SGN B   5      19.226  23.521  23.9840  0.00  0.00     0.000 O
ATOM     88   O  SGN B   5      18.520  21.388  20.5080  0.00  0.00     0.000 O
ATOM     90  HD  SGN B   5      18.559  20.814  21.1540  0.00  0.00     0.000 HD
BRANCH 83 92
ATOM     90   N  SGN B   5      16.399  21.929  23.2010  0.00  0.00     0.000 N
ATOM     92  HD  SGN B   5      16.373  22.187  24.0270  0.00  0.00     0.000 HD
ATOM     92   S  SGN B   5      15.048  22.155  22.3780  0.00  0.00     0.000 S
ATOM     93   O  SGN B   5      14.017  21.689  23.2560  0.00  0.00     0.000 OA
ATOM     94   O  SGN B   5      15.071  23.515  21.9630  0.00  0.00     0.000 OA
ATOM     95   O  SGN B   5      15.206  21.302  21.1380  0.00  0.00     0.000 OA
ENDBRANCH 83 92
BRANCH 86 96
ATOM     96   C  SGN B   5      21.552  23.835  23.5800  0.00  0.00     0.000 C
ATOM     97   O  SGN B   5      21.270  25.132  23.0510  0.00  0.00     0.000 O
ATOM     98   S  SGN B   5      21.531  26.370  24.0370  0.00  0.00     0.000 S
ATOM     99   O  SGN B   5      21.359  27.510  23.1690  0.00  0.00     0.000 OA
ATOM    100   O  SGN B   5      20.586  26.280  25.0920  0.00  0.00     0.000 OA
ATOM    101   O  SGN B   5      22.876  26.193  24.4790  0.00  0.00     0.000 OA
ENDBRANCH 86 96
BRANCH 82 102
ATOM    102  O4  IDS B   6      18.289  21.601  24.7850  0.00  0.00     0.000 O
BRANCH 102 106
ATOM    103  C1  IDS B   6      17.545  19.569  27.7130  0.00  0.00     0.000 C
ATOM    104  C2  IDS B   6      16.431  20.340  26.9880  0.00  0.00     0.000 C
ATOM    105  C3  IDS B   6      16.755  21.786  26.6670  0.00  0.00     0.000 C
ATOM    106  C4  IDS B   6      18.181  21.975  26.1820  0.00  0.00     0.000 C
ATOM    107  C5  IDS B   6      19.134  21.141  27.0440  0.00  0.00     0.000 C
ATOM    108  O5  IDS B   6      18.779  19.757  27.0460  0.00  0.00     0.000 O
ATOM    109   O  IDS B   6      16.511  22.561  27.8290  0.00  0.00     0.000 O
ATOM    111  HD  IDS B   6      16.567  21.989  28.4770  0.00  0.00     0.000 HD
BRANCH 104 111
ATOM    111   O  IDS B   6      16.175  19.701  25.6880  0.00  0.00     0.000 O
ATOM    112   S  IDS B   6      14.847  18.820  25.5310  0.00  0.00     0.000 S
ATOM    113   O  IDS B   6      14.968  17.791  26.5520  0.00  0.00     0.000 OA
ATOM    114   O  IDS B   6      13.684  19.702  25.6830  0.00  0.00     0.000 OA
ATOM    115   O  IDS B   6      15.047  18.335  24.1820  0.00  0.00     0.000 OA
ENDBRANCH 104 111
BRANCH 107 116
ATOM    116   C  IDS B   6      20.558  21.308  26.5280  0.00  0.00     0.000 C
ATOM    117   O  IDS B   6      21.092  22.367  26.7430  0.00  0.00     0.000 OA
ATOM    118   O  IDS B   6      21.121  20.414  25.9170  0.00  0.00     0.000 OA
ENDBRANCH 107 116
BRANCH 103 119
ATOM    119  O4  SGN B   7      17.385  19.921  29.0150  0.00  0.00     0.000 O
BRANCH 119 123
ATOM    120  C1  SGN B   7      18.104  18.149  32.7340  0.00  0.00     0.000 C
ATOM    121  C2  SGN B   7      19.281  18.864  32.0450  0.00  0.00     0.000 C
ATOM    122  C3  SGN B   7      18.773  19.783  30.9260  0.00  0.00     0.000 C
ATOM    123  C4  SGN B   7      17.890  18.992  29.9740  0.00  0.00     0.000 C
ATOM    124  C5  SGN B   7      16.754  18.313  30.7560  0.00  0.00     0.000 C
ATOM    125  O5  SGN B   7      17.278  17.459  31.7970  0.00  0.00     0.000 O
ATOM    126   O  SGN B   7      19.896  20.353  30.2450  0.00  0.00     0.000 O
ATOM    128  HD  SGN B   7      19.597  19.900  30.9200  0.00  0.00     0.000 HD
BRANCH 121 130
ATOM    128   N  SGN B   7      20.565  18.331  32.5100  0.00  0.00     0.000 N
ATOM    130  HD  SGN B   7      20.986  18.967  32.0990  0.00  0.00     0.000 HD
ATOM    130   S  SGN B   7      21.430  19.055  33.6590  0.00  0.00     0.000 S
ATOM    131   O  SGN B   7      20.516  19.277  34.7280  0.00  0.00     0.000 OA
ATOM    132   O  SGN B   7      22.611  18.299  33.8710  0.00  0.00     0.000 OA
ATOM    133   O  SGN B   7      21.910  20.331  32.8890  0.00  0.00     0.000 OA
ENDBRANCH 121 130
BRANCH 124 134
ATOM    134   C  SGN B   7      15.894  17.414  29.9190  0.00  0.00     0.000 C
ATOM    135   O  SGN B   7      15.602  16.226  30.6750  0.00  0.00     0.000 O
ATOM    136   S  SGN B   7      14.583  15.219  30.0300  0.00  0.00     0.000 S
ATOM    137   O  SGN B   7      14.531  14.075  30.9090  0.00  0.00     0.000 OA
ATOM    138   O  SGN B   7      15.130  14.908  28.7290  0.00  0.00     0.000 OA
ATOM    139   O  SGN B   7      13.354  15.996  29.9970  0.00  0.00     0.000 OA
ENDBRANCH 124 134
BRANCH 120 140
ATOM    140  O4  IDS B   8      17.148  18.687  33.4980  0.00  0.00     0.000 O
BRANCH 140 144
ATOM    141  C1  IDS B   8      14.670  20.668  35.2010  0.00  0.00     0.000 C
ATOM    142  C2  IDS B   8      16.186  20.988  35.3430  0.00  0.00     0.000 C
ATOM    143  C3  IDS B   8      17.036  19.746  35.6700  0.00  0.00     0.000 C
ATOM    144  C4  IDS B   8      16.633  18.537  34.8270  0.00  0.00     0.000 C
ATOM    145  C5  IDS B   8      15.103  18.406  34.7890  0.00  0.00     0.000 C
ATOM    146  O5  IDS B   8      14.484  19.590  34.2920  0.00  0.00     0.000 O
BRANCH 142 147
ATOM    147   O  IDS B   8      16.696  21.547  34.0640  0.00  0.00     0.000 O
ATOM    148   S  IDS B   8      17.842  22.695  34.0520  0.00  0.00     0.000 S
ATOM    149   O  IDS B   8      17.910  23.260  35.3810  0.00  0.00     0.000 OA
ATOM    150   O  IDS B   8      19.066  22.016  33.6680  0.00  0.00     0.000 OA
ATOM    151   O  IDS B   8      17.398  23.667  33.0710  0.00  0.00     0.000 OA
ENDBRANCH 142 147
BRANCH 145 152
ATOM    152   C  IDS B   8      14.636  17.282  33.8860  0.00  0.00     0.000 C
ATOM    153   O  IDS B   8      15.083  16.152  34.0480  0.00  0.00     0.000 OA
ATOM    154   O  IDS B   8      13.808  17.508  33.0220  0.00  0.00     0.000 OA
ENDBRANCH 145 152
ENDBRANCH 140 144
ENDBRANCH 120 140
ENDBRANCH 119 123
ENDBRANCH 103 119
ENDBRANCH 102 106
ENDBRANCH 82 102
ENDBRANCH 81 85
ENDBRANCH 65 81
ENDBRANCH 64 68
ENDBRANCH 41 64
ENDBRANCH 40 44
ENDBRANCH 24 40
ENDBRANCH 23 27
ENDBRANCH 1 23
TORSDOF 31
ENDMDL
MODEL 82
REMARK VINA RESULT:      -6.7      9.566     13.410
ROOT
ATOM      1  C1  SGN B   1      35.243  19.126  24.8920  0.00  0.00     0.000 C
ATOM      2  C2  SGN B   1      36.007  17.947  24.2680  0.00  0.00     0.000 C
ATOM      3  C3  SGN B   1      37.374  18.402  23.7450  0.00  0.00     0.000 C
ATOM      4  C4  SGN B   1      37.203  19.555  22.7610  0.00  0.00     0.000 C
ATOM      5  C5  SGN B   1      36.318  20.625  23.3960  0.00  0.00     0.000 C
ATOM      6  O5  SGN B   1      35.071  20.034  23.8120  0.00  0.00     0.000 O
ATOM      7   O  SGN B   1      38.059  17.318  23.1290  0.00  0.00     0.000 O
ATOM      9  HD  SGN B   1      37.350  17.380  22.6360  0.00  0.00     0.000 HD
ATOM      9   O  SGN B   1      38.473  20.096  22.4460  0.00  0.00     0.000 O
ATOM     11  HD  SGN B   1      37.764  20.159  21.9530  0.00  0.00     0.000 HD
ENDROOT
BRANCH 2 13
ATOM     11   N  SGN B   1      34.934  16.971  24.5370  0.00  0.00     0.000 N
ATOM     13  HD  SGN B   1      35.374  17.332  25.1900  0.00  0.00     0.000 HD
ATOM     13   S  SGN B   1      34.932  16.034  25.8450  0.00  0.00     0.000 S
ATOM     14   O  SGN B   1      36.044  16.335  26.6590  0.00  0.00     0.000 OA
ATOM     15   O  SGN B   1      33.625  16.051  26.4100  0.00  0.00     0.000 OA
ATOM     16   O  SGN B   1      35.107  14.657  25.1320  0.00  0.00     0.000 OA
ENDBRANCH 2 13
BRANCH 5 17
ATOM     17   C  SGN B   1      35.985  21.773  22.4740  0.00  0.00     0.000 C
ATOM     18   O  SGN B   1      35.652  21.294  21.1560  0.00  0.00     0.000 O
ATOM     19   S  SGN B   1      36.322  22.081  19.9350  0.00  0.00     0.000 S
ATOM     20   O  SGN B   1      35.658  21.573  18.7530  0.00  0.00     0.000 OA
ATOM     21   O  SGN B   1      36.033  23.469  20.2090  0.00  0.00     0.000 OA
ATOM     22   O  SGN B   1      37.728  21.749  19.9970  0.00  0.00     0.000 OA
ENDBRANCH 5 17
BRANCH 1 23
ATOM     23  O4  IDS B   2      35.076  19.760  26.0880  0.00  0.00     0.000 O
BRANCH 23 27
ATOM     24  C1  IDS B   2      31.373  19.441  27.9360  0.00  0.00     0.000 C
ATOM     25  C2  IDS B   2      31.468  20.494  26.8100  0.00  0.00     0.000 C
ATOM     26  C3  IDS B   2      32.757  20.323  26.0100  0.00  0.00     0.000 C
ATOM     27  C4  IDS B   2      34.013  20.341  26.8710  0.00  0.00     0.000 C
ATOM     28  C5  IDS B   2      33.743  19.625  28.2110  0.00  0.00     0.000 C
ATOM     29  O5  IDS B   2      32.623  18.760  28.1070  0.00  0.00     0.000 O
ATOM     30   O  IDS B   2      32.868  21.383  25.0680  0.00  0.00     0.000 O
ATOM     32  HD  IDS B   2      33.148  22.124  25.4180  0.00  0.00     0.000 HD
BRANCH 25 32
ATOM     32   O  IDS B   2      30.334  20.401  25.8570  0.00  0.00     0.000 O
ATOM     33   S  IDS B   2      29.311  21.669  25.5940  0.00  0.00     0.000 S
ATOM     34   O  IDS B   2      28.217  21.146  24.7920  0.00  0.00     0.000 OA
ATOM     35   O  IDS B   2      28.836  22.180  26.8720  0.00  0.00     0.000 OA
ATOM     36   O  IDS B   2      30.081  22.646  24.8610  0.00  0.00     0.000 OA
ENDBRANCH 25 32
BRANCH 28 37
ATOM     37   C  IDS B   2      34.905  18.841  28.8550  0.00  0.00     0.000 C
ATOM     38   O  IDS B   2      35.862  19.537  29.0960  0.00  0.00     0.000 OA
ATOM     39   O  IDS B   2      34.906  17.630  29.1860  0.00  0.00     0.000 OA
ENDBRANCH 28 37
BRANCH 24 40
ATOM     40  O4  SUS B   3      30.335  19.470  28.7970  0.00  0.00     0.000 O
BRANCH 40 44
ATOM     41  C1  SUS B   3      28.278  16.339  30.6730  0.00  0.00     0.000 C
ATOM     42  C2  SUS B   3      29.760  16.537  31.0520  0.00  0.00     0.000 C
ATOM     43  C3  SUS B   3      30.192  17.951  30.6720  0.00  0.00     0.000 C
ATOM     44  C4  SUS B   3      29.896  18.176  29.1970  0.00  0.00     0.000 C
ATOM     45  C5  SUS B   3      28.404  18.045  28.9710  0.00  0.00     0.000 C
ATOM     46  O5  SUS B   3      28.013  16.700  29.3120  0.00  0.00     0.000 O
BRANCH 42 49
ATOM     47   N  SUS B   3      29.734  15.124  31.4700  0.00  0.00     0.000 N
ATOM     49  HD  SUS B   3      28.960  14.796  31.6790  0.00  0.00     0.000 HD
ATOM     49   S  SUS B   3      30.747  14.817  32.6720  0.00  0.00     0.000 S
ATOM     50   O  SUS B   3      30.446  15.643  33.7750  0.00  0.00     0.000 OA
ATOM     51   O  SUS B   3      30.279  13.363  32.9350  0.00  0.00     0.000 OA
ATOM     52   O  SUS B   3      32.069  14.834  32.1860  0.00  0.00     0.000 OA
ENDBRANCH 42 49
BRANCH 43 53
ATOM     53   O  SUS B   3      31.643  18.064  30.9160  0.00  0.00     0.000 O
ATOM     54   S  SUS B   3      32.129  19.133  32.0660  0.00  0.00     0.000 S
ATOM     55   O  SUS B   3      31.749  18.584  33.3600  0.00  0.00     0.000 OA
ATOM     56   O  SUS B   3      33.564  19.232  31.8700  0.00  0.00     0.000 OA
ATOM     57   O  SUS B   3      31.421  20.387  31.7920  0.00  0.00     0.000 OA
ENDBRANCH 43 53
BRANCH 45 58
ATOM     58   C  SUS B   3      28.019  18.355  27.5410  0.00  0.00     0.000 C
ATOM     59   S  SUS B   3      27.736  17.272  25.2320  0.00  0.00     0.000 S
ATOM     60   O  SUS B   3      27.918  17.128  26.7980  0.00  0.00     0.000 O
ATOM     61   O  SUS B   3      29.057  17.587  24.7230  0.00  0.00     0.000 OA
ATOM     62   O  SUS B   3      27.311  15.941  24.8890  0.00  0.00     0.000 OA
ATOM     63   O  SUS B   3      26.758  18.287  25.0550  0.00  0.00     0.000 OA
ENDBRANCH 45 58
BRANCH 41 64
ATOM     64  O4  IDS B   4      27.398  16.878  31.5790  0.00  0.00     0.000 O
BRANCH 64 68
ATOM     65  C1  IDS B   4      24.804  16.999  34.1350  0.00  0.00     0.000 C
ATOM     66  C2  IDS B   4      26.021  16.081  34.3110  0.00  0.00     0.000 C
ATOM     67  C3  IDS B   4      26.372  15.261  33.0820  0.00  0.00     0.000 C
ATOM     68  C4  IDS B   4      26.237  16.046  31.7900  0.00  0.00     0.000 C
ATOM     69  C5  IDS B   4      24.922  16.835  31.8470  0.00  0.00     0.000 C
ATOM     70  O5  IDS B   4      24.968  17.749  32.9450  0.00  0.00     0.000 O
ATOM     71   O  IDS B   4      25.502  14.148  33.0570  0.00  0.00     0.000 O
ATOM     73  HD  IDS B   4      25.910  14.821  33.4190  0.00  0.00     0.000 HD
BRANCH 66 73
ATOM     73   O  IDS B   4      27.204  16.910  34.5790  0.00  0.00     0.000 O
ATOM     74   S  IDS B   4      27.816  16.896  36.0770  0.00  0.00     0.000 S
ATOM     75   O  IDS B   4      26.740  17.283  36.9630  0.00  0.00     0.000 OA
ATOM     76   O  IDS B   4      28.872  17.871  35.9740  0.00  0.00     0.000 OA
ATOM     77   O  IDS B   4      28.275  15.544  36.2920  0.00  0.00     0.000 OA
ENDBRANCH 66 73
BRANCH 69 78
ATOM     78   C  IDS B   4      24.531  17.502  30.5360  0.00  0.00     0.000 C
ATOM     79   O  IDS B   4      24.845  16.957  29.4780  0.00  0.00     0.000 OA
ATOM     80   O  IDS B   4      23.817  18.521  30.5750  0.00  0.00     0.000 OA
ENDBRANCH 69 78
BRANCH 65 81
ATOM     81  O4  SGN B   5      23.663  16.264  34.2440  0.00  0.00     0.000 O
BRANCH 81 85
ATOM     82  C1  SGN B   5      19.726  16.340  35.7030  0.00  0.00     0.000 C
ATOM     83  C2  SGN B   5      19.993  17.071  34.3790  0.00  0.00     0.000 C
ATOM     84  C3  SGN B   5      21.309  16.566  33.7710  0.00  0.00     0.000 C
ATOM     85  C4  SGN B   5      22.427  16.737  34.7840  0.00  0.00     0.000 C
ATOM     86  C5  SGN B   5      22.060  15.951  36.0400  0.00  0.00     0.000 C
ATOM     87  O5  SGN B   5      20.832  16.481  36.5740  0.00  0.00     0.000 O
ATOM     88   O  SGN B   5      21.591  17.274  32.5830  0.00  0.00     0.000 O
ATOM     90  HD  SGN B   5      21.263  16.474  32.6250  0.00  0.00     0.000 HD
BRANCH 83 92
ATOM     90   N  SGN B   5      18.542  17.269  34.5580  0.00  0.00     0.000 N
ATOM     92  HD  SGN B   5      18.356  17.486  35.3750  0.00  0.00     0.000 HD
ATOM     92   S  SGN B   5      17.754  18.099  33.4420  0.00  0.00     0.000 S
ATOM     93   O  SGN B   5      16.398  18.116  33.9030  0.00  0.00     0.000 OA
ATOM     94   O  SGN B   5      18.471  19.319  33.2900  0.00  0.00     0.000 OA
ATOM     95   O  SGN B   5      17.941  17.304  32.1680  0.00  0.00     0.000 OA
ENDBRANCH 83 92
BRANCH 86 96
ATOM     96   C  SGN B   5      23.098  16.021  37.1420  0.00  0.00     0.000 C
ATOM     97   O  SGN B   5      23.466  17.378  37.3990  0.00  0.00     0.000 O
ATOM     98   S  SGN B   5      23.413  17.845  38.9330  0.00  0.00     0.000 S
ATOM     99   O  SGN B   5      24.021  19.153  38.8880  0.00  0.00     0.000 OA
ATOM    100   O  SGN B   5      22.053  17.837  39.3340  0.00  0.00     0.000 OA
ATOM    101   O  SGN B   5      24.203  16.879  39.6250  0.00  0.00     0.000 OA
ENDBRANCH 86 96
BRANCH 82 102
ATOM    102  O4  IDS B   6      19.428  15.022  35.5240  0.00  0.00     0.000 O
BRANCH 102 106
ATOM    103  C1  IDS B   6      16.866  12.472  35.9630  0.00  0.00     0.000 C
ATOM    104  C2  IDS B   6      16.496  13.964  35.9490  0.00  0.00     0.000 C
ATOM    105  C3  IDS B   6      17.370  14.851  36.8150  0.00  0.00     0.000 C
ATOM    106  C4  IDS B   6      18.841  14.482  36.7350  0.00  0.00     0.000 C
ATOM    107  C5  IDS B   6      18.996  12.959  36.7830  0.00  0.00     0.000 C
ATOM    108  O5  IDS B   6      18.255  12.315  35.7450  0.00  0.00     0.000 O
ATOM    109   O  IDS B   6      16.901  14.765  38.1500  0.00  0.00     0.000 O
ATOM    111  HD  IDS B   6      16.481  14.008  38.1750  0.00  0.00     0.000 HD
BRANCH 104 111
ATOM    111   O  IDS B   6      16.650  14.483  34.5810  0.00  0.00     0.000 O
ATOM    112   S  IDS B   6      15.344  14.574  33.6600  0.00  0.00     0.000 S
ATOM    113   O  IDS B   6      14.843  13.210  33.5990  0.00  0.00     0.000 OA
ATOM    114   O  IDS B   6      14.418  15.541  34.2610  0.00  0.00     0.000 OA
ATOM    115   O  IDS B   6      15.957  15.031  32.4310  0.00  0.00     0.000 OA
ENDBRANCH 104 111
BRANCH 107 116
ATOM    116   C  IDS B   6      20.471  12.598  36.6660  0.00  0.00     0.000 C
ATOM    117   O  IDS B   6      20.782  11.878  35.7510  0.00  0.00     0.000 OA
ATOM    118   O  IDS B   6      21.292  13.012  37.4690  0.00  0.00     0.000 OA
ENDBRANCH 107 116
BRANCH 103 119
ATOM    119  O4  SGN B   7      16.270  12.004  37.0900  0.00  0.00     0.000 O
BRANCH 119 123
ATOM    120  C1  SGN B   7      15.172   8.237  38.5360  0.00  0.00     0.000 C
ATOM    121  C2  SGN B   7      16.550   8.787  38.9510  0.00  0.00     0.000 C
ATOM    122  C3  SGN B   7      16.628  10.296  38.6880  0.00  0.00     0.000 C
ATOM    123  C4  SGN B   7      16.261  10.584  37.2420  0.00  0.00     0.000 C
ATOM    124  C5  SGN B   7      14.879   9.991  36.9250  0.00  0.00     0.000 C
ATOM    125  O5  SGN B   7      14.851   8.570  37.1860  0.00  0.00     0.000 O
ATOM    126   O  SGN B   7      17.951  10.754  38.9920  0.00  0.00     0.000 O
ATOM    128  HD  SGN B   7      17.368  10.115  39.0270  0.00  0.00     0.000 HD
BRANCH 121 130
ATOM    128   N  SGN B   7      17.177   7.519  39.3340  0.00  0.00     0.000 N
ATOM    130  HD  SGN B   7      17.954   7.900  39.3530  0.00  0.00     0.000 HD
ATOM    130   S  SGN B   7      17.727   7.248  40.8230  0.00  0.00     0.000 S
ATOM    131   O  SGN B   7      16.655   7.605  41.6870  0.00  0.00     0.000 OA
ATOM    132   O  SGN B   7      18.277   5.941  40.8640  0.00  0.00     0.000 OA
ATOM    133   O  SGN B   7      18.970   8.200  40.8410  0.00  0.00     0.000 OA
ENDBRANCH 121 130
BRANCH 124 134
ATOM    134   C  SGN B   7      14.476  10.124  35.4860  0.00  0.00     0.000 C
ATOM    135   O  SGN B   7      13.530   9.086  35.1770  0.00  0.00     0.000 O
ATOM    136   S  SGN B   7      12.867   9.144  33.7550  0.00  0.00     0.000 S
ATOM    137   O  SGN B   7      12.048   7.961  33.6400  0.00  0.00     0.000 OA
ATOM    138   O  SGN B   7      13.971   9.159  32.8230  0.00  0.00     0.000 OA
ATOM    139   O  SGN B   7      12.110  10.385  33.8120  0.00  0.00     0.000 OA
ENDBRANCH 124 134
BRANCH 120 140
ATOM    140  O4  IDS B   8      13.985   8.481  39.1000  0.00  0.00     0.000 O
BRANCH 140 144
ATOM    141  C1  IDS B   8      10.556   9.128  39.9880  0.00  0.00     0.000 C
ATOM    142  C2  IDS B   8      11.685  10.126  40.3750  0.00  0.00     0.000 C
ATOM    143  C3  IDS B   8      12.896   9.441  41.0350  0.00  0.00     0.000 C
ATOM    144  C4  IDS B   8      13.291   8.155  40.3110  0.00  0.00     0.000 C
ATOM    145  C5  IDS B   8      12.041   7.320  39.9940  0.00  0.00     0.000 C
ATOM    146  O5  IDS B   8      11.096   8.057  39.2230  0.00  0.00     0.000 O
BRANCH 142 147
ATOM    147   O  IDS B   8      12.180  10.813  39.1530  0.00  0.00     0.000 O
ATOM    148   S  IDS B   8      11.880  12.387  38.9000  0.00  0.00     0.000 S
ATOM    149   O  IDS B   8      10.811  12.779  39.7910  0.00  0.00     0.000 OA
ATOM    150   O  IDS B   8      13.128  13.070  39.1870  0.00  0.00     0.000 OA
ATOM    151   O  IDS B   8      11.486  12.482  37.5080  0.00  0.00     0.000 OA
ENDBRANCH 142 147
BRANCH 145 152
ATOM    152   C  IDS B   8      12.358   6.077  39.1870  0.00  0.00     0.000 C
ATOM    153   O  IDS B   8      12.136   6.066  37.9820  0.00  0.00     0.000 OA
ATOM    154   O  IDS B   8      12.849   5.110  39.7410  0.00  0.00     0.000 OA
ENDBRANCH 145 152
ENDBRANCH 140 144
ENDBRANCH 120 140
ENDBRANCH 119 123
ENDBRANCH 103 119
ENDBRANCH 102 106
ENDBRANCH 82 102
ENDBRANCH 81 85
ENDBRANCH 65 81
ENDBRANCH 64 68
ENDBRANCH 41 64
ENDBRANCH 40 44
ENDBRANCH 24 40
ENDBRANCH 23 27
ENDBRANCH 1 23
TORSDOF 31
ENDMDL
MODEL 83
REMARK VINA RESULT:      -6.7      4.492      7.860
ROOT
ATOM      1  C1  SGN B   1      26.979  14.434  15.9340  0.00  0.00     0.000 C
ATOM      2  C2  SGN B   1      27.357  12.980  15.6050  0.00  0.00     0.000 C
ATOM      3  C3  SGN B   1      28.861  12.754  15.7940  0.00  0.00     0.000 C
ATOM      4  C4  SGN B   1      29.653  13.752  14.9570  0.00  0.00     0.000 C
ATOM      5  C5  SGN B   1      29.128  15.160  15.2300  0.00  0.00     0.000 C
ATOM      6  O5  SGN B   1      27.709  15.201  14.9860  0.00  0.00     0.000 O
ATOM      7   O  SGN B   1      29.214  11.420  15.4470  0.00  0.00     0.000 O
ATOM      9  HD  SGN B   1      28.899  11.720  14.6980  0.00  0.00     0.000 HD
ATOM      9   O  SGN B   1      31.025  13.668  15.2960  0.00  0.00     0.000 O
ATOM     11  HD  SGN B   1      30.710  13.968  14.5470  0.00  0.00     0.000 HD
ENDROOT
BRANCH 2 13
ATOM     11   N  SGN B   1      26.107  12.284  15.2450  0.00  0.00     0.000 N
ATOM     13  HD  SGN B   1      26.136  12.809  15.9330  0.00  0.00     0.000 HD
ATOM     13   S  SGN B   1      24.997  11.890  16.3400  0.00  0.00     0.000 S
ATOM     14   O  SGN B   1      25.387  12.349  17.6150  0.00  0.00     0.000 OA
ATOM     15   O  SGN B   1      23.715  12.245  15.8300  0.00  0.00     0.000 OA
ATOM     16   O  SGN B   1      25.120  10.338  16.2340  0.00  0.00     0.000 OA
ENDBRANCH 2 13
BRANCH 5 17
ATOM     17   C  SGN B   1      29.762  16.229  14.3740  0.00  0.00     0.000 C
ATOM     18   O  SGN B   1      29.954  15.761  13.0240  0.00  0.00     0.000 O
ATOM     19   S  SGN B   1      31.377  16.079  12.3670  0.00  0.00     0.000 S
ATOM     20   O  SGN B   1      31.232  15.727  10.9700  0.00  0.00     0.000 OA
ATOM     21   O  SGN B   1      31.559  17.494  12.5910  0.00  0.00     0.000 OA
ATOM     22   O  SGN B   1      32.318  15.244  13.0810  0.00  0.00     0.000 OA
ENDBRANCH 5 17
BRANCH 1 23
ATOM     23  O4  IDS B   2      26.587  15.208  16.9850  0.00  0.00     0.000 O
BRANCH 23 27
ATOM     24  C1  IDS B   2      24.633  17.699  19.6700  0.00  0.00     0.000 C
ATOM     25  C2  IDS B   2      23.718  16.833  18.7760  0.00  0.00     0.000 C
ATOM     26  C3  IDS B   2      24.522  15.757  18.0520  0.00  0.00     0.000 C
ATOM     27  C4  IDS B   2      25.693  16.309  17.2500  0.00  0.00     0.000 C
ATOM     28  C5  IDS B   2      26.339  17.489  18.0050  0.00  0.00     0.000 C
ATOM     29  O5  IDS B   2      26.015  17.445  19.3870  0.00  0.00     0.000 O
ATOM     30   O  IDS B   2      23.670  15.064  17.1470  0.00  0.00     0.000 O
ATOM     32  HD  IDS B   2      23.531  15.497  16.4100  0.00  0.00     0.000 HD
BRANCH 25 32
ATOM     32   O  IDS B   2      22.655  16.151  19.5540  0.00  0.00     0.000 O
ATOM     33   S  IDS B   2      21.067  16.224  19.1100  0.00  0.00     0.000 S
ATOM     34   O  IDS B   2      20.312  15.644  20.2100  0.00  0.00     0.000 OA
ATOM     35   O  IDS B   2      20.692  17.612  18.8810  0.00  0.00     0.000 OA
ATOM     36   O  IDS B   2      20.958  15.419  17.9150  0.00  0.00     0.000 OA
ENDBRANCH 25 32
BRANCH 28 37
ATOM     37   C  IDS B   2      27.863  17.682  17.8700  0.00  0.00     0.000 C
ATOM     38   O  IDS B   2      28.479  17.208  18.7960  0.00  0.00     0.000 OA
ATOM     39   O  IDS B   2      28.476  18.201  16.9050  0.00  0.00     0.000 OA
ENDBRANCH 28 37
BRANCH 24 40
ATOM     40  O4  SUS B   3      24.117  18.750  20.3410  0.00  0.00     0.000 O
BRANCH 40 44
ATOM     41  C1  SUS B   3      25.170  20.107  24.1620  0.00  0.00     0.000 C
ATOM     42  C2  SUS B   3      25.669  20.932  22.9580  0.00  0.00     0.000 C
ATOM     43  C3  SUS B   3      24.822  20.596  21.7330  0.00  0.00     0.000 C
ATOM     44  C4  SUS B   3      24.857  19.092  21.5080  0.00  0.00     0.000 C
ATOM     45  C5  SUS B   3      24.259  18.402  22.7180  0.00  0.00     0.000 C
ATOM     46  O5  SUS B   3      25.080  18.710  23.8630  0.00  0.00     0.000 O
BRANCH 42 49
ATOM     47   N  SUS B   3      25.697  22.322  23.4460  0.00  0.00     0.000 N
ATOM     49  HD  SUS B   3      25.192  22.888  23.0290  0.00  0.00     0.000 HD
ATOM     49   S  SUS B   3      27.180  22.925  23.5060  0.00  0.00     0.000 S
ATOM     50   O  SUS B   3      27.776  22.859  22.2300  0.00  0.00     0.000 OA
ATOM     51   O  SUS B   3      26.767  24.382  23.8410  0.00  0.00     0.000 OA
ATOM     52   O  SUS B   3      27.878  22.345  24.5830  0.00  0.00     0.000 OA
ENDBRANCH 42 49
BRANCH 43 53
ATOM     53   O  SUS B   3      25.409  21.290  20.5700  0.00  0.00     0.000 O
ATOM     54   S  SUS B   3      24.560  22.550  19.9420  0.00  0.00     0.000 S
ATOM     55   O  SUS B   3      24.641  23.648  20.8950  0.00  0.00     0.000 OA
ATOM     56   O  SUS B   3      25.219  22.822  18.6770  0.00  0.00     0.000 OA
ATOM     57   O  SUS B   3      23.179  22.083  19.7860  0.00  0.00     0.000 OA
ENDBRANCH 43 53
BRANCH 45 58
ATOM     58   C  SUS B   3      24.167  16.904  22.5280  0.00  0.00     0.000 C
ATOM     59   S  SUS B   3      23.302  14.763  23.6460  0.00  0.00     0.000 S
ATOM     60   O  SUS B   3      23.336  16.344  23.5580  0.00  0.00     0.000 O
ATOM     61   O  SUS B   3      24.539  14.392  24.3050  0.00  0.00     0.000 OA
ATOM     62   O  SUS B   3      22.147  14.566  24.4810  0.00  0.00     0.000 OA
ATOM     63   O  SUS B   3      23.167  14.311  22.3060  0.00  0.00     0.000 OA
ENDBRANCH 45 58
BRANCH 41 64
ATOM     64  O4  IDS B   4      24.050  20.627  24.7620  0.00  0.00     0.000 O
BRANCH 64 68
ATOM     65  C1  IDS B   4      22.547  21.331  28.0060  0.00  0.00     0.000 C
ATOM     66  C2  IDS B   4      24.035  20.972  27.9060  0.00  0.00     0.000 C
ATOM     67  C3  IDS B   4      24.332  19.771  27.0240  0.00  0.00     0.000 C
ATOM     68  C4  IDS B   4      23.493  19.744  25.7610  0.00  0.00     0.000 C
ATOM     69  C5  IDS B   4      22.046  20.087  26.1410  0.00  0.00     0.000 C
ATOM     70  O5  IDS B   4      22.006  21.403  26.6990  0.00  0.00     0.000 O
ATOM     71   O  IDS B   4      24.077  18.613  27.7920  0.00  0.00     0.000 O
ATOM     73  HD  IDS B   4      24.233  19.455  27.6660  0.00  0.00     0.000 HD
BRANCH 66 73
ATOM     73   O  IDS B   4      24.752  22.096  27.2900  0.00  0.00     0.000 O
ATOM     74   S  IDS B   4      25.853  22.874  28.1860  0.00  0.00     0.000 S
ATOM     75   O  IDS B   4      25.166  23.329  29.3760  0.00  0.00     0.000 OA
ATOM     76   O  IDS B   4      26.258  23.937  27.3000  0.00  0.00     0.000 OA
ATOM     77   O  IDS B   4      26.885  21.902  28.4580  0.00  0.00     0.000 OA
ENDBRANCH 66 73
BRANCH 69 78
ATOM     78   C  IDS B   4      21.036  19.887  25.0200  0.00  0.00     0.000 C
ATOM     79   O  IDS B   4      21.295  19.081  24.1280  0.00  0.00     0.000 OA
ATOM     80   O  IDS B   4      19.937  20.466  25.0980  0.00  0.00     0.000 OA
ENDBRANCH 69 78
BRANCH 65 81
ATOM     81  O4  SGN B   5      21.933  20.483  28.8780  0.00  0.00     0.000 O
BRANCH 81 85
ATOM     82  C1  SGN B   5      18.881  20.203  31.7480  0.00  0.00     0.000 C
ATOM     83  C2  SGN B   5      18.448  20.324  30.2790  0.00  0.00     0.000 C
ATOM     84  C3  SGN B   5      19.624  19.950  29.3660  0.00  0.00     0.000 C
ATOM     85  C4  SGN B   5      20.821  20.819  29.7090  0.00  0.00     0.000 C
ATOM     86  C5  SGN B   5      21.169  20.597  31.1790  0.00  0.00     0.000 C
ATOM     87  O5  SGN B   5      20.039  20.981  31.9850  0.00  0.00     0.000 O
ATOM     88   O  SGN B   5      19.252  20.114  28.0150  0.00  0.00     0.000 O
ATOM     90  HD  SGN B   5      19.294  19.358  28.4360  0.00  0.00     0.000 HD
BRANCH 83 92
ATOM     90   N  SGN B   5      17.153  20.219  30.9790  0.00  0.00     0.000 N
ATOM     92  HD  SGN B   5      17.137  20.725  31.6820  0.00  0.00     0.000 HD
ATOM     92   S  SGN B   5      15.819  20.244  30.0980  0.00  0.00     0.000 S
ATOM     93   O  SGN B   5      14.760  20.133  31.0550  0.00  0.00     0.000 OA
ATOM     94   O  SGN B   5      15.920  21.401  29.2770  0.00  0.00     0.000 OA
ATOM     95   O  SGN B   5      15.934  19.037  29.1930  0.00  0.00     0.000 OA
ENDBRANCH 83 92
BRANCH 86 96
ATOM     96   C  SGN B   5      22.361  21.397  31.6630  0.00  0.00     0.000 C
ATOM     97   O  SGN B   5      21.943  22.673  32.1540  0.00  0.00     0.000 O
ATOM     98   S  SGN B   5      22.478  23.078  33.6100  0.00  0.00     0.000 S
ATOM     99   O  SGN B   5      22.068  24.457  33.7270  0.00  0.00     0.000 OA
ATOM    100   O  SGN B   5      21.873  22.200  34.5460  0.00  0.00     0.000 OA
ATOM    101   O  SGN B   5      23.893  22.914  33.5270  0.00  0.00     0.000 OA
ENDBRANCH 86 96
BRANCH 82 102
ATOM    102  O4  IDS B   6      19.092  18.911  32.1280  0.00  0.00     0.000 O
BRANCH 102 106
ATOM    103  C1  IDS B   6      18.344  16.014  34.2040  0.00  0.00     0.000 C
ATOM    104  C2  IDS B   6      17.228  16.975  33.7630  0.00  0.00     0.000 C
ATOM    105  C3  IDS B   6      17.539  18.448  33.9460  0.00  0.00     0.000 C
ATOM    106  C4  IDS B   6      18.968  18.797  33.5690  0.00  0.00     0.000 C
ATOM    107  C5  IDS B   6      19.922  17.731  34.1150  0.00  0.00     0.000 C
ATOM    108  O5  IDS B   6      19.581  16.423  33.6520  0.00  0.00     0.000 O
ATOM    109   O  IDS B   6      17.276  18.790  35.2970  0.00  0.00     0.000 O
ATOM    111  HD  IDS B   6      17.333  18.035  35.7180  0.00  0.00     0.000 HD
BRANCH 104 111
ATOM    111   O  IDS B   6      16.990  16.804  32.3220  0.00  0.00     0.000 O
ATOM    112   S  IDS B   6      15.596  16.166  31.8600  0.00  0.00     0.000 S
ATOM    113   O  IDS B   6      15.556  14.864  32.5070  0.00  0.00     0.000 OA
ATOM    114   O  IDS B   6      14.515  17.078  32.2510  0.00  0.00     0.000 OA
ATOM    115   O  IDS B   6      15.829  16.105  30.4330  0.00  0.00     0.000 OA
ENDBRANCH 104 111
BRANCH 107 116
ATOM    116   C  IDS B   6      21.348  18.071  33.7010  0.00  0.00     0.000 C
ATOM    117   O  IDS B   6      21.916  18.909  34.3530  0.00  0.00     0.000 OA
ATOM    118   O  IDS B   6      21.880  17.524  32.7480  0.00  0.00     0.000 OA
ENDBRANCH 107 116
BRANCH 103 119
ATOM    119  O4  SGN B   7      18.168  15.912  35.5460  0.00  0.00     0.000 O
BRANCH 119 123
ATOM    120  C1  SGN B   7      19.302  13.136  38.4620  0.00  0.00     0.000 C
ATOM    121  C2  SGN B   7      20.156  14.410  38.3190  0.00  0.00     0.000 C
ATOM    122  C3  SGN B   7      19.399  15.479  37.5200  0.00  0.00     0.000 C
ATOM    123  C4  SGN B   7      18.935  14.897  36.1950  0.00  0.00     0.000 C
ATOM    124  C5  SGN B   7      18.100  13.630  36.4440  0.00  0.00     0.000 C
ATOM    125  O5  SGN B   7      18.852  12.652  37.1970  0.00  0.00     0.000 O
ATOM    126   O  SGN B   7      20.257  16.608  37.3230  0.00  0.00     0.000 O
ATOM    128  HD  SGN B   7      20.117  15.851  37.7200  0.00  0.00     0.000 HD
BRANCH 121 130
ATOM    128   N  SGN B   7      20.783  13.867  39.5270  0.00  0.00     0.000 N
ATOM    130  HD  SGN B   7      21.494  13.664  39.0750  0.00  0.00     0.000 HD
ATOM    130   S  SGN B   7      21.981  14.627  40.2890  0.00  0.00     0.000 S
ATOM    131   O  SGN B   7      21.519  15.960  40.4720  0.00  0.00     0.000 OA
ATOM    132   O  SGN B   7      22.367  13.842  41.4060  0.00  0.00     0.000 OA
ATOM    133   O  SGN B   7      23.139  14.436  39.2530  0.00  0.00     0.000 OA
ENDBRANCH 121 130
BRANCH 124 134
ATOM    134   C  SGN B   7      17.692  12.916  35.1890  0.00  0.00     0.000 C
ATOM    135   O  SGN B   7      16.896  11.774  35.5510  0.00  0.00     0.000 O
ATOM    136   S  SGN B   7      16.239  10.976  34.3680  0.00  0.00     0.000 S
ATOM    137   O  SGN B   7      15.588   9.833  34.9610  0.00  0.00     0.000 OA
ATOM    138   O  SGN B   7      17.337  10.614  33.5010  0.00  0.00     0.000 OA
ATOM    139   O  SGN B   7      15.322  11.953  33.8020  0.00  0.00     0.000 OA
ENDBRANCH 124 134
BRANCH 120 140
ATOM    140  O4  IDS B   8      18.173  12.976  39.1600  0.00  0.00     0.000 O
BRANCH 140 144
ATOM    141  C1  IDS B   8      15.579  12.335  41.5730  0.00  0.00     0.000 C
ATOM    142  C2  IDS B   8      15.530  11.693  40.1570  0.00  0.00     0.000 C
ATOM    143  C3  IDS B   8      15.773  12.709  39.0260  0.00  0.00     0.000 C
ATOM    144  C4  IDS B   8      16.926  13.658  39.3450  0.00  0.00     0.000 C
ATOM    145  C5  IDS B   8      16.811  14.164  40.7910  0.00  0.00     0.000 C
ATOM    146  O5  IDS B   8      16.776  13.087  41.7250  0.00  0.00     0.000 O
BRANCH 142 147
ATOM    147   O  IDS B   8      16.587  10.653  40.0480  0.00  0.00     0.000 O
ATOM    148   S  IDS B   8      16.474   9.458  38.9570  0.00  0.00     0.000 S
ATOM    149   O  IDS B   8      15.103   9.411  38.4980  0.00  0.00     0.000 OA
ATOM    150   O  IDS B   8      17.407   9.808  37.9020  0.00  0.00     0.000 OA
ATOM    151   O  IDS B   8      16.847   8.252  39.6710  0.00  0.00     0.000 OA
ENDBRANCH 142 147
BRANCH 145 152
ATOM    152   C  IDS B   8      17.983  15.033  41.2010  0.00  0.00     0.000 C
ATOM    153   O  IDS B   8      18.823  14.590  41.9750  0.00  0.00     0.000 OA
ATOM    154   O  IDS B   8      18.088  16.156  40.7410  0.00  0.00     0.000 OA
ENDBRANCH 145 152
ENDBRANCH 140 144
ENDBRANCH 120 140
ENDBRANCH 119 123
ENDBRANCH 103 119
ENDBRANCH 102 106
ENDBRANCH 82 102
ENDBRANCH 81 85
ENDBRANCH 65 81
ENDBRANCH 64 68
ENDBRANCH 41 64
ENDBRANCH 40 44
ENDBRANCH 24 40
ENDBRANCH 23 27
ENDBRANCH 1 23
TORSDOF 31
ENDMDL
MODEL 84
REMARK VINA RESULT:      -6.7      4.420      7.794
ROOT
ATOM      1  C1  SGN B   1      25.208  15.880  15.2090  0.00  0.00     0.000 C
ATOM      2  C2  SGN B   1      24.829  14.390  15.2040  0.00  0.00     0.000 C
ATOM      3  C3  SGN B   1      25.722  13.606  14.2350  0.00  0.00     0.000 C
ATOM      4  C4  SGN B   1      25.649  14.218  12.8400  0.00  0.00     0.000 C
ATOM      5  C5  SGN B   1      25.897  15.722  12.9420  0.00  0.00     0.000 C
ATOM      6  O5  SGN B   1      24.964  16.302  13.8740  0.00  0.00     0.000 O
ATOM      7   O  SGN B   1      25.339  12.236  14.2000  0.00  0.00     0.000 O
ATOM      9  HD  SGN B   1      24.618  12.628  13.9230  0.00  0.00     0.000 HD
ATOM      9   O  SGN B   1      26.627  13.617  12.0110  0.00  0.00     0.000 O
ATOM     11  HD  SGN B   1      25.906  14.009  11.7350  0.00  0.00     0.000 HD
ENDROOT
BRANCH 2 13
ATOM     11   N  SGN B   1      23.732  14.240  16.1780  0.00  0.00     0.000 N
ATOM     13  HD  SGN B   1      24.436  14.703  16.3770  0.00  0.00     0.000 HD
ATOM     13   S  SGN B   1      23.980  14.293  17.7670  0.00  0.00     0.000 S
ATOM     14   O  SGN B   1      25.341  14.547  18.0370  0.00  0.00     0.000 OA
ATOM     15   O  SGN B   1      22.983  15.126  18.3510  0.00  0.00     0.000 OA
ATOM     16   O  SGN B   1      23.600  12.818  18.1010  0.00  0.00     0.000 OA
ENDBRANCH 2 13
BRANCH 5 17
ATOM     17   C  SGN B   1      25.742  16.459  11.6340  0.00  0.00     0.000 C
ATOM     18   O  SGN B   1      25.397  17.840  11.8600  0.00  0.00     0.000 O
ATOM     19   S  SGN B   1      24.220  18.427  10.9490  0.00  0.00     0.000 S
ATOM     20   O  SGN B   1      24.230  19.853  11.1960  0.00  0.00     0.000 OA
ATOM     21   O  SGN B   1      24.606  18.070   9.6030  0.00  0.00     0.000 OA
ATOM     22   O  SGN B   1      23.019  17.767  11.4120  0.00  0.00     0.000 OA
ENDBRANCH 5 17
BRANCH 1 23
ATOM     23  O4  IDS B   2      26.036  16.754  15.8490  0.00  0.00     0.000 O
BRANCH 23 27
ATOM     24  C1  IDS B   2      25.653  18.527  19.5830  0.00  0.00     0.000 C
ATOM     25  C2  IDS B   2      24.507  18.814  18.5870  0.00  0.00     0.000 C
ATOM     26  C3  IDS B   2      24.593  17.890  17.3750  0.00  0.00     0.000 C
ATOM     27  C4  IDS B   2      25.943  17.936  16.6710  0.00  0.00     0.000 C
ATOM     28  C5  IDS B   2      27.074  18.083  17.7090  0.00  0.00     0.000 C
ATOM     29  O5  IDS B   2      26.639  17.668  18.9950  0.00  0.00     0.000 O
ATOM     30   O  IDS B   2      23.601  18.267  16.4280  0.00  0.00     0.000 O
ATOM     32  HD  IDS B   2      23.825  18.958  15.9550  0.00  0.00     0.000 HD
BRANCH 25 32
ATOM     32   O  IDS B   2      23.170  18.624  19.2010  0.00  0.00     0.000 O
ATOM     33   S  IDS B   2      22.034  19.821  19.2030  0.00  0.00     0.000 S
ATOM     34   O  IDS B   2      20.962  19.362  20.0720  0.00  0.00     0.000 OA
ATOM     35   O  IDS B   2      22.630  21.054  19.6990  0.00  0.00     0.000 OA
ATOM     36   O  IDS B   2      21.588  19.938  17.8340  0.00  0.00     0.000 OA
ENDBRANCH 25 32
BRANCH 28 37
ATOM     37   C  IDS B   2      28.422  17.396  17.4070  0.00  0.00     0.000 C
ATOM     38   O  IDS B   2      28.660  16.483  18.1620  0.00  0.00     0.000 OA
ATOM     39   O  IDS B   2      29.205  17.654  16.4610  0.00  0.00     0.000 OA
ENDBRANCH 28 37
BRANCH 24 40
ATOM     40  O4  SUS B   3      25.789  19.287  20.6890  0.00  0.00     0.000 O
BRANCH 40 44
ATOM     41  C1  SUS B   3      27.028  18.124  24.5180  0.00  0.00     0.000 C
ATOM     42  C2  SUS B   3      28.084  18.773  23.6020  0.00  0.00     0.000 C
ATOM     43  C3  SUS B   3      27.379  19.547  22.4900  0.00  0.00     0.000 C
ATOM     44  C4  SUS B   3      26.426  18.609  21.7660  0.00  0.00     0.000 C
ATOM     45  C5  SUS B   3      25.386  18.112  22.7490  0.00  0.00     0.000 C
ATOM     46  O5  SUS B   3      26.063  17.365  23.7810  0.00  0.00     0.000 O
BRANCH 42 49
ATOM     47   N  SUS B   3      29.000  19.550  24.4560  0.00  0.00     0.000 N
ATOM     49  HD  SUS B   3      29.087  20.390  24.2660  0.00  0.00     0.000 HD
ATOM     49   S  SUS B   3      30.463  18.903  24.5410  0.00  0.00     0.000 S
ATOM     50   O  SUS B   3      31.010  18.783  23.2470  0.00  0.00     0.000 OA
ATOM     51   O  SUS B   3      31.131  20.072  25.3100  0.00  0.00     0.000 OA
ATOM     52   O  SUS B   3      30.416  17.744  25.3400  0.00  0.00     0.000 OA
ENDBRANCH 42 49
BRANCH 43 53
ATOM     53   O  SUS B   3      28.408  20.038  21.5540  0.00  0.00     0.000 O
ATOM     54   S  SUS B   3      28.682  21.658  21.5220  0.00  0.00     0.000 S
ATOM     55   O  SUS B   3      29.355  22.011  22.7650  0.00  0.00     0.000 OA
ATOM     56   O  SUS B   3      29.499  21.854  20.3380  0.00  0.00     0.000 OA
ATOM     57   O  SUS B   3      27.367  22.299  21.4300  0.00  0.00     0.000 OA
ENDBRANCH 43 53
BRANCH 45 58
ATOM     58   C  SUS B   3      24.340  17.248  22.0790  0.00  0.00     0.000 C
ATOM     59   S  SUS B   3      23.180  14.965  22.2410  0.00  0.00     0.000 S
ATOM     60   O  SUS B   3      24.088  16.089  22.8900  0.00  0.00     0.000 O
ATOM     61   O  SUS B   3      24.051  14.256  21.3240  0.00  0.00     0.000 OA
ATOM     62   O  SUS B   3      22.846  14.187  23.4040  0.00  0.00     0.000 OA
ATOM     63   O  SUS B   3      22.095  15.655  21.6390  0.00  0.00     0.000 OA
ENDBRANCH 45 58
BRANCH 41 64
ATOM     64  O4  IDS B   4      26.481  18.989  25.4330  0.00  0.00     0.000 O
BRANCH 64 68
ATOM     65  C1  IDS B   4      25.389  19.636  28.8490  0.00  0.00     0.000 C
ATOM     66  C2  IDS B   4      26.411  18.528  28.5610  0.00  0.00     0.000 C
ATOM     67  C3  IDS B   4      26.043  17.621  27.3990  0.00  0.00     0.000 C
ATOM     68  C4  IDS B   4      25.442  18.376  26.2280  0.00  0.00     0.000 C
ATOM     69  C5  IDS B   4      24.423  19.381  26.7810  0.00  0.00     0.000 C
ATOM     70  O5  IDS B   4      25.093  20.309  27.6380  0.00  0.00     0.000 O
ATOM     71   O  IDS B   4      25.113  16.675  27.8840  0.00  0.00     0.000 O
ATOM     73  HD  IDS B   4      25.730  17.278  27.9520  0.00  0.00     0.000 HD
BRANCH 66 73
ATOM     73   O  IDS B   4      27.688  19.149  28.1830  0.00  0.00     0.000 O
ATOM     74   S  IDS B   4      29.023  18.673  28.9630  0.00  0.00     0.000 S
ATOM     75   O  IDS B   4      28.774  18.892  30.3720  0.00  0.00     0.000 OA
ATOM     76   O  IDS B   4      30.022  19.547  28.4010  0.00  0.00     0.000 OA
ATOM     77   O  IDS B   4      29.192  17.281  28.6230  0.00  0.00     0.000 OA
ENDBRANCH 66 73
BRANCH 69 78
ATOM     78   C  IDS B   4      23.573  20.064  25.7190  0.00  0.00     0.000 C
ATOM     79   O  IDS B   4      24.121  20.475  24.6970  0.00  0.00     0.000 OA
ATOM     80   O  IDS B   4      22.338  20.091  25.8700  0.00  0.00     0.000 OA
ENDBRANCH 69 78
BRANCH 65 81
ATOM     81  O4  SGN B   5      24.335  19.112  29.5340  0.00  0.00     0.000 O
BRANCH 81 85
ATOM     82  C1  SGN B   5      21.352  20.005  32.3520  0.00  0.00     0.000 C
ATOM     83  C2  SGN B   5      21.352  20.824  31.0530  0.00  0.00     0.000 C
ATOM     84  C3  SGN B   5      22.165  20.086  29.9800  0.00  0.00     0.000 C
ATOM     85  C4  SGN B   5      23.560  19.810  30.5120  0.00  0.00     0.000 C
ATOM     86  C5  SGN B   5      23.433  18.974  31.7830  0.00  0.00     0.000 C
ATOM     87  O5  SGN B   5      22.679  19.724  32.7550  0.00  0.00     0.000 O
ATOM     88   O  SGN B   5      22.216  20.859  28.8010  0.00  0.00     0.000 O
ATOM     90  HD  SGN B   5      21.701  20.174  28.9310  0.00  0.00     0.000 HD
BRANCH 83 92
ATOM     90   N  SGN B   5      20.895  22.215  31.2390  0.00  0.00     0.000 N
ATOM     92  HD  SGN B   5      21.429  22.772  30.8460  0.00  0.00     0.000 HD
ATOM     92   S  SGN B   5      19.338  22.526  31.0540  0.00  0.00     0.000 S
ATOM     93   O  SGN B   5      19.228  23.934  31.2900  0.00  0.00     0.000 OA
ATOM     94   O  SGN B   5      18.984  21.985  29.7860  0.00  0.00     0.000 OA
ATOM     95   O  SGN B   5      18.651  21.688  32.1100  0.00  0.00     0.000 OA
ENDBRANCH 83 92
BRANCH 86 96
ATOM     96   C  SGN B   5      24.757  18.610  32.4220  0.00  0.00     0.000 C
ATOM     97   O  SGN B   5      24.796  17.216  32.7380  0.00  0.00     0.000 O
ATOM     98   S  SGN B   5      26.082  16.411  32.2200  0.00  0.00     0.000 S
ATOM     99   O  SGN B   5      25.929  15.124  32.8550  0.00  0.00     0.000 OA
ATOM    100   O  SGN B   5      26.025  16.382  30.8020  0.00  0.00     0.000 OA
ATOM    101   O  SGN B   5      27.192  17.158  32.7160  0.00  0.00     0.000 OA
ENDBRANCH 86 96
BRANCH 82 102
ATOM    102  O4  IDS B   6      20.635  18.851  32.2460  0.00  0.00     0.000 O
BRANCH 102 106
ATOM    103  C1  IDS B   6      17.995  16.456  32.9900  0.00  0.00     0.000 C
ATOM    104  C2  IDS B   6      17.656  17.898  32.5830  0.00  0.00     0.000 C
ATOM    105  C3  IDS B   6      18.446  18.973  33.3050  0.00  0.00     0.000 C
ATOM    106  C4  IDS B   6      19.910  18.608  33.4780  0.00  0.00     0.000 C
ATOM    107  C5  IDS B   6      20.031  17.141  33.9020  0.00  0.00     0.000 C
ATOM    108  O5  IDS B   6      19.397  16.263  32.9700  0.00  0.00     0.000 O
ATOM    109   O  IDS B   6      17.832  19.202  34.5630  0.00  0.00     0.000 O
ATOM    111  HD  IDS B   6      17.398  18.468  34.7200  0.00  0.00     0.000 HD
BRANCH 104 111
ATOM    111   O  IDS B   6      17.967  18.080  31.1570  0.00  0.00     0.000 O
ATOM    112   S  IDS B   6      16.783  18.534  30.1800  0.00  0.00     0.000 S
ATOM    113   O  IDS B   6      15.774  17.496  30.3200  0.00  0.00     0.000 OA
ATOM    114   O  IDS B   6      16.341  19.876  30.5780  0.00  0.00     0.000 OA
ATOM    115   O  IDS B   6      17.493  18.498  28.9200  0.00  0.00     0.000 OA
ENDBRANCH 104 111
BRANCH 107 116
ATOM    116   C  IDS B   6      21.503  16.776  34.0370  0.00  0.00     0.000 C
ATOM    117   O  IDS B   6      21.976  16.096  33.1610  0.00  0.00     0.000 OA
ATOM    118   O  IDS B   6      22.166  17.149  34.9920  0.00  0.00     0.000 OA
ENDBRANCH 107 116
BRANCH 103 119
ATOM    119  O4  SGN B   7      17.272  16.263  34.1230  0.00  0.00     0.000 O
BRANCH 119 123
ATOM    120  C1  SGN B   7      15.212  13.080  35.8870  0.00  0.00     0.000 C
ATOM    121  C2  SGN B   7      16.730  13.168  36.1290  0.00  0.00     0.000 C
ATOM    122  C3  SGN B   7      17.251  14.566  35.7720  0.00  0.00     0.000 C
ATOM    123  C4  SGN B   7      16.832  14.925  34.3560  0.00  0.00     0.000 C
ATOM    124  C5  SGN B   7      15.306  14.800  34.2160  0.00  0.00     0.000 C
ATOM    125  O5  SGN B   7      14.860  13.469  34.5600  0.00  0.00     0.000 O
ATOM    126   O  SGN B   7      18.676  14.582  35.9140  0.00  0.00     0.000 O
ATOM    128  HD  SGN B   7      17.929  14.165  36.0450  0.00  0.00     0.000 HD
BRANCH 121 130
ATOM    128   N  SGN B   7      17.038  11.782  36.4920  0.00  0.00     0.000 N
ATOM    130  HD  SGN B   7      17.885  11.958  36.4760  0.00  0.00     0.000 HD
ATOM    130   S  SGN B   7      17.566  11.375  37.9580  0.00  0.00     0.000 S
ATOM    131   O  SGN B   7      16.654  11.983  38.8650  0.00  0.00     0.000 OA
ATOM    132   O  SGN B   7      17.775   9.972  37.9830  0.00  0.00     0.000 OA
ATOM    133   O  SGN B   7      19.007  11.989  37.9170  0.00  0.00     0.000 OA
ENDBRANCH 121 130
BRANCH 124 134
ATOM    134   C  SGN B   7      14.804  15.022  32.8200  0.00  0.00     0.000 C
ATOM    135   O  SGN B   7      14.565  13.742  32.2100  0.00  0.00     0.000 O
ATOM    136   S  SGN B   7      13.888  13.758  30.7920  0.00  0.00     0.000 S
ATOM    137   O  SGN B   7      13.848  12.386  30.3460  0.00  0.00     0.000 OA
ATOM    138   O  SGN B   7      14.741  14.592  29.9750  0.00  0.00     0.000 OA
ATOM    139   O  SGN B   7      12.581  14.328  31.0760  0.00  0.00     0.000 OA
ENDBRANCH 124 134
BRANCH 120 140
ATOM    140  O4  IDS B   8      14.234  13.704  36.5530  0.00  0.00     0.000 O
BRANCH 140 144
ATOM    141  C1  IDS B   8      11.706  12.641  38.8860  0.00  0.00     0.000 C
ATOM    142  C2  IDS B   8      12.130  11.733  37.6970  0.00  0.00     0.000 C
ATOM    143  C3  IDS B   8      12.160  12.477  36.3490  0.00  0.00     0.000 C
ATOM    144  C4  IDS B   8      12.812  13.854  36.4700  0.00  0.00     0.000 C
ATOM    145  C5  IDS B   8      12.283  14.583  37.7140  0.00  0.00     0.000 C
ATOM    146  O5  IDS B   8      12.498  13.823  38.9010  0.00  0.00     0.000 O
BRANCH 142 147
ATOM    147   O  IDS B   8      13.499  11.206  37.9390  0.00  0.00     0.000 O
ATOM    148   S  IDS B   8      13.887   9.678  37.5560  0.00  0.00     0.000 S
ATOM    149   O  IDS B   8      12.654   8.948  37.3660  0.00  0.00     0.000 OA
ATOM    150   O  IDS B   8      14.676   9.772  36.3420  0.00  0.00     0.000 OA
ATOM    151   O  IDS B   8      14.643   9.180  38.6890  0.00  0.00     0.000 OA
ENDBRANCH 142 147
BRANCH 145 152
ATOM    152   C  IDS B   8      12.967  15.916  37.9430  0.00  0.00     0.000 C
ATOM    153   O  IDS B   8      12.447  16.942  37.5200  0.00  0.00     0.000 OA
ATOM    154   O  IDS B   8      14.014  15.957  38.5630  0.00  0.00     0.000 OA
ENDBRANCH 145 152
ENDBRANCH 140 144
ENDBRANCH 120 140
ENDBRANCH 119 123
ENDBRANCH 103 119
ENDBRANCH 102 106
ENDBRANCH 82 102
ENDBRANCH 81 85
ENDBRANCH 65 81
ENDBRANCH 64 68
ENDBRANCH 41 64
ENDBRANCH 40 44
ENDBRANCH 24 40
ENDBRANCH 23 27
ENDBRANCH 1 23
TORSDOF 31
ENDMDL
MODEL 85
REMARK VINA RESULT:      -6.7      8.912     17.099
ROOT
ATOM      1  C1  SGN B   1      25.754  17.007  23.1790  0.00  0.00     0.000 C
ATOM      2  C2  SGN B   1      27.166  17.521  23.5030  0.00  0.00     0.000 C
ATOM      3  C3  SGN B   1      27.634  18.526  22.4460  0.00  0.00     0.000 C
ATOM      4  C4  SGN B   1      27.559  17.902  21.0560  0.00  0.00     0.000 C
ATOM      5  C5  SGN B   1      26.175  17.288  20.8590  0.00  0.00     0.000 C
ATOM      6  O5  SGN B   1      25.904  16.357  21.9240  0.00  0.00     0.000 O
ATOM      7   O  SGN B   1      28.958  18.965  22.7250  0.00  0.00     0.000 O
ATOM      9  HD  SGN B   1      29.075  18.115  22.6130  0.00  0.00     0.000 HD
ATOM      9   O  SGN B   1      27.796  18.899  20.0790  0.00  0.00     0.000 O
ATOM     11  HD  SGN B   1      27.912  18.048  19.9680  0.00  0.00     0.000 HD
ENDROOT
BRANCH 2 13
ATOM     11   N  SGN B   1      27.510  16.821  24.7560  0.00  0.00     0.000 N
ATOM     13  HD  SGN B   1      26.759  17.245  24.6810  0.00  0.00     0.000 HD
ATOM     13   S  SGN B   1      26.951  17.297  26.1870  0.00  0.00     0.000 S
ATOM     14   O  SGN B   1      26.086  18.399  26.0290  0.00  0.00     0.000 OA
ATOM     15   O  SGN B   1      26.499  16.148  26.8990  0.00  0.00     0.000 OA
ATOM     16   O  SGN B   1      28.308  17.728  26.8250  0.00  0.00     0.000 OA
ENDBRANCH 2 13
BRANCH 5 17
ATOM     17   C  SGN B   1      26.014  16.542  19.5570  0.00  0.00     0.000 C
ATOM     18   O  SGN B   1      24.623  16.285  19.2800  0.00  0.00     0.000 O
ATOM     19   S  SGN B   1      24.268  14.806  18.7850  0.00  0.00     0.000 S
ATOM     20   O  SGN B   1      22.887  14.875  18.3580  0.00  0.00     0.000 OA
ATOM     21   O  SGN B   1      25.196  14.564  17.7050  0.00  0.00     0.000 OA
ATOM     22   O  SGN B   1      24.476  13.961  19.9400  0.00  0.00     0.000 OA
ENDBRANCH 5 17
BRANCH 1 23
ATOM     23  O4  IDS B   2      24.444  17.304  23.4170  0.00  0.00     0.000 O
BRANCH 23 27
ATOM     24  C1  IDS B   2      20.843  19.346  23.1160  0.00  0.00     0.000 C
ATOM     25  C2  IDS B   2      22.064  20.052  22.4870  0.00  0.00     0.000 C
ATOM     26  C3  IDS B   2      23.253  19.100  22.3880  0.00  0.00     0.000 C
ATOM     27  C4  IDS B   2      23.628  18.456  23.7160  0.00  0.00     0.000 C
ATOM     28  C5  IDS B   2      22.355  18.142  24.5280  0.00  0.00     0.000 C
ATOM     29  O5  IDS B   2      21.216  18.082  23.6820  0.00  0.00     0.000 O
ATOM     30   O  IDS B   2      24.390  19.818  21.9230  0.00  0.00     0.000 O
ATOM     32  HD  IDS B   2      24.777  20.284  22.5410  0.00  0.00     0.000 HD
BRANCH 25 32
ATOM     32   O  IDS B   2      21.779  20.557  21.1220  0.00  0.00     0.000 O
ATOM     33   S  IDS B   2      21.839  22.165  20.7570  0.00  0.00     0.000 S
ATOM     34   O  IDS B   2      21.290  22.297  19.4160  0.00  0.00     0.000 OA
ATOM     35   O  IDS B   2      21.053  22.911  21.7290  0.00  0.00     0.000 OA
ATOM     36   O  IDS B   2      23.238  22.521  20.7900  0.00  0.00     0.000 OA
ENDBRANCH 25 32
BRANCH 28 37
ATOM     37   C  IDS B   2      22.363  16.885  25.4220  0.00  0.00     0.000 C
ATOM     38   O  IDS B   2      21.274  16.366  25.5070  0.00  0.00     0.000 OA
ATOM     39   O  IDS B   2      23.358  16.359  25.9770  0.00  0.00     0.000 OA
ENDBRANCH 28 37
BRANCH 24 40
ATOM     40  O4  SUS B   3      19.711  20.042  23.3520  0.00  0.00     0.000 O
BRANCH 40 44
ATOM     41  C1  SUS B   3      15.839  18.896  22.2380  0.00  0.00     0.000 C
ATOM     42  C2  SUS B   3      16.145  18.971  23.7470  0.00  0.00     0.000 C
ATOM     43  C3  SUS B   3      17.382  19.838  23.9660  0.00  0.00     0.000 C
ATOM     44  C4  SUS B   3      18.526  19.285  23.1310  0.00  0.00     0.000 C
ATOM     45  C5  SUS B   3      18.139  19.349  21.6670  0.00  0.00     0.000 C
ATOM     46  O5  SUS B   3      16.984  18.509  21.4700  0.00  0.00     0.000 O
BRANCH 42 49
ATOM     47   N  SUS B   3      14.913  19.405  24.4290  0.00  0.00     0.000 N
ATOM     49  HD  SUS B   3      14.972  20.118  24.9170  0.00  0.00     0.000 HD
ATOM     49   S  SUS B   3      14.258  18.244  25.3180  0.00  0.00     0.000 S
ATOM     50   O  SUS B   3      15.190  17.786  26.2710  0.00  0.00     0.000 OA
ATOM     51   O  SUS B   3      13.175  19.125  25.9930  0.00  0.00     0.000 OA
ATOM     52   O  SUS B   3      13.664  17.287  24.4720  0.00  0.00     0.000 OA
ENDBRANCH 42 49
BRANCH 43 53
ATOM     53   O  SUS B   3      17.733  19.777  25.3990  0.00  0.00     0.000 O
ATOM     54   S  SUS B   3      17.519  21.147  26.2820  0.00  0.00     0.000 S
ATOM     55   O  SUS B   3      16.085  21.350  26.4330  0.00  0.00     0.000 OA
ATOM     56   O  SUS B   3      18.207  20.871  27.5310  0.00  0.00     0.000 OA
ATOM     57   O  SUS B   3      18.131  22.235  25.5130  0.00  0.00     0.000 OA
ENDBRANCH 43 53
BRANCH 45 58
ATOM     58   C  SUS B   3      19.268  18.906  20.7630  0.00  0.00     0.000 C
ATOM     59   S  SUS B   3      20.385  16.816  19.7790  0.00  0.00     0.000 S
ATOM     60   O  SUS B   3      19.164  17.492  20.5280  0.00  0.00     0.000 O
ATOM     61   O  SUS B   3      21.416  16.672  20.7880  0.00  0.00     0.000 OA
ATOM     62   O  SUS B   3      19.801  15.558  19.3970  0.00  0.00     0.000 OA
ATOM     63   O  SUS B   3      20.703  17.689  18.7050  0.00  0.00     0.000 OA
ENDBRANCH 45 58
BRANCH 41 64
ATOM     64  O4  IDS B   4      15.182  19.999  21.7510  0.00  0.00     0.000 O
BRANCH 64 68
ATOM     65  C1  IDS B   4      12.559  21.755  19.9310  0.00  0.00     0.000 C
ATOM     66  C2  IDS B   4      12.229  20.489  20.7320  0.00  0.00     0.000 C
ATOM     67  C3  IDS B   4      13.194  19.337  20.5110  0.00  0.00     0.000 C
ATOM     68  C4  IDS B   4      14.640  19.786  20.4280  0.00  0.00     0.000 C
ATOM     69  C5  IDS B   4      14.702  21.033  19.5350  0.00  0.00     0.000 C
ATOM     70  O5  IDS B   4      13.924  22.075  20.1270  0.00  0.00     0.000 O
ATOM     71   O  IDS B   4      12.821  18.703  19.3050  0.00  0.00     0.000 O
ATOM     73  HD  IDS B   4      12.706  19.214  19.9940  0.00  0.00     0.000 HD
BRANCH 66 73
ATOM     73   O  IDS B   4      12.314  20.801  22.1650  0.00  0.00     0.000 O
ATOM     74   S  IDS B   4      10.980  20.614  23.0620  0.00  0.00     0.000 S
ATOM     75   O  IDS B   4       9.955  21.429  22.4470  0.00  0.00     0.000 OA
ATOM     76   O  IDS B   4      11.419  21.094  24.3490  0.00  0.00     0.000 OA
ATOM     77   O  IDS B   4      10.686  19.201  23.0250  0.00  0.00     0.000 OA
ENDBRANCH 66 73
BRANCH 69 78
ATOM     78   C  IDS B   4      16.113  21.478  19.1730  0.00  0.00     0.000 C
ATOM     79   O  IDS B   4      16.414  22.662  19.3180  0.00  0.00     0.000 OA
ATOM     80   O  IDS B   4      16.945  20.613  18.8440  0.00  0.00     0.000 OA
ENDBRANCH 69 78
BRANCH 65 81
ATOM     81  O4  SGN B   5      12.145  21.596  18.6430  0.00  0.00     0.000 O
BRANCH 81 85
ATOM     82  C1  SGN B   5      11.226  23.847  15.2180  0.00  0.00     0.000 C
ATOM     83  C2  SGN B   5      12.262  24.440  16.1860  0.00  0.00     0.000 C
ATOM     84  C3  SGN B   5      12.812  23.330  17.0920  0.00  0.00     0.000 C
ATOM     85  C4  SGN B   5      11.658  22.643  17.8000  0.00  0.00     0.000 C
ATOM     86  C5  SGN B   5      10.714  22.077  16.7410  0.00  0.00     0.000 C
ATOM     87  O5  SGN B   5      10.217  23.164  15.9370  0.00  0.00     0.000 O
ATOM     88   O  SGN B   5      13.722  23.876  18.0210  0.00  0.00     0.000 O
ATOM     90  HD  SGN B   5      13.937  23.444  17.3020  0.00  0.00     0.000 HD
BRANCH 83 92
ATOM     90   N  SGN B   5      12.159  25.496  15.1600  0.00  0.00     0.000 N
ATOM     92  HD  SGN B   5      11.332  25.706  15.0120  0.00  0.00     0.000 HD
ATOM     92   S  SGN B   5      13.165  26.735  15.2540  0.00  0.00     0.000 S
ATOM     93   O  SGN B   5      12.809  27.565  14.1430  0.00  0.00     0.000 OA
ATOM     94   O  SGN B   5      13.044  27.230  16.5820  0.00  0.00     0.000 OA
ATOM     95   O  SGN B   5      14.542  26.122  15.1240  0.00  0.00     0.000 OA
ENDBRANCH 83 92
BRANCH 86 96
ATOM     96   C  SGN B   5       9.513  21.348  17.3060  0.00  0.00     0.000 C
ATOM     97   O  SGN B   5       9.291  20.124  16.6010  0.00  0.00     0.000 O
ATOM     98   S  SGN B   5       9.127  18.809  17.5030  0.00  0.00     0.000 S
ATOM     99   O  SGN B   5       8.721  17.812  16.5420  0.00  0.00     0.000 OA
ATOM    100   O  SGN B   5      10.379  18.558  18.1230  0.00  0.00     0.000 OA
ATOM    101   O  SGN B   5       8.102  19.144  18.4370  0.00  0.00     0.000 OA
ENDBRANCH 86 96
BRANCH 82 102
ATOM    102  O4  IDS B   6      11.788  23.022  14.2890  0.00  0.00     0.000 O
BRANCH 102 106
ATOM    103  C1  IDS B   6      12.797  22.059  10.9260  0.00  0.00     0.000 C
ATOM    104  C2  IDS B   6      13.022  23.492  11.4340  0.00  0.00     0.000 C
ATOM    105  C3  IDS B   6      11.826  24.126  12.1190  0.00  0.00     0.000 C
ATOM    106  C4  IDS B   6      11.088  23.157  13.0260  0.00  0.00     0.000 C
ATOM    107  C5  IDS B   6      10.952  21.799  12.3310  0.00  0.00     0.000 C
ATOM    108  O5  IDS B   6      12.221  21.267  11.9480  0.00  0.00     0.000 O
ATOM    109   O  IDS B   6      10.962  24.635  11.1170  0.00  0.00     0.000 O
ATOM    111  HD  IDS B   6      11.164  24.174  10.4130  0.00  0.00     0.000 HD
BRANCH 104 111
ATOM    111   O  IDS B   6      14.088  23.480  12.4470  0.00  0.00     0.000 O
ATOM    112   S  IDS B   6      15.465  24.220  12.0990  0.00  0.00     0.000 S
ATOM    113   O  IDS B   6      15.942  23.559  10.8950  0.00  0.00     0.000 OA
ATOM    114   O  IDS B   6      15.194  25.654  11.9450  0.00  0.00     0.000 OA
ATOM    115   O  IDS B   6      16.216  23.887  13.2900  0.00  0.00     0.000 OA
ENDBRANCH 104 111
BRANCH 107 116
ATOM    116   C  IDS B   6      10.243  20.825  13.2630  0.00  0.00     0.000 C
ATOM    117   O  IDS B   6       9.084  21.049  13.5010  0.00  0.00     0.000 OA
ATOM    118   O  IDS B   6      10.829  19.871  13.7490  0.00  0.00     0.000 OA
ENDBRANCH 107 116
BRANCH 103 119
ATOM    119  O4  SGN B   7      12.173  22.236   9.7330  0.00  0.00     0.000 O
BRANCH 119 123
ATOM    120  C1  SGN B   7      12.025  19.881   6.2800  0.00  0.00     0.000 C
ATOM    121  C2  SGN B   7      10.709  20.104   7.0480  0.00  0.00     0.000 C
ATOM    122  C3  SGN B   7      10.847  21.283   8.0210  0.00  0.00     0.000 C
ATOM    123  C4  SGN B   7      12.054  21.069   8.9180  0.00  0.00     0.000 C
ATOM    124  C5  SGN B   7      13.311  20.850   8.0590  0.00  0.00     0.000 C
ATOM    125  O5  SGN B   7      13.137  19.731   7.1610  0.00  0.00     0.000 O
ATOM    126   O  SGN B   7       9.642  21.399   8.7860  0.00  0.00     0.000 O
ATOM    128  HD  SGN B   7      10.057  21.036   8.1180  0.00  0.00     0.000 HD
BRANCH 121 130
ATOM    128   N  SGN B   7      10.035  19.842   5.7740  0.00  0.00     0.000 N
ATOM    130  HD  SGN B   7      10.187  18.994   5.8590  0.00  0.00     0.000 HD
ATOM    130   S  SGN B   7       8.579  19.158   5.6960  0.00  0.00     0.000 S
ATOM    131   O  SGN B   7       7.768  19.906   6.5950  0.00  0.00     0.000 OA
ATOM    132   O  SGN B   7       8.215  19.038   4.3310  0.00  0.00     0.000 OA
ATOM    133   O  SGN B   7       8.931  17.698   6.1410  0.00  0.00     0.000 OA
ENDBRANCH 121 130
BRANCH 124 134
ATOM    134   C  SGN B   7      14.538  20.515   8.8550  0.00  0.00     0.000 C
ATOM    135   O  SGN B   7      15.039  19.242   8.4100  0.00  0.00     0.000 O
ATOM    136   S  SGN B   7      16.413  18.780   9.0150  0.00  0.00     0.000 S
ATOM    137   O  SGN B   7      16.653  17.450   8.5090  0.00  0.00     0.000 OA
ATOM    138   O  SGN B   7      16.226  18.814  10.4480  0.00  0.00     0.000 OA
ATOM    139   O  SGN B   7      17.333  19.784   8.5030  0.00  0.00     0.000 OA
ENDBRANCH 124 134
BRANCH 120 140
ATOM    140  O4  IDS B   8      12.589  20.677   5.3650  0.00  0.00     0.000 O
BRANCH 140 144
ATOM    141  C1  IDS B   8      13.419  21.833   2.0580  0.00  0.00     0.000 C
ATOM    142  C2  IDS B   8      13.308  20.313   2.3690  0.00  0.00     0.000 C
ATOM    143  C3  IDS B   8      14.086  19.898   3.6320  0.00  0.00     0.000 C
ATOM    144  C4  IDS B   8      13.881  20.884   4.7810  0.00  0.00     0.000 C
ATOM    145  C5  IDS B   8      14.004  22.327   4.2690  0.00  0.00     0.000 C
ATOM    146  O5  IDS B   8      13.084  22.592   3.2130  0.00  0.00     0.000 O
BRANCH 142 147
ATOM    147   O  IDS B   8      11.883  19.956   2.5930  0.00  0.00     0.000 O
ATOM    148   S  IDS B   8      11.332  18.467   2.2600  0.00  0.00     0.000 S
ATOM    149   O  IDS B   8      12.309  17.817   1.4140  0.00  0.00     0.000 OA
ATOM    150   O  IDS B   8      11.181  17.813   3.5470  0.00  0.00     0.000 OA
ATOM    151   O  IDS B   8      10.071  18.671   1.5730  0.00  0.00     0.000 OA
ENDBRANCH 142 147
BRANCH 145 152
ATOM    152   C  IDS B   8      13.713  23.354   5.3440  0.00  0.00     0.000 C
ATOM    153   O  IDS B   8      12.552  23.661   5.5880  0.00  0.00     0.000 OA
ATOM    154   O  IDS B   8      14.634  23.849   5.9690  0.00  0.00     0.000 OA
ENDBRANCH 145 152
ENDBRANCH 140 144
ENDBRANCH 120 140
ENDBRANCH 119 123
ENDBRANCH 103 119
ENDBRANCH 102 106
ENDBRANCH 82 102
ENDBRANCH 81 85
ENDBRANCH 65 81
ENDBRANCH 64 68
ENDBRANCH 41 64
ENDBRANCH 40 44
ENDBRANCH 24 40
ENDBRANCH 23 27
ENDBRANCH 1 23
TORSDOF 31
ENDMDL
MODEL 86
REMARK VINA RESULT:      -6.7      9.326     13.107
ROOT
ATOM      1  C1  SGN B   1      34.736  19.078  24.7920  0.00  0.00     0.000 C
ATOM      2  C2  SGN B   1      35.621  17.918  24.3070  0.00  0.00     0.000 C
ATOM      3  C3  SGN B   1      36.948  18.444  23.7510  0.00  0.00     0.000 C
ATOM      4  C4  SGN B   1      36.689  19.463  22.6460  0.00  0.00     0.000 C
ATOM      5  C5  SGN B   1      35.693  20.504  23.1520  0.00  0.00     0.000 C
ATOM      6  O5  SGN B   1      34.501  19.844  23.6180  0.00  0.00     0.000 O
ATOM      7   O  SGN B   1      37.746  17.371  23.2620  0.00  0.00     0.000 O
ATOM      9  HD  SGN B   1      37.044  17.312  22.7590  0.00  0.00     0.000 HD
ATOM      9   O  SGN B   1      37.908  20.087  22.2860  0.00  0.00     0.000 O
ATOM     11  HD  SGN B   1      37.206  20.027  21.7830  0.00  0.00     0.000 HD
ENDROOT
BRANCH 2 13
ATOM     11   N  SGN B   1      34.611  16.915  24.6930  0.00  0.00     0.000 N
ATOM     13  HD  SGN B   1      35.052  17.350  25.2980  0.00  0.00     0.000 HD
ATOM     13   S  SGN B   1      34.701  16.090  26.0720  0.00  0.00     0.000 S
ATOM     14   O  SGN B   1      35.821  16.514  26.8190  0.00  0.00     0.000 OA
ATOM     15   O  SGN B   1      33.414  16.088  26.6810  0.00  0.00     0.000 OA
ATOM     16   O  SGN B   1      34.927  14.670  25.4680  0.00  0.00     0.000 OA
ENDBRANCH 2 13
BRANCH 5 17
ATOM     17   C  SGN B   1      35.272  21.509  22.1080  0.00  0.00     0.000 C
ATOM     18   O  SGN B   1      34.953  20.856  20.8640  0.00  0.00     0.000 O
ATOM     19   S  SGN B   1      35.551  21.531  19.5430  0.00  0.00     0.000 S
ATOM     20   O  SGN B   1      34.905  20.843  18.4450  0.00  0.00     0.000 OA
ATOM     21   O  SGN B   1      35.174  22.921  19.6570  0.00  0.00     0.000 OA
ATOM     22   O  SGN B   1      36.977  21.300  19.6140  0.00  0.00     0.000 OA
ENDBRANCH 5 17
BRANCH 1 23
ATOM     23  O4  IDS B   2      34.487  19.817  25.9110  0.00  0.00     0.000 O
BRANCH 23 27
ATOM     24  C1  IDS B   2      31.040  19.202  28.1410  0.00  0.00     0.000 C
ATOM     25  C2  IDS B   2      30.842  19.935  26.7960  0.00  0.00     0.000 C
ATOM     26  C3  IDS B   2      32.099  19.844  25.9350  0.00  0.00     0.000 C
ATOM     27  C4  IDS B   2      33.355  20.339  26.6380  0.00  0.00     0.000 C
ATOM     28  C5  IDS B   2      33.316  19.942  28.1280  0.00  0.00     0.000 C
ATOM     29  O5  IDS B   2      32.419  18.863  28.3420  0.00  0.00     0.000 O
ATOM     30   O  IDS B   2      31.923  20.633  24.7640  0.00  0.00     0.000 O
ATOM     32  HD  IDS B   2      32.042  21.479  24.9010  0.00  0.00     0.000 HD
BRANCH 25 32
ATOM     32   O  IDS B   2      29.718  19.371  26.0100  0.00  0.00     0.000 O
ATOM     33   S  IDS B   2      29.877  17.981  25.1350  0.00  0.00     0.000 S
ATOM     34   O  IDS B   2      28.668  17.866  24.3340  0.00  0.00     0.000 OA
ATOM     35   O  IDS B   2      31.064  18.069  24.2970  0.00  0.00     0.000 OA
ATOM     36   O  IDS B   2      29.967  16.916  26.1070  0.00  0.00     0.000 OA
ENDBRANCH 25 32
BRANCH 28 37
ATOM     37   C  IDS B   2      34.654  19.606  28.8190  0.00  0.00     0.000 C
ATOM     38   O  IDS B   2      34.768  18.428  29.0680  0.00  0.00     0.000 OA
ATOM     39   O  IDS B   2      35.596  20.397  29.0660  0.00  0.00     0.000 OA
ENDBRANCH 28 37
BRANCH 24 40
ATOM     40  O4  SUS B   3      30.063  19.227  29.0710  0.00  0.00     0.000 O
BRANCH 40 44
ATOM     41  C1  SUS B   3      28.499  16.147  31.4410  0.00  0.00     0.000 C
ATOM     42  C2  SUS B   3      29.994  16.483  31.6170  0.00  0.00     0.000 C
ATOM     43  C3  SUS B   3      30.263  17.883  31.0690  0.00  0.00     0.000 C
ATOM     44  C4  SUS B   3      29.780  17.949  29.6290  0.00  0.00     0.000 C
ATOM     45  C5  SUS B   3      28.287  17.693  29.6000  0.00  0.00     0.000 C
ATOM     46  O5  SUS B   3      28.049  16.361  30.0990  0.00  0.00     0.000 O
BRANCH 42 49
ATOM     47   N  SUS B   3      30.208  16.150  33.0360  0.00  0.00     0.000 N
ATOM     49  HD  SUS B   3      30.411  16.808  33.5610  0.00  0.00     0.000 HD
ATOM     49   S  SUS B   3      31.299  14.995  33.2410  0.00  0.00     0.000 S
ATOM     50   O  SUS B   3      32.522  15.380  32.6550  0.00  0.00     0.000 OA
ATOM     51   O  SUS B   3      31.378  15.095  34.7860  0.00  0.00     0.000 OA
ATOM     52   O  SUS B   3      30.749  13.758  32.8500  0.00  0.00     0.000 OA
ENDBRANCH 42 49
BRANCH 43 53
ATOM     53   O  SUS B   3      31.719  18.119  31.1220  0.00  0.00     0.000 O
ATOM     54   S  SUS B   3      32.265  19.184  32.2490  0.00  0.00     0.000 S
ATOM     55   O  SUS B   3      32.116  18.553  33.5530  0.00  0.00     0.000 OA
ATOM     56   O  SUS B   3      33.646  19.422  31.8680  0.00  0.00     0.000 OA
ATOM     57   O  SUS B   3      31.420  20.377  32.1370  0.00  0.00     0.000 OA
ENDBRANCH 43 53
BRANCH 45 58
ATOM     58   C  SUS B   3      27.714  17.841  28.2080  0.00  0.00     0.000 C
ATOM     59   S  SUS B   3      25.872  16.944  26.6620  0.00  0.00     0.000 S
ATOM     60   O  SUS B   3      26.497  17.082  28.1110  0.00  0.00     0.000 O
ATOM     61   O  SUS B   3      26.672  15.933  25.9980  0.00  0.00     0.000 OA
ATOM     62   O  SUS B   3      24.548  16.483  26.9850  0.00  0.00     0.000 OA
ATOM     63   O  SUS B   3      25.941  18.244  26.0940  0.00  0.00     0.000 OA
ENDBRANCH 45 58
BRANCH 41 64
ATOM     64  O4  IDS B   4      27.690  16.705  32.4000  0.00  0.00     0.000 O
BRANCH 64 68
ATOM     65  C1  IDS B   4      24.923  16.366  34.7460  0.00  0.00     0.000 C
ATOM     66  C2  IDS B   4      25.684  15.124  34.2640  0.00  0.00     0.000 C
ATOM     67  C3  IDS B   4      25.919  15.075  32.7640  0.00  0.00     0.000 C
ATOM     68  C4  IDS B   4      26.290  16.425  32.1800  0.00  0.00     0.000 C
ATOM     69  C5  IDS B   4      25.353  17.480  32.7840  0.00  0.00     0.000 C
ATOM     70  O5  IDS B   4      25.539  17.519  34.2010  0.00  0.00     0.000 O
ATOM     71   O  IDS B   4      24.727  14.608  32.1680  0.00  0.00     0.000 O
ATOM     73  HD  IDS B   4      25.281  14.742  32.8190  0.00  0.00     0.000 HD
BRANCH 66 73
ATOM     73   O  IDS B   4      27.022  15.125  34.8710  0.00  0.00     0.000 O
ATOM     74   S  IDS B   4      27.385  13.939  35.9090  0.00  0.00     0.000 S
ATOM     75   O  IDS B   4      26.380  13.984  36.9500  0.00  0.00     0.000 OA
ATOM     76   O  IDS B   4      28.703  14.324  36.3490  0.00  0.00     0.000 OA
ATOM     77   O  IDS B   4      27.350  12.723  35.1330  0.00  0.00     0.000 OA
ENDBRANCH 66 73
BRANCH 69 78
ATOM     78   C  IDS B   4      25.452  18.854  32.1360  0.00  0.00     0.000 C
ATOM     79   O  IDS B   4      25.663  19.832  32.8520  0.00  0.00     0.000 OA
ATOM     80   O  IDS B   4      25.422  18.930  30.8940  0.00  0.00     0.000 OA
ENDBRANCH 69 78
BRANCH 65 81
ATOM     81  O4  SGN B   5      23.593  16.207  34.4970  0.00  0.00     0.000 O
BRANCH 81 85
ATOM     82  C1  SGN B   5      19.764  16.910  36.0740  0.00  0.00     0.000 C
ATOM     83  C2  SGN B   5      20.449  18.082  35.3560  0.00  0.00     0.000 C
ATOM     84  C3  SGN B   5      21.579  17.548  34.4640  0.00  0.00     0.000 C
ATOM     85  C4  SGN B   5      22.536  16.724  35.3080  0.00  0.00     0.000 C
ATOM     86  C5  SGN B   5      21.749  15.583  35.9480  0.00  0.00     0.000 C
ATOM     87  O5  SGN B   5      20.719  16.144  36.7850  0.00  0.00     0.000 O
ATOM     88   O  SGN B   5      22.250  18.624  33.8450  0.00  0.00     0.000 O
ATOM     90  HD  SGN B   5      21.663  18.113  33.4660  0.00  0.00     0.000 HD
BRANCH 83 92
ATOM     90   N  SGN B   5      19.128  18.650  35.6860  0.00  0.00     0.000 N
ATOM     92  HD  SGN B   5      18.875  18.409  36.4790  0.00  0.00     0.000 HD
ATOM     92   S  SGN B   5      18.857  20.184  35.3270  0.00  0.00     0.000 S
ATOM     93   O  SGN B   5      17.517  20.421  35.7720  0.00  0.00     0.000 OA
ATOM     94   O  SGN B   5      19.938  20.910  35.9000  0.00  0.00     0.000 OA
ATOM     95   O  SGN B   5      19.010  20.259  33.8240  0.00  0.00     0.000 OA
ENDBRANCH 83 92
BRANCH 86 96
ATOM     96   C  SGN B   5      22.584  14.664  36.8160  0.00  0.00     0.000 C
ATOM     97   O  SGN B   5      23.350  15.420  37.7570  0.00  0.00     0.000 O
ATOM     98   S  SGN B   5      23.244  14.957  39.2890  0.00  0.00     0.000 S
ATOM     99   O  SGN B   5      24.258  15.756  39.9330  0.00  0.00     0.000 OA
ATOM    100   O  SGN B   5      21.918  15.220  39.7220  0.00  0.00     0.000 OA
ATOM    101   O  SGN B   5      23.554  13.565  39.2610  0.00  0.00     0.000 OA
ENDBRANCH 86 96
BRANCH 82 102
ATOM    102  O4  IDS B   6      19.057  16.115  35.2230  0.00  0.00     0.000 O
BRANCH 102 106
ATOM    103  C1  IDS B   6      15.770  14.744  34.4660  0.00  0.00     0.000 C
ATOM    104  C2  IDS B   6      15.915  16.000  35.3380  0.00  0.00     0.000 C
ATOM    105  C3  IDS B   6      16.956  15.903  36.4370  0.00  0.00     0.000 C
ATOM    106  C4  IDS B   6      18.224  15.202  35.9830  0.00  0.00     0.000 C
ATOM    107  C5  IDS B   6      17.863  13.970  35.1480  0.00  0.00     0.000 C
ATOM    108  O5  IDS B   6      17.042  14.308  34.0280  0.00  0.00     0.000 O
ATOM    109   O  IDS B   6      16.373  15.227  37.5390  0.00  0.00     0.000 O
ATOM    111  HD  IDS B   6      15.726  14.772  37.1860  0.00  0.00     0.000 HD
BRANCH 104 111
ATOM    111   O  IDS B   6      16.346  17.124  34.4920  0.00  0.00     0.000 O
ATOM    112   S  IDS B   6      15.229  18.139  33.9610  0.00  0.00     0.000 S
ATOM    113   O  IDS B   6      14.303  17.305  33.2110  0.00  0.00     0.000 OA
ATOM    114   O  IDS B   6      14.637  18.824  35.1160  0.00  0.00     0.000 OA
ATOM    115   O  IDS B   6      16.058  18.988  33.1330  0.00  0.00     0.000 OA
ENDBRANCH 104 111
BRANCH 107 116
ATOM    116   C  IDS B   6      19.141  13.295  34.6670  0.00  0.00     0.000 C
ATOM    117   O  IDS B   6      19.812  12.746  35.5040  0.00  0.00     0.000 OA
ATOM    118   O  IDS B   6      19.470  13.320  33.4920  0.00  0.00     0.000 OA
ENDBRANCH 107 116
BRANCH 103 119
ATOM    119  O4  SGN B   7      14.960  13.936  35.1980  0.00  0.00     0.000 O
BRANCH 119 123
ATOM    120  C1  SGN B   7      12.581  10.613  34.3110  0.00  0.00     0.000 C
ATOM    121  C2  SGN B   7      13.928  10.359  35.0130  0.00  0.00     0.000 C
ATOM    122  C3  SGN B   7      14.473  11.659  35.6190  0.00  0.00     0.000 C
ATOM    123  C4  SGN B   7      14.529  12.739  34.5510  0.00  0.00     0.000 C
ATOM    124  C5  SGN B   7      13.144  12.911  33.9080  0.00  0.00     0.000 C
ATOM    125  O5  SGN B   7      12.671  11.664  33.3500  0.00  0.00     0.000 O
ATOM    126   O  SGN B   7      15.768  11.407  36.1750  0.00  0.00     0.000 O
ATOM    128  HD  SGN B   7      15.039  11.087  35.8330  0.00  0.00     0.000 HD
BRANCH 121 130
ATOM    128   N  SGN B   7      13.323   9.056  35.3000  0.00  0.00     0.000 N
ATOM    130  HD  SGN B   7      13.661   8.730  34.5720  0.00  0.00     0.000 HD
ATOM    130   S  SGN B   7      14.193   7.792  35.7870  0.00  0.00     0.000 S
ATOM    131   O  SGN B   7      14.977   8.276  36.8720  0.00  0.00     0.000 OA
ATOM    132   O  SGN B   7      13.318   6.691  35.9700  0.00  0.00     0.000 OA
ATOM    133   O  SGN B   7      14.973   7.463  34.4690  0.00  0.00     0.000 OA
ENDBRANCH 121 130
BRANCH 124 134
ATOM    134   C  SGN B   7      13.123  13.876  32.7590  0.00  0.00     0.000 C
ATOM    135   O  SGN B   7      13.471  13.166  31.5580  0.00  0.00     0.000 O
ATOM    136   S  SGN B   7      13.357  13.969  30.2130  0.00  0.00     0.000 S
ATOM    137   O  SGN B   7      13.851  13.095  29.1750  0.00  0.00     0.000 OA
ATOM    138   O  SGN B   7      14.180  15.142  30.4010  0.00  0.00     0.000 OA
ATOM    139   O  SGN B   7      11.931  14.240  30.1300  0.00  0.00     0.000 OA
ENDBRANCH 124 134
BRANCH 120 140
ATOM    140  O4  IDS B   8      11.411  10.940  34.8690  0.00  0.00     0.000 O
BRANCH 140 144
ATOM    141  C1  IDS B   8       8.098  10.027  35.9420  0.00  0.00     0.000 C
ATOM    142  C2  IDS B   8       8.734   9.384  34.6770  0.00  0.00     0.000 C
ATOM    143  C3  IDS B   8       9.348  10.420  33.7170  0.00  0.00     0.000 C
ATOM    144  C4  IDS B   8      10.150  11.486  34.4630  0.00  0.00     0.000 C
ATOM    145  C5  IDS B   8       9.366  11.976  35.6900  0.00  0.00     0.000 C
ATOM    146  O5  IDS B   8       9.030  10.902  36.5640  0.00  0.00     0.000 O
BRANCH 142 147
ATOM    147   O  IDS B   8       9.826   8.462  35.0850  0.00  0.00     0.000 O
ATOM    148   S  IDS B   8      10.146   7.117  34.2350  0.00  0.00     0.000 S
ATOM    149   O  IDS B   8       9.007   6.855  33.3850  0.00  0.00     0.000 OA
ATOM    150   O  IDS B   8      11.352   7.413  33.4840  0.00  0.00     0.000 OA
ATOM    151   O  IDS B   8      10.334   6.075  35.2260  0.00  0.00     0.000 OA
ENDBRANCH 142 147
BRANCH 145 152
ATOM    152   C  IDS B   8      10.153  12.965  36.5270  0.00  0.00     0.000 C
ATOM    153   O  IDS B   8      10.509  12.651  37.6570  0.00  0.00     0.000 OA
ATOM    154   O  IDS B   8      10.440  14.053  36.0620  0.00  0.00     0.000 OA
ENDBRANCH 145 152
ENDBRANCH 140 144
ENDBRANCH 120 140
ENDBRANCH 119 123
ENDBRANCH 103 119
ENDBRANCH 102 106
ENDBRANCH 82 102
ENDBRANCH 81 85
ENDBRANCH 65 81
ENDBRANCH 64 68
ENDBRANCH 41 64
ENDBRANCH 40 44
ENDBRANCH 24 40
ENDBRANCH 23 27
ENDBRANCH 1 23
TORSDOF 31
ENDMDL
MODEL 87
REMARK VINA RESULT:      -6.7      8.633     16.718
ROOT
ATOM      1  C1  SGN B   1      25.630  16.467  22.8360  0.00  0.00     0.000 C
ATOM      2  C2  SGN B   1      27.082  16.860  23.1560  0.00  0.00     0.000 C
ATOM      3  C3  SGN B   1      27.555  17.986  22.2300  0.00  0.00     0.000 C
ATOM      4  C4  SGN B   1      27.383  17.576  20.7710  0.00  0.00     0.000 C
ATOM      5  C5  SGN B   1      25.960  17.064  20.5620  0.00  0.00     0.000 C
ATOM      6  O5  SGN B   1      25.688  16.001  21.4950  0.00  0.00     0.000 O
ATOM      7   O  SGN B   1      28.913  18.316  22.4990  0.00  0.00     0.000 O
ATOM      9  HD  SGN B   1      28.978  17.486  22.2600  0.00  0.00     0.000 HD
ATOM      9   O  SGN B   1      27.629  18.692  19.9360  0.00  0.00     0.000 O
ATOM     11  HD  SGN B   1      27.694  17.862  19.6980  0.00  0.00     0.000 HD
ENDROOT
BRANCH 2 13
ATOM     11   N  SGN B   1      27.439  15.966  24.2730  0.00  0.00     0.000 N
ATOM     13  HD  SGN B   1      26.714  16.437  24.3020  0.00  0.00     0.000 HD
ATOM     13   S  SGN B   1      26.978  16.256  25.7870  0.00  0.00     0.000 S
ATOM     14   O  SGN B   1      26.177  17.416  25.8370  0.00  0.00     0.000 OA
ATOM     15   O  SGN B   1      26.489  15.043  26.3500  0.00  0.00     0.000 OA
ATOM     16   O  SGN B   1      28.387  16.514  26.4040  0.00  0.00     0.000 OA
ENDBRANCH 2 13
BRANCH 5 17
ATOM     17   C  SGN B   1      25.699  16.524  19.1770  0.00  0.00     0.000 C
ATOM     18   O  SGN B   1      24.333  16.083  19.0450  0.00  0.00     0.000 O
ATOM     19   S  SGN B   1      24.118  14.667  18.3340  0.00  0.00     0.000 S
ATOM     20   O  SGN B   1      22.691  14.570  18.1160  0.00  0.00     0.000 OA
ATOM     21   O  SGN B   1      24.885  14.766  17.1130  0.00  0.00     0.000 OA
ATOM     22   O  SGN B   1      24.630  13.692  19.2720  0.00  0.00     0.000 OA
ENDBRANCH 5 17
BRANCH 1 23
ATOM     23  O4  IDS B   2      24.351  16.787  23.1840  0.00  0.00     0.000 O
BRANCH 23 27
ATOM     24  C1  IDS B   2      20.804  18.941  23.0910  0.00  0.00     0.000 C
ATOM     25  C2  IDS B   2      22.019  19.628  22.4280  0.00  0.00     0.000 C
ATOM     26  C3  IDS B   2      23.173  18.645  22.2540  0.00  0.00     0.000 C
ATOM     27  C4  IDS B   2      23.584  17.954  23.5470  0.00  0.00     0.000 C
ATOM     28  C5  IDS B   2      22.337  17.656  24.4040  0.00  0.00     0.000 C
ATOM     29  O5  IDS B   2      21.163  17.653  23.6070  0.00  0.00     0.000 O
ATOM     30   O  IDS B   2      24.311  19.341  21.7590  0.00  0.00     0.000 O
ATOM     32  HD  IDS B   2      24.737  19.779  22.3720  0.00  0.00     0.000 HD
BRANCH 25 32
ATOM     32   O  IDS B   2      21.692  20.178  21.0900  0.00  0.00     0.000 O
ATOM     33   S  IDS B   2      21.785  21.793  20.7650  0.00  0.00     0.000 S
ATOM     34   O  IDS B   2      21.185  21.977  19.4530  0.00  0.00     0.000 OA
ATOM     35   O  IDS B   2      21.063  22.535  21.7880  0.00  0.00     0.000 OA
ATOM     36   O  IDS B   2      23.195  22.107  20.7480  0.00  0.00     0.000 OA
ENDBRANCH 25 32
BRANCH 28 37
ATOM     37   C  IDS B   2      22.344  16.376  25.2640  0.00  0.00     0.000 C
ATOM     38   O  IDS B   2      23.072  16.461  26.2250  0.00  0.00     0.000 OA
ATOM     39   O  IDS B   2      21.647  15.346  25.0910  0.00  0.00     0.000 OA
ENDBRANCH 28 37
BRANCH 24 40
ATOM     40  O4  SUS B   3      19.705  19.663  23.3920  0.00  0.00     0.000 O
BRANCH 40 44
ATOM     41  C1  SUS B   3      15.832  18.787  22.0590  0.00  0.00     0.000 C
ATOM     42  C2  SUS B   3      16.061  18.823  23.5830  0.00  0.00     0.000 C
ATOM     43  C3  SUS B   3      17.339  19.605  23.8810  0.00  0.00     0.000 C
ATOM     44  C4  SUS B   3      18.487  18.988  23.0970  0.00  0.00     0.000 C
ATOM     45  C5  SUS B   3      18.183  19.097  21.6170  0.00  0.00     0.000 C
ATOM     46  O5  SUS B   3      16.988  18.337  21.3450  0.00  0.00     0.000 O
BRANCH 42 49
ATOM     47   N  SUS B   3      14.918  19.354  24.3440  0.00  0.00     0.000 N
ATOM     49  HD  SUS B   3      15.096  19.954  24.9420  0.00  0.00     0.000 HD
ATOM     49   S  SUS B   3      14.051  18.201  25.0410  0.00  0.00     0.000 S
ATOM     50   O  SUS B   3      14.870  17.431  25.8920  0.00  0.00     0.000 OA
ATOM     51   O  SUS B   3      13.134  19.139  25.8670  0.00  0.00     0.000 OA
ATOM     52   O  SUS B   3      13.307  17.517  24.0580  0.00  0.00     0.000 OA
ENDBRANCH 42 49
BRANCH 43 53
ATOM     53   O  SUS B   3      17.608  19.502  25.3280  0.00  0.00     0.000 O
ATOM     54   S  SUS B   3      17.532  20.890  26.2050  0.00  0.00     0.000 S
ATOM     55   O  SUS B   3      16.131  21.279  26.2870  0.00  0.00     0.000 OA
ATOM     56   O  SUS B   3      18.116  20.530  27.4850  0.00  0.00     0.000 OA
ATOM     57   O  SUS B   3      18.318  21.887  25.4720  0.00  0.00     0.000 OA
ENDBRANCH 43 53
BRANCH 45 58
ATOM     58   C  SUS B   3      19.328  18.593  20.7650  0.00  0.00     0.000 C
ATOM     59   S  SUS B   3      20.264  16.472  19.6650  0.00  0.00     0.000 S
ATOM     60   O  SUS B   3      19.072  17.233  20.3790  0.00  0.00     0.000 O
ATOM     61   O  SUS B   3      21.172  16.102  20.7340  0.00  0.00     0.000 OA
ATOM     62   O  SUS B   3      19.567  15.342  19.1120  0.00  0.00     0.000 OA
ATOM     63   O  SUS B   3      20.786  17.389  18.7150  0.00  0.00     0.000 OA
ENDBRANCH 45 58
BRANCH 41 64
ATOM     64  O4  IDS B   4      15.274  19.938  21.5560  0.00  0.00     0.000 O
BRANCH 64 68
ATOM     65  C1  IDS B   4      12.669  21.845  19.8680  0.00  0.00     0.000 C
ATOM     66  C2  IDS B   4      12.301  20.633  20.7340  0.00  0.00     0.000 C
ATOM     67  C3  IDS B   4      13.155  19.401  20.4850  0.00  0.00     0.000 C
ATOM     68  C4  IDS B   4      14.622  19.731  20.2840  0.00  0.00     0.000 C
ATOM     69  C5  IDS B   4      14.715  20.942  19.3460  0.00  0.00     0.000 C
ATOM     70  O5  IDS B   4      14.066  22.060  19.9550  0.00  0.00     0.000 O
ATOM     71   O  IDS B   4      12.646  18.765  19.3310  0.00  0.00     0.000 O
ATOM     73  HD  IDS B   4      12.621  19.304  20.0090  0.00  0.00     0.000 HD
BRANCH 66 73
ATOM     73   O  IDS B   4      12.515  20.979  22.1460  0.00  0.00     0.000 O
ATOM     74   S  IDS B   4      11.219  21.070  23.1100  0.00  0.00     0.000 S
ATOM     75   O  IDS B   4      10.325  22.033  22.5040  0.00  0.00     0.000 OA
ATOM     76   O  IDS B   4      11.803  21.511  24.3510  0.00  0.00     0.000 OA
ATOM     77   O  IDS B   4      10.675  19.733  23.1510  0.00  0.00     0.000 OA
ENDBRANCH 66 73
BRANCH 69 78
ATOM     78   C  IDS B   4      16.125  21.262  18.8690  0.00  0.00     0.000 C
ATOM     79   O  IDS B   4      16.442  22.440  18.7110  0.00  0.00     0.000 OA
ATOM     80   O  IDS B   4      16.942  20.330  18.7580  0.00  0.00     0.000 OA
ENDBRANCH 69 78
BRANCH 65 81
ATOM     81  O4  SGN B   5      12.150  21.683  18.6190  0.00  0.00     0.000 O
BRANCH 81 85
ATOM     82  C1  SGN B   5      11.221  23.986  15.2320  0.00  0.00     0.000 C
ATOM     83  C2  SGN B   5      12.230  24.582  16.2260  0.00  0.00     0.000 C
ATOM     84  C3  SGN B   5      12.795  23.465  17.1150  0.00  0.00     0.000 C
ATOM     85  C4  SGN B   5      11.649  22.736  17.7930  0.00  0.00     0.000 C
ATOM     86  C5  SGN B   5      10.732  22.172  16.7100  0.00  0.00     0.000 C
ATOM     87  O5  SGN B   5      10.219  23.264  15.9240  0.00  0.00     0.000 O
ATOM     88   O  SGN B   5      13.680  24.012  18.0670  0.00  0.00     0.000 O
ATOM     90  HD  SGN B   5      13.915  23.601  17.3420  0.00  0.00     0.000 HD
BRANCH 83 92
ATOM     90   N  SGN B   5      12.967  25.332  15.1910  0.00  0.00     0.000 N
ATOM     92  HD  SGN B   5      12.750  25.062  14.3970  0.00  0.00     0.000 HD
ATOM     92   S  SGN B   5      13.090  26.917  15.3560  0.00  0.00     0.000 S
ATOM     93   O  SGN B   5      13.840  27.336  14.2100  0.00  0.00     0.000 OA
ATOM     94   O  SGN B   5      11.762  27.389  15.5500  0.00  0.00     0.000 OA
ATOM     95   O  SGN B   5      13.833  27.111  16.6590  0.00  0.00     0.000 OA
ENDBRANCH 83 92
BRANCH 86 96
ATOM     96   C  SGN B   5       9.541  21.402  17.2440  0.00  0.00     0.000 C
ATOM     97   O  SGN B   5       8.882  22.146  18.2710  0.00  0.00     0.000 O
ATOM     98   S  SGN B   5       7.297  22.322  18.1090  0.00  0.00     0.000 S
ATOM     99   O  SGN B   5       6.912  22.917  19.3670  0.00  0.00     0.000 OA
ATOM    100   O  SGN B   5       7.073  23.143  16.9730  0.00  0.00     0.000 OA
ATOM    101   O  SGN B   5       6.808  20.993  17.9390  0.00  0.00     0.000 OA
ENDBRANCH 86 96
BRANCH 82 102
ATOM    102  O4  IDS B   6      11.814  23.195  14.2930  0.00  0.00     0.000 O
BRANCH 102 106
ATOM    103  C1  IDS B   6      12.689  22.105  10.9310  0.00  0.00     0.000 C
ATOM    104  C2  IDS B   6      12.864  23.572  11.3520  0.00  0.00     0.000 C
ATOM    105  C3  IDS B   6      11.676  24.182  12.0710  0.00  0.00     0.000 C
ATOM    106  C4  IDS B   6      11.040  23.227  13.0670  0.00  0.00     0.000 C
ATOM    107  C5  IDS B   6      10.939  21.829  12.4510  0.00  0.00     0.000 C
ATOM    108  O5  IDS B   6      12.212  21.341  12.0230  0.00  0.00     0.000 O
ATOM    109   O  IDS B   6      10.733  24.592  11.0950  0.00  0.00     0.000 O
ATOM    111  HD  IDS B   6      10.921  24.104  10.4050  0.00  0.00     0.000 HD
BRANCH 104 111
ATOM    111   O  IDS B   6      13.983  23.668  12.3020  0.00  0.00     0.000 O
ATOM    112   S  IDS B   6      15.262  24.530  11.8740  0.00  0.00     0.000 S
ATOM    113   O  IDS B   6      15.730  23.906  10.6460  0.00  0.00     0.000 OA
ATOM    114   O  IDS B   6      14.851  25.932  11.7300  0.00  0.00     0.000 OA
ATOM    115   O  IDS B   6      16.108  24.279  13.0200  0.00  0.00     0.000 OA
ENDBRANCH 104 111
BRANCH 107 116
ATOM    116   C  IDS B   6      10.334  20.872  13.4700  0.00  0.00     0.000 C
ATOM    117   O  IDS B   6       9.166  21.018  13.7240  0.00  0.00     0.000 OA
ATOM    118   O  IDS B   6      11.008  20.007  14.0070  0.00  0.00     0.000 OA
ENDBRANCH 107 116
BRANCH 103 119
ATOM    119  O4  SGN B   7      11.993  22.185   9.7680  0.00  0.00     0.000 O
BRANCH 119 123
ATOM    120  C1  SGN B   7      11.640  19.310   6.7520  0.00  0.00     0.000 C
ATOM    121  C2  SGN B   7      10.343  19.948   7.2840  0.00  0.00     0.000 C
ATOM    122  C3  SGN B   7      10.656  21.231   8.0640  0.00  0.00     0.000 C
ATOM    123  C4  SGN B   7      11.686  20.939   9.1430  0.00  0.00     0.000 C
ATOM    124  C5  SGN B   7      12.934  20.300   8.5140  0.00  0.00     0.000 C
ATOM    125  O5  SGN B   7      12.593  19.095   7.7910  0.00  0.00     0.000 O
ATOM    126   O  SGN B   7       9.442  21.743   8.6270  0.00  0.00     0.000 O
ATOM    128  HD  SGN B   7       9.825  21.181   8.0890  0.00  0.00     0.000 HD
BRANCH 121 130
ATOM    128   N  SGN B   7       9.417  18.913   6.8180  0.00  0.00     0.000 N
ATOM    130  HD  SGN B   7       8.794  19.229   7.3300  0.00  0.00     0.000 HD
ATOM    130   S  SGN B   7       8.196  19.239   5.8200  0.00  0.00     0.000 S
ATOM    131   O  SGN B   7       8.777  19.970   4.7460  0.00  0.00     0.000 OA
ATOM    132   O  SGN B   7       7.490  18.034   5.5690  0.00  0.00     0.000 OA
ATOM    133   O  SGN B   7       7.260  20.053   6.7780  0.00  0.00     0.000 OA
ENDBRANCH 121 130
BRANCH 124 134
ATOM    134   C  SGN B   7      13.965  19.867   9.5150  0.00  0.00     0.000 C
ATOM    135   O  SGN B   7      15.249  20.356   9.0900  0.00  0.00     0.000 O
ATOM    136   S  SGN B   7      16.444  20.139  10.0860  0.00  0.00     0.000 S
ATOM    137   O  SGN B   7      17.628  20.609   9.4080  0.00  0.00     0.000 OA
ATOM    138   O  SGN B   7      16.468  18.717  10.3450  0.00  0.00     0.000 OA
ATOM    139   O  SGN B   7      16.053  20.952  11.2270  0.00  0.00     0.000 OA
ENDBRANCH 124 134
BRANCH 120 140
ATOM    140  O4  IDS B   8      12.462  19.781   5.8080  0.00  0.00     0.000 O
BRANCH 140 144
ATOM    141  C1  IDS B   8      15.616  20.094   4.1000  0.00  0.00     0.000 C
ATOM    142  C2  IDS B   8      14.593  21.265   4.1100  0.00  0.00     0.000 C
ATOM    143  C3  IDS B   8      13.165  20.822   3.7410  0.00  0.00     0.000 C
ATOM    144  C4  IDS B   8      12.772  19.518   4.4340  0.00  0.00     0.000 C
ATOM    145  C5  IDS B   8      13.919  18.500   4.3370  0.00  0.00     0.000 C
ATOM    146  O5  IDS B   8      15.128  19.015   4.8890  0.00  0.00     0.000 O
BRANCH 142 147
ATOM    147   O  IDS B   8      14.531  21.857   5.4720  0.00  0.00     0.000 O
ATOM    148   S  IDS B   8      14.107  23.408   5.6910  0.00  0.00     0.000 S
ATOM    149   O  IDS B   8      14.219  24.077   4.4150  0.00  0.00     0.000 OA
ATOM    150   O  IDS B   8      12.743  23.370   6.1870  0.00  0.00     0.000 OA
ATOM    151   O  IDS B   8      15.051  23.929   6.6610  0.00  0.00     0.000 OA
ENDBRANCH 142 147
BRANCH 145 152
ATOM    152   C  IDS B   8      13.628  17.220   5.0930  0.00  0.00     0.000 C
ATOM    153   O  IDS B   8      12.633  16.562   4.8070  0.00  0.00     0.000 OA
ATOM    154   O  IDS B   8      14.395  16.846   5.9620  0.00  0.00     0.000 OA
ENDBRANCH 145 152
ENDBRANCH 140 144
ENDBRANCH 120 140
ENDBRANCH 119 123
ENDBRANCH 103 119
ENDBRANCH 102 106
ENDBRANCH 82 102
ENDBRANCH 81 85
ENDBRANCH 65 81
ENDBRANCH 64 68
ENDBRANCH 41 64
ENDBRANCH 40 44
ENDBRANCH 24 40
ENDBRANCH 23 27
ENDBRANCH 1 23
TORSDOF 31
ENDMDL
MODEL 88
REMARK VINA RESULT:      -6.7     10.198     14.259
ROOT
ATOM      1  C1  SGN B   1      36.104  18.059  26.0120  0.00  0.00     0.000 C
ATOM      2  C2  SGN B   1      36.824  18.699  24.8140  0.00  0.00     0.000 C
ATOM      3  C3  SGN B   1      36.748  17.787  23.5850  0.00  0.00     0.000 C
ATOM      4  C4  SGN B   1      37.308  16.408  23.9180  0.00  0.00     0.000 C
ATOM      5  C5  SGN B   1      36.649  15.896  25.1970  0.00  0.00     0.000 C
ATOM      6  O5  SGN B   1      36.831  16.862  26.2510  0.00  0.00     0.000 O
ATOM      7   O  SGN B   1      37.453  18.361  22.4910  0.00  0.00     0.000 O
ATOM      9  HD  SGN B   1      38.083  18.268  23.0770  0.00  0.00     0.000 HD
ATOM      9   O  SGN B   1      37.045  15.522  22.8450  0.00  0.00     0.000 O
ATOM     11  HD  SGN B   1      37.675  15.428  23.4310  0.00  0.00     0.000 HD
ENDROOT
BRANCH 2 13
ATOM     11   N  SGN B   1      37.258  19.941  25.4810  0.00  0.00     0.000 N
ATOM     13  HD  SGN B   1      36.416  19.749  25.4130  0.00  0.00     0.000 HD
ATOM     13   S  SGN B   1      36.341  21.263  25.5150  0.00  0.00     0.000 S
ATOM     14   O  SGN B   1      35.106  21.014  24.8810  0.00  0.00     0.000 OA
ATOM     15   O  SGN B   1      36.354  21.786  26.8400  0.00  0.00     0.000 OA
ATOM     16   O  SGN B   1      37.249  22.187  24.6470  0.00  0.00     0.000 OA
ENDBRANCH 2 13
BRANCH 5 17
ATOM     17   C  SGN B   1      37.203  14.583  25.6900  0.00  0.00     0.000 C
ATOM     18   O  SGN B   1      36.726  14.289  27.0180  0.00  0.00     0.000 O
ATOM     19   S  SGN B   1      37.823  13.768  28.0580  0.00  0.00     0.000 S
ATOM     20   O  SGN B   1      37.068  13.330  29.2130  0.00  0.00     0.000 OA
ATOM     21   O  SGN B   1      38.488  12.693  27.3600  0.00  0.00     0.000 OA
ATOM     22   O  SGN B   1      38.669  14.912  28.3190  0.00  0.00     0.000 OA
ENDBRANCH 5 17
BRANCH 1 23
ATOM     23  O4  IDS B   2      34.871  18.001  26.5920  0.00  0.00     0.000 O
BRANCH 23 27
ATOM     24  C1  IDS B   2      31.601  18.170  29.1440  0.00  0.00     0.000 C
ATOM     25  C2  IDS B   2      31.713  19.325  28.1250  0.00  0.00     0.000 C
ATOM     26  C3  IDS B   2      32.759  19.014  27.0590  0.00  0.00     0.000 C
ATOM     27  C4  IDS B   2      34.127  18.669  27.6330  0.00  0.00     0.000 C
ATOM     28  C5  IDS B   2      33.963  17.846  28.9270  0.00  0.00     0.000 C
ATOM     29  O5  IDS B   2      32.680  17.239  28.9830  0.00  0.00     0.000 O
ATOM     30   O  IDS B   2      32.921  20.149  26.2170  0.00  0.00     0.000 O
ATOM     32  HD  IDS B   2      33.418  20.767  26.5670  0.00  0.00     0.000 HD
BRANCH 25 32
ATOM     32   O  IDS B   2      30.428  19.586  27.4300  0.00  0.00     0.000 O
ATOM     33   S  IDS B   2      29.674  21.052  27.5130  0.00  0.00     0.000 S
ATOM     34   O  IDS B   2      28.362  20.867  26.9140  0.00  0.00     0.000 OA
ATOM     35   O  IDS B   2      29.570  21.464  28.9060  0.00  0.00     0.000 OA
ATOM     36   O  IDS B   2      30.488  21.954  26.7310  0.00  0.00     0.000 OA
ENDBRANCH 25 32
BRANCH 28 37
ATOM     37   C  IDS B   2      35.023  16.769  29.2360  0.00  0.00     0.000 C
ATOM     38   O  IDS B   2      36.106  17.240  29.4930  0.00  0.00     0.000 OA
ATOM     39   O  IDS B   2      34.843  15.529  29.3010  0.00  0.00     0.000 OA
ENDBRANCH 28 37
BRANCH 24 40
ATOM     40  O4  SUS B   3      30.775  18.285  30.2050  0.00  0.00     0.000 O
BRANCH 40 44
ATOM     41  C1  SUS B   3      28.522  15.347  32.1630  0.00  0.00     0.000 C
ATOM     42  C2  SUS B   3      29.963  15.577  32.6590  0.00  0.00     0.000 C
ATOM     43  C3  SUS B   3      30.444  16.948  32.1910  0.00  0.00     0.000 C
ATOM     44  C4  SUS B   3      30.288  17.035  30.6810  0.00  0.00     0.000 C
ATOM     45  C5  SUS B   3      28.822  16.886  30.3290  0.00  0.00     0.000 C
ATOM     46  O5  SUS B   3      28.388  15.579  30.7560  0.00  0.00     0.000 O
BRANCH 42 49
ATOM     47   N  SUS B   3      30.039  14.175  33.1050  0.00  0.00     0.000 N
ATOM     49  HD  SUS B   3      29.292  13.739  33.1420  0.00  0.00     0.000 HD
ATOM     49   S  SUS B   3      30.779  14.015  34.5170  0.00  0.00     0.000 S
ATOM     50   O  SUS B   3      30.119  14.788  35.4940  0.00  0.00     0.000 OA
ATOM     51   O  SUS B   3      30.470  12.509  34.7120  0.00  0.00     0.000 OA
ATOM     52   O  SUS B   3      32.162  14.222  34.3460  0.00  0.00     0.000 OA
ENDBRANCH 42 49
BRANCH 43 53
ATOM     53   O  SUS B   3      31.867  17.082  32.5570  0.00  0.00     0.000 O
ATOM     54   S  SUS B   3      32.242  18.181  33.7210  0.00  0.00     0.000 S
ATOM     55   O  SUS B   3      31.755  17.656  34.9890  0.00  0.00     0.000 OA
ATOM     56   O  SUS B   3      33.688  18.290  33.6490  0.00  0.00     0.000 OA
ATOM     57   O  SUS B   3      31.549  19.421  33.3590  0.00  0.00     0.000 OA
ENDBRANCH 43 53
BRANCH 45 58
ATOM     58   C  SUS B   3      28.574  17.061  28.8470  0.00  0.00     0.000 C
ATOM     59   S  SUS B   3      26.840  16.612  27.0090  0.00  0.00     0.000 S
ATOM     60   O  SUS B   3      27.217  16.698  28.5450  0.00  0.00     0.000 O
ATOM     61   O  SUS B   3      27.384  15.346  26.5550  0.00  0.00     0.000 OA
ATOM     62   O  SUS B   3      25.404  16.605  27.0850  0.00  0.00     0.000 OA
ATOM     63   O  SUS B   3      27.412  17.767  26.4130  0.00  0.00     0.000 OA
ENDBRANCH 45 58
BRANCH 41 64
ATOM     64  O4  IDS B   4      27.567  15.970  32.9290  0.00  0.00     0.000 O
BRANCH 64 68
ATOM     65  C1  IDS B   4      24.704  16.371  35.1460  0.00  0.00     0.000 C
ATOM     66  C2  IDS B   4      25.876  15.471  35.5540  0.00  0.00     0.000 C
ATOM     67  C3  IDS B   4      26.350  14.524  34.4640  0.00  0.00     0.000 C
ATOM     68  C4  IDS B   4      26.375  15.170  33.0920  0.00  0.00     0.000 C
ATOM     69  C5  IDS B   4      25.076  15.968  32.9160  0.00  0.00     0.000 C
ATOM     70  O5  IDS B   4      25.014  16.992  33.9110  0.00  0.00     0.000 O
ATOM     71   O  IDS B   4      25.469  13.420  34.4560  0.00  0.00     0.000 O
ATOM     73  HD  IDS B   4      25.845  14.124  34.7900  0.00  0.00     0.000 HD
BRANCH 66 73
ATOM     73   O  IDS B   4      27.036  16.317  35.8680  0.00  0.00     0.000 O
ATOM     74   S  IDS B   4      27.455  16.482  37.4220  0.00  0.00     0.000 S
ATOM     75   O  IDS B   4      26.285  16.985  38.1110  0.00  0.00     0.000 OA
ATOM     76   O  IDS B   4      28.538  17.429  37.3380  0.00  0.00     0.000 OA
ATOM     77   O  IDS B   4      27.851  15.164  37.8570  0.00  0.00     0.000 OA
ENDBRANCH 66 73
BRANCH 69 78
ATOM     78   C  IDS B   4      24.848  16.497  31.5070  0.00  0.00     0.000 C
ATOM     79   O  IDS B   4      24.919  15.712  30.5620  0.00  0.00     0.000 OA
ATOM     80   O  IDS B   4      24.493  17.682  31.3650  0.00  0.00     0.000 OA
ENDBRANCH 69 78
BRANCH 65 81
ATOM     81  O4  SGN B   5      23.545  15.658  35.2000  0.00  0.00     0.000 O
BRANCH 81 85
ATOM     82  C1  SGN B   5      19.423  15.945  35.9520  0.00  0.00     0.000 C
ATOM     83  C2  SGN B   5      19.953  16.650  34.6950  0.00  0.00     0.000 C
ATOM     84  C3  SGN B   5      21.327  16.075  34.3250  0.00  0.00     0.000 C
ATOM     85  C4  SGN B   5      22.260  16.198  35.5170  0.00  0.00     0.000 C
ATOM     86  C5  SGN B   5      21.640  15.442  36.6900  0.00  0.00     0.000 C
ATOM     87  O5  SGN B   5      20.366  16.038  37.0020  0.00  0.00     0.000 O
ATOM     88   O  SGN B   5      21.847  16.757  33.2040  0.00  0.00     0.000 O
ATOM     90  HD  SGN B   5      21.476  15.975  33.1880  0.00  0.00     0.000 HD
BRANCH 83 92
ATOM     90   N  SGN B   5      18.548  17.101  34.7060  0.00  0.00     0.000 N
ATOM     92  HD  SGN B   5      18.360  17.514  35.4430  0.00  0.00     0.000 HD
ATOM     92   S  SGN B   5      17.966  17.781  33.3820  0.00  0.00     0.000 S
ATOM     93   O  SGN B   5      16.611  18.104  33.7150  0.00  0.00     0.000 OA
ATOM     94   O  SGN B   5      18.883  18.816  33.0450  0.00  0.00     0.000 OA
ATOM     95   O  SGN B   5      18.081  16.712  32.3180  0.00  0.00     0.000 OA
ENDBRANCH 83 92
BRANCH 86 96
ATOM     96   C  SGN B   5      22.473  15.469  37.9550  0.00  0.00     0.000 C
ATOM     97   O  SGN B   5      22.940  16.794  38.2200  0.00  0.00     0.000 O
ATOM     98   S  SGN B   5      22.675  17.353  39.7000  0.00  0.00     0.000 S
ATOM     99   O  SGN B   5      23.423  18.587  39.7120  0.00  0.00     0.000 OA
ATOM    100   O  SGN B   5      21.273  17.508  39.8520  0.00  0.00     0.000 OA
ATOM    101   O  SGN B   5      23.220  16.353  40.5600  0.00  0.00     0.000 OA
ENDBRANCH 86 96
BRANCH 82 102
ATOM    102  O4  IDS B   6      19.094  14.642  35.7230  0.00  0.00     0.000 O
BRANCH 102 106
ATOM    103  C1  IDS B   6      16.486  12.117  36.0000  0.00  0.00     0.000 C
ATOM    104  C2  IDS B   6      16.134  13.613  36.0010  0.00  0.00     0.000 C
ATOM    105  C3  IDS B   6      16.981  14.471  36.9210  0.00  0.00     0.000 C
ATOM    106  C4  IDS B   6      18.449  14.085  36.8970  0.00  0.00     0.000 C
ATOM    107  C5  IDS B   6      18.584  12.560  36.9200  0.00  0.00     0.000 C
ATOM    108  O5  IDS B   6      17.881  11.947  35.8380  0.00  0.00     0.000 O
ATOM    109   O  IDS B   6      16.454  14.364  38.2340  0.00  0.00     0.000 O
ATOM    111  HD  IDS B   6      16.024  13.612  38.2250  0.00  0.00     0.000 HD
BRANCH 104 111
ATOM    111   O  IDS B   6      16.353  14.158  34.6520  0.00  0.00     0.000 O
ATOM    112   S  IDS B   6      15.068  14.568  33.7890  0.00  0.00     0.000 S
ATOM    113   O  IDS B   6      14.288  13.344  33.6890  0.00  0.00     0.000 OA
ATOM    114   O  IDS B   6      14.386  15.675  34.4690  0.00  0.00     0.000 OA
ATOM    115   O  IDS B   6      15.726  14.947  32.5580  0.00  0.00     0.000 OA
ENDBRANCH 104 111
BRANCH 107 116
ATOM    116   C  IDS B   6      20.058  12.183  36.8580  0.00  0.00     0.000 C
ATOM    117   O  IDS B   6      20.699  12.332  37.8680  0.00  0.00     0.000 OA
ATOM    118   O  IDS B   6      20.563  11.760  35.8300  0.00  0.00     0.000 OA
ENDBRANCH 107 116
BRANCH 103 119
ATOM    119  O4  SGN B   7      15.837  11.634  37.0910  0.00  0.00     0.000 O
BRANCH 119 123
ATOM    120  C1  SGN B   7      14.670   7.858  38.4600  0.00  0.00     0.000 C
ATOM    121  C2  SGN B   7      16.068   8.364  38.8660  0.00  0.00     0.000 C
ATOM    122  C3  SGN B   7      16.179   9.877  38.6390  0.00  0.00     0.000 C
ATOM    123  C4  SGN B   7      15.795  10.211  37.2070  0.00  0.00     0.000 C
ATOM    124  C5  SGN B   7      14.393   9.660  36.9000  0.00  0.00     0.000 C
ATOM    125  O5  SGN B   7      14.335   8.234  37.1250  0.00  0.00     0.000 O
ATOM    126   O  SGN B   7      17.517  10.295  38.9310  0.00  0.00     0.000 O
ATOM    128  HD  SGN B   7      16.919   9.669  38.9600  0.00  0.00     0.000 HD
BRANCH 121 130
ATOM    128   N  SGN B   7      16.249   7.027  39.4380  0.00  0.00     0.000 N
ATOM    130  HD  SGN B   7      17.036   6.973  39.0810  0.00  0.00     0.000 HD
ATOM    130   S  SGN B   7      17.238   6.750  40.6770  0.00  0.00     0.000 S
ATOM    131   O  SGN B   7      16.883   7.716  41.6600  0.00  0.00     0.000 OA
ATOM    132   O  SGN B   7      17.192   5.365  40.9830  0.00  0.00     0.000 OA
ATOM    133   O  SGN B   7      18.626   6.955  39.9810  0.00  0.00     0.000 OA
ENDBRANCH 121 130
BRANCH 124 134
ATOM    134   C  SGN B   7      13.970   9.839  35.4710  0.00  0.00     0.000 C
ATOM    135   O  SGN B   7      13.058   8.782  35.1280  0.00  0.00     0.000 O
ATOM    136   S  SGN B   7      12.378   8.876  33.7150  0.00  0.00     0.000 S
ATOM    137   O  SGN B   7      11.601   7.670  33.5570  0.00  0.00     0.000 OA
ATOM    138   O  SGN B   7      13.471   8.971  32.7740  0.00  0.00     0.000 OA
ATOM    139   O  SGN B   7      11.578  10.085  33.8330  0.00  0.00     0.000 OA
ENDBRANCH 124 134
BRANCH 120 140
ATOM    140  O4  IDS B   8      13.498   8.117  39.0510  0.00  0.00     0.000 O
BRANCH 140 144
ATOM    141  C1  IDS B   8       9.990   8.230  39.8490  0.00  0.00     0.000 C
ATOM    142  C2  IDS B   8      10.902   9.467  40.0800  0.00  0.00     0.000 C
ATOM    143  C3  IDS B   8      12.205   9.126  40.8280  0.00  0.00     0.000 C
ATOM    144  C4  IDS B   8      12.850   7.846  40.3000  0.00  0.00     0.000 C
ATOM    145  C5  IDS B   8      11.785   6.753  40.1150  0.00  0.00     0.000 C
ATOM    146  O5  IDS B   8      10.737   7.180  39.2480  0.00  0.00     0.000 O
BRANCH 142 147
ATOM    147   O  IDS B   8      11.289  10.050  38.7680  0.00  0.00     0.000 O
ATOM    148   S  IDS B   8      11.196  11.648  38.5040  0.00  0.00     0.000 S
ATOM    149   O  IDS B   8      10.362  12.216  39.5390  0.00  0.00     0.000 OA
ATOM    150   O  IDS B   8      12.564  12.129  38.5580  0.00  0.00     0.000 OA
ATOM    151   O  IDS B   8      10.597  11.783  37.1900  0.00  0.00     0.000 OA
ENDBRANCH 142 147
BRANCH 145 152
ATOM    152   C  IDS B   8      12.348   5.489  39.4990  0.00  0.00     0.000 C
ATOM    153   O  IDS B   8      11.950   5.123  38.3990  0.00  0.00     0.000 OA
ATOM    154   O  IDS B   8      13.205   4.859  40.0940  0.00  0.00     0.000 OA
ENDBRANCH 145 152
ENDBRANCH 140 144
ENDBRANCH 120 140
ENDBRANCH 119 123
ENDBRANCH 103 119
ENDBRANCH 102 106
ENDBRANCH 82 102
ENDBRANCH 81 85
ENDBRANCH 65 81
ENDBRANCH 64 68
ENDBRANCH 41 64
ENDBRANCH 40 44
ENDBRANCH 24 40
ENDBRANCH 23 27
ENDBRANCH 1 23
TORSDOF 31
ENDMDL
MODEL 89
REMARK VINA RESULT:      -6.6      7.027     12.673
ROOT
ATOM      1  C1  SGN B   1      40.301  25.583  17.6000  0.00  0.00     0.000 C
ATOM      2  C2  SGN B   1      41.179  26.102  18.7510  0.00  0.00     0.000 C
ATOM      3  C3  SGN B   1      40.426  26.028  20.0830  0.00  0.00     0.000 C
ATOM      4  C4  SGN B   1      39.107  26.787  19.9860  0.00  0.00     0.000 C
ATOM      5  C5  SGN B   1      38.353  26.320  18.7420  0.00  0.00     0.000 C
ATOM      6  O5  SGN B   1      39.195  26.475  17.5830  0.00  0.00     0.000 O
ATOM      7   O  SGN B   1      41.225  26.549  21.1390  0.00  0.00     0.000 O
ATOM      9  HD  SGN B   1      41.146  27.239  20.6200  0.00  0.00     0.000 HD
ATOM      9   O  SGN B   1      38.334  26.539  21.1460  0.00  0.00     0.000 O
ATOM     11  HD  SGN B   1      38.256  27.228  20.6280  0.00  0.00     0.000 HD
ENDROOT
BRANCH 2 13
ATOM     11   N  SGN B   1      42.446  26.465  18.0880  0.00  0.00     0.000 N
ATOM     13  HD  SGN B   1      42.086  25.688  17.9550  0.00  0.00     0.000 HD
ATOM     13   S  SGN B   1      43.544  25.365  17.6710  0.00  0.00     0.000 S
ATOM     14   O  SGN B   1      43.079  24.071  17.9860  0.00  0.00     0.000 OA
ATOM     15   O  SGN B   1      43.984  25.648  16.3470  0.00  0.00     0.000 OA
ATOM     16   O  SGN B   1      44.683  25.810  18.6400  0.00  0.00     0.000 OA
ENDBRANCH 2 13
BRANCH 5 17
ATOM     17   C  SGN B   1      37.077  27.079  18.4760  0.00  0.00     0.000 C
ATOM     18   O  SGN B   1      37.257  28.489  18.7180  0.00  0.00     0.000 O
ATOM     19   S  SGN B   1      36.098  29.211  19.5520  0.00  0.00     0.000 S
ATOM     20   O  SGN B   1      36.391  30.625  19.4530  0.00  0.00     0.000 OA
ATOM     21   O  SGN B   1      34.883  28.823  18.8750  0.00  0.00     0.000 OA
ATOM     22   O  SGN B   1      36.217  28.687  20.8950  0.00  0.00     0.000 OA
ENDBRANCH 5 17
BRANCH 1 23
ATOM     23  O4  IDS B   2      40.001  24.427  16.9420  0.00  0.00     0.000 O
BRANCH 23 27
ATOM     24  C1  IDS B   2      37.002  22.209  18.7630  0.00  0.00     0.000 C
ATOM     25  C2  IDS B   2      38.443  21.874  19.2080  0.00  0.00     0.000 C
ATOM     26  C3  IDS B   2      39.427  22.931  18.7120  0.00  0.00     0.000 C
ATOM     27  C4  IDS B   2      39.367  23.159  17.2080  0.00  0.00     0.000 C
ATOM     28  C5  IDS B   2      37.908  23.060  16.7180  0.00  0.00     0.000 C
ATOM     29  O5  IDS B   2      36.998  23.261  17.7890  0.00  0.00     0.000 O
ATOM     30   O  IDS B   2      40.752  22.524  19.0330  0.00  0.00     0.000 O
ATOM     32  HD  IDS B   2      41.068  21.931  18.4870  0.00  0.00     0.000 HD
BRANCH 25 32
ATOM     32   O  IDS B   2      38.572  21.800  20.6840  0.00  0.00     0.000 O
ATOM     33   S  IDS B   2      38.690  20.357  21.4760  0.00  0.00     0.000 S
ATOM     34   O  IDS B   2      38.572  20.662  22.8930  0.00  0.00     0.000 OA
ATOM     35   O  IDS B   2      37.622  19.472  21.0320  0.00  0.00     0.000 OA
ATOM     36   O  IDS B   2      40.001  19.842  21.1560  0.00  0.00     0.000 OA
ENDBRANCH 25 32
BRANCH 28 37
ATOM     37   C  IDS B   2      37.480  23.963  15.5420  0.00  0.00     0.000 C
ATOM     38   O  IDS B   2      36.716  24.837  15.8780  0.00  0.00     0.000 OA
ATOM     39   O  IDS B   2      37.890  23.904  14.3570  0.00  0.00     0.000 OA
ENDBRANCH 28 37
BRANCH 24 40
ATOM     40  O4  SUS B   3      35.995  21.357  19.0470  0.00  0.00     0.000 O
BRANCH 40 44
ATOM     41  C1  SUS B   3      31.937  22.096  19.7730  0.00  0.00     0.000 C
ATOM     42  C2  SUS B   3      32.462  22.380  18.3510  0.00  0.00     0.000 C
ATOM     43  C3  SUS B   3      33.772  21.625  18.1390  0.00  0.00     0.000 C
ATOM     44  C4  SUS B   3      34.744  22.006  19.2440  0.00  0.00     0.000 C
ATOM     45  C5  SUS B   3      34.155  21.595  20.5780  0.00  0.00     0.000 C
ATOM     46  O5  SUS B   3      32.931  22.331  20.7760  0.00  0.00     0.000 O
BRANCH 42 49
ATOM     47   N  SUS B   3      31.465  22.074  17.3100  0.00  0.00     0.000 N
ATOM     49  HD  SUS B   3      31.734  21.585  16.6480  0.00  0.00     0.000 HD
ATOM     49   S  SUS B   3      30.777  23.390  16.7080  0.00  0.00     0.000 S
ATOM     50   O  SUS B   3      31.764  24.249  16.1830  0.00  0.00     0.000 OA
ATOM     51   O  SUS B   3      30.004  22.682  15.5660  0.00  0.00     0.000 OA
ATOM     52   O  SUS B   3      29.884  23.926  17.6570  0.00  0.00     0.000 OA
ENDBRANCH 42 49
BRANCH 43 53
ATOM     53   O  SUS B   3      34.320  22.024  16.8280  0.00  0.00     0.000 O
ATOM     54   S  SUS B   3      34.442  20.856  15.6790  0.00  0.00     0.000 S
ATOM     55   O  SUS B   3      33.092  20.530  15.2420  0.00  0.00     0.000 OA
ATOM     56   O  SUS B   3      35.262  21.463  14.6450  0.00  0.00     0.000 OA
ATOM     57   O  SUS B   3      35.084  19.706  16.3230  0.00  0.00     0.000 OA
ENDBRANCH 43 53
BRANCH 45 58
ATOM     58   C  SUS B   3      35.111  21.852  21.7220  0.00  0.00     0.000 C
ATOM     59   S  SUS B   3      35.985  23.708  23.2630  0.00  0.00     0.000 S
ATOM     60   O  SUS B   3      34.923  23.191  22.2090  0.00  0.00     0.000 O
ATOM     61   O  SUS B   3      37.158  24.052  22.4820  0.00  0.00     0.000 OA
ATOM     62   O  SUS B   3      35.305  24.864  23.7830  0.00  0.00     0.000 OA
ATOM     63   O  SUS B   3      36.159  22.640  24.1830  0.00  0.00     0.000 OA
ENDBRANCH 45 58
BRANCH 41 64
ATOM     64  O4  IDS B   4      31.290  20.891  19.8940  0.00  0.00     0.000 O
BRANCH 64 68
ATOM     65  C1  IDS B   4      28.398  18.692  20.1650  0.00  0.00     0.000 C
ATOM     66  C2  IDS B   4      28.350  19.921  19.2480  0.00  0.00     0.000 C
ATOM     67  C3  IDS B   4      28.875  21.198  19.8830  0.00  0.00     0.000 C
ATOM     68  C4  IDS B   4      30.114  20.971  20.7280  0.00  0.00     0.000 C
ATOM     69  C5  IDS B   4      29.885  19.717  21.5830  0.00  0.00     0.000 C
ATOM     70  O5  IDS B   4      29.694  18.590  20.7250  0.00  0.00     0.000 O
ATOM     71   O  IDS B   4      27.838  21.724  20.6860  0.00  0.00     0.000 O
ATOM     73  HD  IDS B   4      28.177  21.226  20.0630  0.00  0.00     0.000 HD
BRANCH 66 73
ATOM     73   O  IDS B   4      29.216  19.677  18.0860  0.00  0.00     0.000 O
ATOM     74   S  IDS B   4      28.509  19.301  16.6800  0.00  0.00     0.000 S
ATOM     75   O  IDS B   4      27.693  18.132  16.9320  0.00  0.00     0.000 OA
ATOM     76   O  IDS B   4      29.648  19.049  15.8340  0.00  0.00     0.000 OA
ATOM     77   O  IDS B   4      27.741  20.466  16.3110  0.00  0.00     0.000 OA
ENDBRANCH 66 73
BRANCH 69 78
ATOM     78   C  IDS B   4      30.947  19.479  22.6480  0.00  0.00     0.000 C
ATOM     79   O  IDS B   4      31.671  20.416  22.9800  0.00  0.00     0.000 OA
ATOM     80   O  IDS B   4      30.978  18.375  23.2220  0.00  0.00     0.000 OA
ENDBRANCH 69 78
BRANCH 65 81
ATOM     81  O4  SGN B   5      27.354  18.739  21.0400  0.00  0.00     0.000 O
BRANCH 81 85
ATOM     82  C1  SGN B   5      24.666  16.345  23.2030  0.00  0.00     0.000 C
ATOM     83  C2  SGN B   5      26.056  16.565  23.8190  0.00  0.00     0.000 C
ATOM     84  C3  SGN B   5      26.715  17.791  23.1730  0.00  0.00     0.000 C
ATOM     85  C4  SGN B   5      26.752  17.604  21.6660  0.00  0.00     0.000 C
ATOM     86  C5  SGN B   5      25.320  17.420  21.1700  0.00  0.00     0.000 C
ATOM     87  O5  SGN B   5      24.763  16.247  21.7950  0.00  0.00     0.000 O
ATOM     88   O  SGN B   5      28.015  17.966  23.6920  0.00  0.00     0.000 O
ATOM     90  HD  SGN B   5      27.316  18.421  23.9250  0.00  0.00     0.000 HD
BRANCH 83 92
ATOM     90   N  SGN B   5      25.795  15.346  24.6090  0.00  0.00     0.000 N
ATOM     92  HD  SGN B   5      26.019  14.636  24.1670  0.00  0.00     0.000 HD
ATOM     92   S  SGN B   5      26.218  15.345  26.1500  0.00  0.00     0.000 S
ATOM     93   O  SGN B   5      25.845  14.045  26.6200  0.00  0.00     0.000 OA
ATOM     94   O  SGN B   5      27.582  15.749  26.1770  0.00  0.00     0.000 OA
ATOM     95   O  SGN B   5      25.405  16.460  26.7720  0.00  0.00     0.000 OA
ENDBRANCH 83 92
BRANCH 86 96
ATOM     96   C  SGN B   5      25.201  17.233  19.6720  0.00  0.00     0.000 C
ATOM     97   O  SGN B   5      25.658  15.933  19.2900  0.00  0.00     0.000 O
ATOM     98   S  SGN B   5      24.665  15.080  18.3640  0.00  0.00     0.000 S
ATOM     99   O  SGN B   5      25.473  13.943  17.9940  0.00  0.00     0.000 OA
ATOM    100   O  SGN B   5      23.521  14.764  19.1420  0.00  0.00     0.000 OA
ATOM    101   O  SGN B   5      24.370  15.945  17.2680  0.00  0.00     0.000 OA
ENDBRANCH 86 96
BRANCH 82 102
ATOM    102  O4  IDS B   6      23.778  17.319  23.5510  0.00  0.00     0.000 O
BRANCH 102 106
ATOM    103  C1  IDS B   6      20.765  18.751  25.0120  0.00  0.00     0.000 C
ATOM    104  C2  IDS B   6      21.727  17.907  25.8630  0.00  0.00     0.000 C
ATOM    105  C3  IDS B   6      22.168  16.601  25.2310  0.00  0.00     0.000 C
ATOM    106  C4  IDS B   6      22.464  16.738  23.7480  0.00  0.00     0.000 C
ATOM    107  C5  IDS B   6      21.384  17.594  23.0810  0.00  0.00     0.000 C
ATOM    108  O5  IDS B   6      21.269  18.879  23.6950  0.00  0.00     0.000 O
ATOM    109   O  IDS B   6      21.152  15.637  25.4550  0.00  0.00     0.000 O
ATOM    111  HD  IDS B   6      20.439  16.112  25.5860  0.00  0.00     0.000 HD
BRANCH 104 111
ATOM    111   O  IDS B   6      22.966  18.669  26.0840  0.00  0.00     0.000 O
ATOM    112   S  IDS B   6      23.200  19.324  27.5260  0.00  0.00     0.000 S
ATOM    113   O  IDS B   6      22.058  20.204  27.7180  0.00  0.00     0.000 OA
ATOM    114   O  IDS B   6      23.314  18.245  28.5130  0.00  0.00     0.000 OA
ATOM    115   O  IDS B   6      24.441  20.021  27.2670  0.00  0.00     0.000 OA
ENDBRANCH 104 111
BRANCH 107 116
ATOM    116   C  IDS B   6      21.709  17.756  21.6020  0.00  0.00     0.000 C
ATOM    117   O  IDS B   6      21.624  16.768  20.9180  0.00  0.00     0.000 OA
ATOM    118   O  IDS B   6      22.049  18.834  21.1400  0.00  0.00     0.000 OA
ENDBRANCH 107 116
BRANCH 103 119
ATOM    119  O4  SGN B   7      19.551  18.194  25.2520  0.00  0.00     0.000 O
BRANCH 119 123
ATOM    120  C1  SGN B   7      15.577  19.498  25.2980  0.00  0.00     0.000 C
ATOM    121  C2  SGN B   7      16.342  19.587  23.9640  0.00  0.00     0.000 C
ATOM    122  C3  SGN B   7      17.607  18.720  24.0100  0.00  0.00     0.000 C
ATOM    123  C4  SGN B   7      18.441  19.093  25.2240  0.00  0.00     0.000 C
ATOM    124  C5  SGN B   7      17.589  18.978  26.4980  0.00  0.00     0.000 C
ATOM    125  O5  SGN B   7      16.411  19.811  26.4120  0.00  0.00     0.000 O
ATOM    126   O  SGN B   7      18.342  18.904  22.7940  0.00  0.00     0.000 O
ATOM    128  HD  SGN B   7      17.611  19.037  23.2390  0.00  0.00     0.000 HD
BRANCH 121 130
ATOM    128   N  SGN B   7      15.250  20.407  23.4320  0.00  0.00     0.000 N
ATOM    130  HD  SGN B   7      15.814  20.865  22.9600  0.00  0.00     0.000 HD
ATOM    130   S  SGN B   7      14.725  20.261  21.9170  0.00  0.00     0.000 S
ATOM    131   O  SGN B   7      14.494  18.869  21.7360  0.00  0.00     0.000 OA
ATOM    132   O  SGN B   7      13.675  21.194  21.7170  0.00  0.00     0.000 OA
ATOM    133   O  SGN B   7      15.943  20.863  21.1380  0.00  0.00     0.000 OA
ENDBRANCH 121 130
BRANCH 124 134
ATOM    134   C  SGN B   7      18.292  19.438  27.7420  0.00  0.00     0.000 C
ATOM    135   O  SGN B   7      17.303  19.812  28.7160  0.00  0.00     0.000 O
ATOM    136   S  SGN B   7      17.834  20.179  30.1480  0.00  0.00     0.000 S
ATOM    137   O  SGN B   7      16.686  20.615  30.9070  0.00  0.00     0.000 OA
ATOM    138   O  SGN B   7      18.803  21.229  29.9340  0.00  0.00     0.000 OA
ATOM    139   O  SGN B   7      18.401  18.919  30.6030  0.00  0.00     0.000 OA
ENDBRANCH 124 134
BRANCH 120 140
ATOM    140  O4  IDS B   8      14.934  18.442  25.8090  0.00  0.00     0.000 O
BRANCH 140 144
ATOM    141  C1  IDS B   8      12.441  16.777  27.8020  0.00  0.00     0.000 C
ATOM    142  C2  IDS B   8      13.820  16.113  27.5280  0.00  0.00     0.000 C
ATOM    143  C3  IDS B   8      14.220  16.143  26.0410  0.00  0.00     0.000 C
ATOM    144  C4  IDS B   8      13.935  17.500  25.3990  0.00  0.00     0.000 C
ATOM    145  C5  IDS B   8      12.541  17.997  25.8080  0.00  0.00     0.000 C
ATOM    146  O5  IDS B   8      12.404  18.077  27.2250  0.00  0.00     0.000 O
BRANCH 142 147
ATOM    147   O  IDS B   8      14.878  16.836  28.2820  0.00  0.00     0.000 O
ATOM    148   S  IDS B   8      15.535  16.197  29.6210  0.00  0.00     0.000 S
ATOM    149   O  IDS B   8      14.666  15.134  30.0710  0.00  0.00     0.000 OA
ATOM    150   O  IDS B   8      16.845  15.720  29.2190  0.00  0.00     0.000 OA
ATOM    151   O  IDS B   8      15.594  17.289  30.5750  0.00  0.00     0.000 OA
ENDBRANCH 142 147
BRANCH 145 152
ATOM    152   C  IDS B   8      12.239  19.386  25.2820  0.00  0.00     0.000 C
ATOM    153   O  IDS B   8      12.162  20.325  26.0650  0.00  0.00     0.000 OA
ATOM    154   O  IDS B   8      12.097  19.558  24.0850  0.00  0.00     0.000 OA
ENDBRANCH 145 152
ENDBRANCH 140 144
ENDBRANCH 120 140
ENDBRANCH 119 123
ENDBRANCH 103 119
ENDBRANCH 102 106
ENDBRANCH 82 102
ENDBRANCH 81 85
ENDBRANCH 65 81
ENDBRANCH 64 68
ENDBRANCH 41 64
ENDBRANCH 40 44
ENDBRANCH 24 40
ENDBRANCH 23 27
ENDBRANCH 1 23
TORSDOF 31
ENDMDL
MODEL 90
REMARK VINA RESULT:      -6.6      6.711     19.029
ROOT
ATOM      1  C1  SGN B   1      25.485  19.044  30.4490  0.00  0.00     0.000 C
ATOM      2  C2  SGN B   1      23.989  18.709  30.5670  0.00  0.00     0.000 C
ATOM      3  C3  SGN B   1      23.265  18.988  29.2460  0.00  0.00     0.000 C
ATOM      4  C4  SGN B   1      23.494  20.433  28.8160  0.00  0.00     0.000 C
ATOM      5  C5  SGN B   1      24.990  20.736  28.8580  0.00  0.00     0.000 C
ATOM      6  O5  SGN B   1      25.504  20.437  30.1700  0.00  0.00     0.000 O
ATOM      7   O  SGN B   1      21.873  18.719  29.3720  0.00  0.00     0.000 O
ATOM      9  HD  SGN B   1      21.986  19.345  29.9590  0.00  0.00     0.000 HD
ATOM      9   O  SGN B   1      22.995  20.618  27.5030  0.00  0.00     0.000 O
ATOM     11  HD  SGN B   1      23.107  21.244  28.0910  0.00  0.00     0.000 HD
ENDROOT
BRANCH 2 13
ATOM     11   N  SGN B   1      23.882  18.234  31.9600  0.00  0.00     0.000 N
ATOM     13  HD  SGN B   1      24.465  17.889  31.4210  0.00  0.00     0.000 HD
ATOM     13   S  SGN B   1      24.272  16.733  32.3880  0.00  0.00     0.000 S
ATOM     14   O  SGN B   1      24.755  16.019  31.2720  0.00  0.00     0.000 OA
ATOM     15   O  SGN B   1      25.059  16.794  33.5740  0.00  0.00     0.000 OA
ATOM     16   O  SGN B   1      22.851  16.243  32.8040  0.00  0.00     0.000 OA
ENDBRANCH 2 13
BRANCH 5 17
ATOM     17   C  SGN B   1      25.334  22.173  28.5570  0.00  0.00     0.000 C
ATOM     18   O  SGN B   1      24.398  23.070  29.1870  0.00  0.00     0.000 O
ATOM     19   S  SGN B   1      23.852  24.266  28.2770  0.00  0.00     0.000 S
ATOM     20   O  SGN B   1      23.136  25.135  29.1880  0.00  0.00     0.000 OA
ATOM     21   O  SGN B   1      25.046  24.864  27.7260  0.00  0.00     0.000 OA
ATOM     22   O  SGN B   1      23.002  23.633  27.2920  0.00  0.00     0.000 OA
ENDBRANCH 5 17
BRANCH 1 23
ATOM     23  O4  IDS B   2      26.670  18.464  30.1050  0.00  0.00     0.000 O
BRANCH 23 27
ATOM     24  C1  IDS B   2      27.224  18.152  26.0030  0.00  0.00     0.000 C
ATOM     25  C2  IDS B   2      26.556  16.935  26.6800  0.00  0.00     0.000 C
ATOM     26  C3  IDS B   2      26.134  17.269  28.1090  0.00  0.00     0.000 C
ATOM     27  C4  IDS B   2      27.269  17.808  28.9680  0.00  0.00     0.000 C
ATOM     28  C5  IDS B   2      28.187  18.712  28.1210  0.00  0.00     0.000 C
ATOM     29  O5  IDS B   2      27.512  19.178  26.9620  0.00  0.00     0.000 O
ATOM     30   O  IDS B   2      25.640  16.092  28.7380  0.00  0.00     0.000 O
ATOM     32  HD  IDS B   2      26.267  15.564  29.0150  0.00  0.00     0.000 HD
BRANCH 25 32
ATOM     32   O  IDS B   2      25.348  16.478  25.9500  0.00  0.00     0.000 O
ATOM     33   S  IDS B   2      25.367  15.140  24.9850  0.00  0.00     0.000 S
ATOM     34   O  IDS B   2      24.098  15.137  24.2730  0.00  0.00     0.000 OA
ATOM     35   O  IDS B   2      26.492  15.223  24.0650  0.00  0.00     0.000 OA
ATOM     36   O  IDS B   2      25.470  14.013  25.8820  0.00  0.00     0.000 OA
ENDBRANCH 25 32
BRANCH 28 37
ATOM     37   C  IDS B   2      28.849  19.920  28.8150  0.00  0.00     0.000 C
ATOM     38   O  IDS B   2      28.511  20.977  28.3370  0.00  0.00     0.000 OA
ATOM     39   O  IDS B   2      29.609  19.894  29.8140  0.00  0.00     0.000 OA
ENDBRANCH 28 37
BRANCH 24 40
ATOM     40  O4  SUS B   3      27.728  18.035  24.7570  0.00  0.00     0.000 O
BRANCH 40 44
ATOM     41  C1  SUS B   3      27.791  20.786  21.5980  0.00  0.00     0.000 C
ATOM     42  C2  SUS B   3      28.834  20.974  22.7180  0.00  0.00     0.000 C
ATOM     43  C3  SUS B   3      28.985  19.665  23.4900  0.00  0.00     0.000 C
ATOM     44  C4  SUS B   3      27.616  19.228  23.9880  0.00  0.00     0.000 C
ATOM     45  C5  SUS B   3      26.714  18.989  22.7950  0.00  0.00     0.000 C
ATOM     46  O5  SUS B   3      26.563  20.236  22.0870  0.00  0.00     0.000 O
BRANCH 42 49
ATOM     47   N  SUS B   3      30.200  21.439  22.4200  0.00  0.00     0.000 N
ATOM     49  HD  SUS B   3      30.840  21.082  22.8820  0.00  0.00     0.000 HD
ATOM     49   S  SUS B   3      30.345  23.031  22.5160  0.00  0.00     0.000 S
ATOM     50   O  SUS B   3      29.965  23.471  23.8010  0.00  0.00     0.000 OA
ATOM     51   O  SUS B   3      31.886  23.081  22.3560  0.00  0.00     0.000 OA
ATOM     52   O  SUS B   3      29.710  23.626  21.4080  0.00  0.00     0.000 OA
ENDBRANCH 42 49
BRANCH 43 53
ATOM     53   O  SUS B   3      29.880  19.914  24.6370  0.00  0.00     0.000 O
ATOM     54   S  SUS B   3      31.309  19.103  24.6630  0.00  0.00     0.000 S
ATOM     55   O  SUS B   3      32.153  19.671  23.6210  0.00  0.00     0.000 OA
ATOM     56   O  SUS B   3      31.812  19.319  26.0070  0.00  0.00     0.000 OA
ATOM     57   O  SUS B   3      30.993  17.699  24.3830  0.00  0.00     0.000 OA
ENDBRANCH 43 53
BRANCH 45 58
ATOM     58   C  SUS B   3      25.360  18.453  23.2060  0.00  0.00     0.000 C
ATOM     59   S  SUS B   3      23.170  19.132  24.3580  0.00  0.00     0.000 S
ATOM     60   O  SUS B   3      24.544  19.536  23.6830  0.00  0.00     0.000 O
ATOM     61   O  SUS B   3      23.521  18.679  25.6910  0.00  0.00     0.000 OA
ATOM     62   O  SUS B   3      22.491  20.400  24.3630  0.00  0.00     0.000 OA
ATOM     63   O  SUS B   3      22.606  18.143  23.5090  0.00  0.00     0.000 OA
ENDBRANCH 45 58
BRANCH 41 64
ATOM     64  O4  IDS B   4      28.284  20.155  20.4820  0.00  0.00     0.000 O
BRANCH 64 68
ATOM     65  C1  IDS B   4      28.685  19.032  17.0390  0.00  0.00     0.000 C
ATOM     66  C2  IDS B   4      29.144  20.436  17.4520  0.00  0.00     0.000 C
ATOM     67  C3  IDS B   4      28.137  21.205  18.2900  0.00  0.00     0.000 C
ATOM     68  C4  IDS B   4      27.443  20.336  19.3220  0.00  0.00     0.000 C
ATOM     69  C5  IDS B   4      27.043  19.018  18.6450  0.00  0.00     0.000 C
ATOM     70  O5  IDS B   4      28.220  18.348  18.1890  0.00  0.00     0.000 O
ATOM     71   O  IDS B   4      27.182  21.749  17.4030  0.00  0.00     0.000 O
ATOM     73  HD  IDS B   4      27.941  21.395  17.6220  0.00  0.00     0.000 HD
BRANCH 66 73
ATOM     73   O  IDS B   4      30.342  20.313  18.2950  0.00  0.00     0.000 O
ATOM     74   S  IDS B   4      31.694  21.052  17.8030  0.00  0.00     0.000 S
ATOM     75   O  IDS B   4      31.979  20.547  16.4770  0.00  0.00     0.000 OA
ATOM     76   O  IDS B   4      32.641  20.635  18.8060  0.00  0.00     0.000 OA
ATOM     77   O  IDS B   4      31.391  22.463  17.8230  0.00  0.00     0.000 OA
ENDBRANCH 66 73
BRANCH 69 78
ATOM     78   C  IDS B   4      26.142  18.126  19.4880  0.00  0.00     0.000 C
ATOM     79   O  IDS B   4      24.959  18.438  19.6210  0.00  0.00     0.000 OA
ATOM     80   O  IDS B   4      26.604  17.057  19.9260  0.00  0.00     0.000 OA
ENDBRANCH 69 78
BRANCH 65 81
ATOM     81  O4  SGN B   5      27.819  19.128  15.9920  0.00  0.00     0.000 O
BRANCH 81 85
ATOM     82  C1  SGN B   5      25.889  16.902  13.0000  0.00  0.00     0.000 C
ATOM     83  C2  SGN B   5      25.266  16.871  14.4040  0.00  0.00     0.000 C
ATOM     84  C3  SGN B   5      25.789  18.058  15.2230  0.00  0.00     0.000 C
ATOM     85  C4  SGN B   5      27.307  18.024  15.2420  0.00  0.00     0.000 C
ATOM     86  C5  SGN B   5      27.806  18.083  13.8000  0.00  0.00     0.000 C
ATOM     87  O5  SGN B   5      27.301  16.938  13.0890  0.00  0.00     0.000 O
ATOM     88   O  SGN B   5      25.266  18.005  16.5330  0.00  0.00     0.000 O
ATOM     90  HD  SGN B   5      24.982  18.522  15.8990  0.00  0.00     0.000 HD
BRANCH 83 92
ATOM     90   N  SGN B   5      24.657  15.539  14.2180  0.00  0.00     0.000 N
ATOM     92  HD  SGN B   5      25.122  14.927  14.6160  0.00  0.00     0.000 HD
ATOM     92   S  SGN B   5      23.074  15.407  14.3920  0.00  0.00     0.000 S
ATOM     93   O  SGN B   5      22.807  14.019  14.1590  0.00  0.00     0.000 OA
ATOM     94   O  SGN B   5      22.774  15.988  15.6550  0.00  0.00     0.000 OA
ATOM     95   O  SGN B   5      22.493  16.313  13.3280  0.00  0.00     0.000 OA
ENDBRANCH 83 92
BRANCH 86 96
ATOM     96   C  SGN B   5      29.315  18.069  13.6640  0.00  0.00     0.000 C
ATOM     97   O  SGN B   5      29.840  16.792  14.0340  0.00  0.00     0.000 O
ATOM     98   S  SGN B   5      30.843  16.111  12.9840  0.00  0.00     0.000 S
ATOM     99   O  SGN B   5      31.344  14.972  13.7160  0.00  0.00     0.000 OA
ATOM    100   O  SGN B   5      30.092  15.787  11.8250  0.00  0.00     0.000 OA
ATOM    101   O  SGN B   5      31.835  17.108  12.7430  0.00  0.00     0.000 OA
ENDBRANCH 86 96
BRANCH 82 102
ATOM    102  O4  IDS B   6      25.434  17.944  12.2470  0.00  0.00     0.000 O
BRANCH 102 106
ATOM    103  C1  IDS B   6      24.002  19.651   9.3680  0.00  0.00     0.000 C
ATOM    104  C2  IDS B   6      23.215  18.555  10.1030  0.00  0.00     0.000 C
ATOM    105  C3  IDS B   6      23.996  17.288  10.3950  0.00  0.00     0.000 C
ATOM    106  C4  IDS B   6      25.419  17.567  10.8470  0.00  0.00     0.000 C
ATOM    107  C5  IDS B   6      26.030  18.672   9.9790  0.00  0.00     0.000 C
ATOM    108  O5  IDS B   6      25.246  19.866  10.0070  0.00  0.00     0.000 O
ATOM    109   O  IDS B   6      23.988  16.485   9.2260  0.00  0.00     0.000 O
ATOM    111  HD  IDS B   6      23.840  17.050   8.5860  0.00  0.00     0.000 HD
BRANCH 104 111
ATOM    111   O  IDS B   6      22.797  19.065  11.4180  0.00  0.00     0.000 O
ATOM    112   S  IDS B   6      21.260  19.461  11.6190  0.00  0.00     0.000 S
ATOM    113   O  IDS B   6      21.010  20.480  10.6110  0.00  0.00     0.000 OA
ATOM    114   O  IDS B   6      20.445  18.249  11.4790  0.00  0.00     0.000 OA
ATOM    115   O  IDS B   6      21.325  19.975  12.9700  0.00  0.00     0.000 OA
ENDBRANCH 104 111
BRANCH 107 116
ATOM    116   C  IDS B   6      27.443  18.969  10.4640  0.00  0.00     0.000 C
ATOM    117   O  IDS B   6      28.279  18.130  10.2450  0.00  0.00     0.000 OA
ATOM    118   O  IDS B   6      27.707  20.005  11.0530  0.00  0.00     0.000 OA
ENDBRANCH 107 116
BRANCH 103 119
ATOM    119  O4  SGN B   7      23.932  19.277   8.0650  0.00  0.00     0.000 O
BRANCH 119 123
ATOM    120  C1  SGN B   7      24.101  21.250   4.3810  0.00  0.00     0.000 C
ATOM    121  C2  SGN B   7      25.210  21.556   5.4060  0.00  0.00     0.000 C
ATOM    122  C3  SGN B   7      25.237  20.485   6.5040  0.00  0.00     0.000 C
ATOM    123  C4  SGN B   7      23.855  20.343   7.1180  0.00  0.00     0.000 C
ATOM    124  C5  SGN B   7      22.822  20.047   6.0170  0.00  0.00     0.000 C
ATOM    125  O5  SGN B   7      22.830  21.080   5.0070  0.00  0.00     0.000 O
ATOM    126   O  SGN B   7      26.210  20.852   7.4880  0.00  0.00     0.000 O
ATOM    128  HD  SGN B   7      25.864  20.995   6.7070  0.00  0.00     0.000 HD
BRANCH 121 130
ATOM    128   N  SGN B   7      25.682  22.852   4.9120  0.00  0.00     0.000 N
ATOM    130  HD  SGN B   7      26.173  22.950   5.6190  0.00  0.00     0.000 HD
ATOM    130   S  SGN B   7      27.175  23.063   4.3450  0.00  0.00     0.000 S
ATOM    131   O  SGN B   7      27.363  22.020   3.3950  0.00  0.00     0.000 OA
ATOM    132   O  SGN B   7      27.317  24.420   3.9570  0.00  0.00     0.000 OA
ATOM    133   O  SGN B   7      27.999  22.941   5.6710  0.00  0.00     0.000 OA
ENDBRANCH 121 130
BRANCH 124 134
ATOM    134   C  SGN B   7      21.406  20.003   6.5100  0.00  0.00     0.000 C
ATOM    135   O  SGN B   7      20.823  21.307   6.3450  0.00  0.00     0.000 O
ATOM    136   S  SGN B   7      19.290  21.434   6.6610  0.00  0.00     0.000 S
ATOM    137   O  SGN B   7      18.962  22.833   6.5280  0.00  0.00     0.000 OA
ATOM    138   O  SGN B   7      19.140  20.945   8.0130  0.00  0.00     0.000 OA
ATOM    139   O  SGN B   7      18.689  20.586   5.6440  0.00  0.00     0.000 OA
ENDBRANCH 124 134
BRANCH 120 140
ATOM    140  O4  IDS B   8      24.042  20.237   3.5100  0.00  0.00     0.000 O
BRANCH 140 144
ATOM    141  C1  IDS B   8      25.013  17.566   1.3000  0.00  0.00     0.000 C
ATOM    142  C2  IDS B   8      25.822  18.893   1.3540  0.00  0.00     0.000 C
ATOM    143  C3  IDS B   8      24.932  20.147   1.2630  0.00  0.00     0.000 C
ATOM    144  C4  IDS B   8      23.685  20.029   2.1380  0.00  0.00     0.000 C
ATOM    145  C5  IDS B   8      23.045  18.643   1.9630  0.00  0.00     0.000 C
ATOM    146  O5  IDS B   8      23.965  17.596   2.2610  0.00  0.00     0.000 O
BRANCH 142 147
ATOM    147   O  IDS B   8      26.561  18.971   2.6410  0.00  0.00     0.000 O
ATOM    148   S  IDS B   8      27.999  18.243   2.8250  0.00  0.00     0.000 S
ATOM    149   O  IDS B   8      28.146  17.287   1.7510  0.00  0.00     0.000 OA
ATOM    150   O  IDS B   8      28.982  19.308   2.7680  0.00  0.00     0.000 OA
ATOM    151   O  IDS B   8      27.935  17.595   4.1210  0.00  0.00     0.000 OA
ENDBRANCH 142 147
BRANCH 145 152
ATOM    152   C  IDS B   8      21.858  18.429   2.8810  0.00  0.00     0.000 C
ATOM    153   O  IDS B   8      21.863  17.487   3.6660  0.00  0.00     0.000 OA
ATOM    154   O  IDS B   8      20.921  19.207   2.8450  0.00  0.00     0.000 OA
ENDBRANCH 145 152
ENDBRANCH 140 144
ENDBRANCH 120 140
ENDBRANCH 119 123
ENDBRANCH 103 119
ENDBRANCH 102 106
ENDBRANCH 82 102
ENDBRANCH 81 85
ENDBRANCH 65 81
ENDBRANCH 64 68
ENDBRANCH 41 64
ENDBRANCH 40 44
ENDBRANCH 24 40
ENDBRANCH 23 27
ENDBRANCH 1 23
TORSDOF 31
ENDMDL
MODEL 91
REMARK VINA RESULT:      -6.6      8.874     15.183
ROOT
ATOM      1  C1  SGN B   1      26.669  18.924  25.1730  0.00  0.00     0.000 C
ATOM      2  C2  SGN B   1      27.969  18.442  24.5100  0.00  0.00     0.000 C
ATOM      3  C3  SGN B   1      27.730  18.091  23.0370  0.00  0.00     0.000 C
ATOM      4  C4  SGN B   1      26.613  17.060  22.9170  0.00  0.00     0.000 C
ATOM      5  C5  SGN B   1      25.403  17.539  23.7160  0.00  0.00     0.000 C
ATOM      6  O5  SGN B   1      25.798  17.804  25.0760  0.00  0.00     0.000 O
ATOM      7   O  SGN B   1      28.925  17.603  22.4390  0.00  0.00     0.000 O
ATOM      9  HD  SGN B   1      28.790  17.019  23.0640  0.00  0.00     0.000 HD
ATOM      9   O  SGN B   1      26.265  16.899  21.5540  0.00  0.00     0.000 O
ATOM     11  HD  SGN B   1      26.130  16.315  22.1790  0.00  0.00     0.000 HD
ENDROOT
BRANCH 2 13
ATOM     11   N  SGN B   1      28.990  19.501  24.6240  0.00  0.00     0.000 N
ATOM     13  HD  SGN B   1      28.968  18.848  25.1920  0.00  0.00     0.000 HD
ATOM     13   S  SGN B   1      29.641  19.918  26.0350  0.00  0.00     0.000 S
ATOM     14   O  SGN B   1      29.130  19.102  27.0660  0.00  0.00     0.000 OA
ATOM     15   O  SGN B   1      31.051  20.031  25.8650  0.00  0.00     0.000 OA
ATOM     16   O  SGN B   1      29.071  21.367  26.1240  0.00  0.00     0.000 OA
ENDBRANCH 2 13
BRANCH 5 17
ATOM     17   C  SGN B   1      24.266  16.549  23.7630  0.00  0.00     0.000 C
ATOM     18   O  SGN B   1      23.047  17.185  24.1940  0.00  0.00     0.000 O
ATOM     19   S  SGN B   1      22.193  16.395  25.2920  0.00  0.00     0.000 S
ATOM     20   O  SGN B   1      20.936  17.107  25.3740  0.00  0.00     0.000 OA
ATOM     21   O  SGN B   1      22.068  15.062  24.7490  0.00  0.00     0.000 OA
ATOM     22   O  SGN B   1      22.980  16.464  26.5040  0.00  0.00     0.000 OA
ENDBRANCH 5 17
BRANCH 1 23
ATOM     23  O4  IDS B   2      25.962  20.068  25.3980  0.00  0.00     0.000 O
BRANCH 23 27
ATOM     24  C1  IDS B   2      22.470  20.509  23.1990  0.00  0.00     0.000 C
ATOM     25  C2  IDS B   2      23.766  20.960  22.4900  0.00  0.00     0.000 C
ATOM     26  C3  IDS B   2      25.000  20.485  23.2530  0.00  0.00     0.000 C
ATOM     27  C4  IDS B   2      25.010  20.910  24.7160  0.00  0.00     0.000 C
ATOM     28  C5  IDS B   2      23.580  20.852  25.2910  0.00  0.00     0.000 C
ATOM     29  O5  IDS B   2      22.753  20.003  24.5100  0.00  0.00     0.000 O
ATOM     30   O  IDS B   2      26.166  21.023  22.6410  0.00  0.00     0.000 O
ATOM     32  HD  IDS B   2      26.314  21.849  22.8560  0.00  0.00     0.000 HD
BRANCH 25 32
ATOM     32   O  IDS B   2      23.863  20.430  21.1070  0.00  0.00     0.000 O
ATOM     33   S  IDS B   2      23.928  21.428  19.7940  0.00  0.00     0.000 S
ATOM     34   O  IDS B   2      23.790  20.571  18.6280  0.00  0.00     0.000 OA
ATOM     35   O  IDS B   2      22.847  22.400  19.8710  0.00  0.00     0.000 OA
ATOM     36   O  IDS B   2      25.231  22.049  19.8400  0.00  0.00     0.000 OA
ENDBRANCH 25 32
BRANCH 28 37
ATOM     37   C  IDS B   2      23.416  20.459  26.7740  0.00  0.00     0.000 C
ATOM     38   O  IDS B   2      22.828  19.414  26.9180  0.00  0.00     0.000 OA
ATOM     39   O  IDS B   2      23.873  21.069  27.7720  0.00  0.00     0.000 OA
ENDBRANCH 28 37
BRANCH 24 40
ATOM     40  O4  SUS B   3      21.270  20.891  22.7130  0.00  0.00     0.000 O
BRANCH 40 44
ATOM     41  C1  SUS B   3      17.615  18.848  22.5990  0.00  0.00     0.000 C
ATOM     42  C2  SUS B   3      18.130  19.294  23.9820  0.00  0.00     0.000 C
ATOM     43  C3  SUS B   3      19.168  20.400  23.8000  0.00  0.00     0.000 C
ATOM     44  C4  SUS B   3      20.259  19.901  22.8650  0.00  0.00     0.000 C
ATOM     45  C5  SUS B   3      19.643  19.583  21.5180  0.00  0.00     0.000 C
ATOM     46  O5  SUS B   3      18.681  18.524  21.7010  0.00  0.00     0.000 O
BRANCH 42 49
ATOM     47   N  SUS B   3      16.872  18.655  24.4030  0.00  0.00     0.000 N
ATOM     49  HD  SUS B   3      16.141  18.986  24.0760  0.00  0.00     0.000 HD
ATOM     49   S  SUS B   3      16.717  18.583  25.9950  0.00  0.00     0.000 S
ATOM     50   O  SUS B   3      16.796  19.879  26.5440  0.00  0.00     0.000 OA
ATOM     51   O  SUS B   3      15.254  18.071  26.0110  0.00  0.00     0.000 OA
ATOM     52   O  SUS B   3      17.593  17.604  26.5060  0.00  0.00     0.000 OA
ENDBRANCH 42 49
BRANCH 43 53
ATOM     53   O  SUS B   3      19.744  20.707  25.1230  0.00  0.00     0.000 O
ATOM     54   S  SUS B   3      19.651  22.265  25.6380  0.00  0.00     0.000 S
ATOM     55   O  SUS B   3      18.256  22.537  25.9560  0.00  0.00     0.000 OA
ATOM     56   O  SUS B   3      20.534  22.308  26.7900  0.00  0.00     0.000 OA
ATOM     57   O  SUS B   3      20.114  23.098  24.5240  0.00  0.00     0.000 OA
ENDBRANCH 43 53
BRANCH 45 58
ATOM     58   C  SUS B   3      20.685  19.174  20.5000  0.00  0.00     0.000 C
ATOM     59   S  SUS B   3      22.041  17.157  19.6780  0.00  0.00     0.000 S
ATOM     60   O  SUS B   3      20.839  17.745  20.5240  0.00  0.00     0.000 O
ATOM     61   O  SUS B   3      23.224  17.396  20.4830  0.00  0.00     0.000 OA
ATOM     62   O  SUS B   3      21.677  15.766  19.6260  0.00  0.00     0.000 OA
ATOM     63   O  SUS B   3      22.002  17.842  18.4350  0.00  0.00     0.000 OA
ENDBRANCH 45 58
BRANCH 41 64
ATOM     64  O4  IDS B   4      16.666  19.686  22.0660  0.00  0.00     0.000 O
BRANCH 64 68
ATOM     65  C1  IDS B   4      13.329  20.422  20.8020  0.00  0.00     0.000 C
ATOM     66  C2  IDS B   4      13.525  19.360  21.8920  0.00  0.00     0.000 C
ATOM     67  C3  IDS B   4      14.657  18.384  21.6200  0.00  0.00     0.000 C
ATOM     68  C4  IDS B   4      15.884  19.052  21.0290  0.00  0.00     0.000 C
ATOM     69  C5  IDS B   4      15.418  20.024  19.9360  0.00  0.00     0.000 C
ATOM     70  O5  IDS B   4      14.580  21.023  20.5210  0.00  0.00     0.000 O
ATOM     71   O  IDS B   4      14.165  17.410  20.7230  0.00  0.00     0.000 O
ATOM     73  HD  IDS B   4      14.101  18.049  21.3040  0.00  0.00     0.000 HD
BRANCH 66 73
ATOM     73   O  IDS B   4      13.881  20.033  23.1490  0.00  0.00     0.000 O
ATOM     74   S  IDS B   4      12.765  20.096  24.3180  0.00  0.00     0.000 S
ATOM     75   O  IDS B   4      11.601  20.733  23.7390  0.00  0.00     0.000 OA
ATOM     76   O  IDS B   4      13.431  20.890  25.3200  0.00  0.00     0.000 OA
ATOM     77   O  IDS B   4      12.533  18.725  24.7040  0.00  0.00     0.000 OA
ENDBRANCH 66 73
BRANCH 69 78
ATOM     78   C  IDS B   4      16.543  20.612  19.0960  0.00  0.00     0.000 C
ATOM     79   O  IDS B   4      17.453  19.871  18.7250  0.00  0.00     0.000 OA
ATOM     80   O  IDS B   4      16.452  21.796  18.7220  0.00  0.00     0.000 OA
ENDBRANCH 69 78
BRANCH 65 81
ATOM     81  O4  SGN B   5      12.662  19.872  19.7490  0.00  0.00     0.000 O
BRANCH 81 85
ATOM     82  C1  SGN B   5       9.804  20.651  16.7720  0.00  0.00     0.000 C
ATOM     83  C2  SGN B   5      11.171  21.336  16.6230  0.00  0.00     0.000 C
ATOM     84  C3  SGN B   5      12.207  20.606  17.4880  0.00  0.00     0.000 C
ATOM     85  C4  SGN B   5      11.717  20.558  18.9250  0.00  0.00     0.000 C
ATOM     86  C5  SGN B   5      10.370  19.838  18.9480  0.00  0.00     0.000 C
ATOM     87  O5  SGN B   5       9.437  20.578  18.1370  0.00  0.00     0.000 O
ATOM     88   O  SGN B   5      13.453  21.263  17.4010  0.00  0.00     0.000 O
ATOM     90  HD  SGN B   5      13.239  20.535  16.9830  0.00  0.00     0.000 HD
BRANCH 83 92
ATOM     90   N  SGN B   5      10.412  21.988  15.5390  0.00  0.00     0.000 N
ATOM     92  HD  SGN B   5       9.726  22.414  15.8520  0.00  0.00     0.000 HD
ATOM     92   S  SGN B   5      11.233  22.766  14.4090  0.00  0.00     0.000 S
ATOM     93   O  SGN B   5      10.227  23.280  13.5290  0.00  0.00     0.000 OA
ATOM     94   O  SGN B   5      12.095  23.659  15.1050  0.00  0.00     0.000 OA
ATOM     95   O  SGN B   5      12.103  21.707  13.7680  0.00  0.00     0.000 OA
ENDBRANCH 83 92
BRANCH 86 96
ATOM     96   C  SGN B   5       9.761  19.705  20.3280  0.00  0.00     0.000 C
ATOM     97   O  SGN B   5       8.998  18.500  20.4260  0.00  0.00     0.000 O
ATOM     98   S  SGN B   5       9.322  17.560  21.6840  0.00  0.00     0.000 S
ATOM     99   O  SGN B   5       8.278  16.565  21.6140  0.00  0.00     0.000 OA
ATOM    100   O  SGN B   5      10.636  17.053  21.5110  0.00  0.00     0.000 OA
ATOM    101   O  SGN B   5       9.203  18.424  22.8130  0.00  0.00     0.000 OA
ENDBRANCH 86 96
BRANCH 82 102
ATOM    102  O4  IDS B   6       9.773  19.412  16.2050  0.00  0.00     0.000 O
BRANCH 102 106
ATOM    103  C1  IDS B   6       7.834  17.173  14.0880  0.00  0.00     0.000 C
ATOM    104  C2  IDS B   6       7.585  18.690  14.0640  0.00  0.00     0.000 C
ATOM    105  C3  IDS B   6       7.467  19.343  15.4270  0.00  0.00     0.000 C
ATOM    106  C4  IDS B   6       8.475  18.803  16.4260  0.00  0.00     0.000 C
ATOM    107  C5  IDS B   6       8.560  17.279  16.3030  0.00  0.00     0.000 C
ATOM    108  O5  IDS B   6       8.893  16.870  14.9750  0.00  0.00     0.000 O
ATOM    109   O  IDS B   6       6.142  19.151  15.8950  0.00  0.00     0.000 O
ATOM    111  HD  IDS B   6       5.865  18.456  15.4580  0.00  0.00     0.000 HD
BRANCH 104 111
ATOM    111   O  IDS B   6       8.726  19.352  13.4130  0.00  0.00     0.000 O
ATOM    112   S  IDS B   6       8.441  20.228  12.1040  0.00  0.00     0.000 S
ATOM    113   O  IDS B   6       7.831  19.298  11.1660  0.00  0.00     0.000 OA
ATOM    114   O  IDS B   6       7.592  21.364  12.4810  0.00  0.00     0.000 OA
ATOM    115   O  IDS B   6       9.800  20.595  11.7680  0.00  0.00     0.000 OA
ENDBRANCH 104 111
BRANCH 107 116
ATOM    116   C  IDS B   6       9.600  16.752  17.2830  0.00  0.00     0.000 C
ATOM    117   O  IDS B   6      10.708  17.219  17.2010  0.00  0.00     0.000 OA
ATOM    118   O  IDS B   6       9.322  15.890  18.1020  0.00  0.00     0.000 OA
ENDBRANCH 107 116
BRANCH 103 119
ATOM    119  O4  SGN B   7       6.594  16.647  14.2620  0.00  0.00     0.000 O
BRANCH 119 123
ATOM    120  C1  SGN B   7       4.633  13.092  13.2590  0.00  0.00     0.000 C
ATOM    121  C2  SGN B   7       5.679  13.036  14.3880  0.00  0.00     0.000 C
ATOM    122  C3  SGN B   7       5.997  14.447  14.8970  0.00  0.00     0.000 C
ATOM    123  C4  SGN B   7       6.398  15.336  13.7310  0.00  0.00     0.000 C
ATOM    124  C5  SGN B   7       5.296  15.319  12.6590  0.00  0.00     0.000 C
ATOM    125  O5  SGN B   7       5.030  13.972  12.2080  0.00  0.00     0.000 O
ATOM    126   O  SGN B   7       7.042  14.366  15.8740  0.00  0.00     0.000 O
ATOM    128  HD  SGN B   7       6.464  13.952  15.3790  0.00  0.00     0.000 HD
BRANCH 121 130
ATOM    128   N  SGN B   7       5.945  11.595  14.3660  0.00  0.00     0.000 N
ATOM    130  HD  SGN B   7       6.641  11.708  14.8690  0.00  0.00     0.000 HD
ATOM    130   S  SGN B   7       5.679  10.653  15.6450  0.00  0.00     0.000 S
ATOM    131   O  SGN B   7       4.351  10.953  16.0580  0.00  0.00     0.000 OA
ATOM    132   O  SGN B   7       6.041   9.324  15.3030  0.00  0.00     0.000 OA
ATOM    133   O  SGN B   7       6.823  11.142  16.5970  0.00  0.00     0.000 OA
ENDBRANCH 121 130
BRANCH 124 134
ATOM    134   C  SGN B   7       5.649  16.078  11.4140  0.00  0.00     0.000 C
ATOM    135   O  SGN B   7       4.780  15.646  10.3530  0.00  0.00     0.000 O
ATOM    136   S  SGN B   7       4.886  16.432   8.9970  0.00  0.00     0.000 S
ATOM    137   O  SGN B   7       4.008  15.761   8.0690  0.00  0.00     0.000 OA
ATOM    138   O  SGN B   7       6.279  16.348   8.6190  0.00  0.00     0.000 OA
ATOM    139   O  SGN B   7       4.444  17.766   9.3730  0.00  0.00     0.000 OA
ENDBRANCH 124 134
BRANCH 120 140
ATOM    140  O4  IDS B   8       3.345  13.440  13.3470  0.00  0.00     0.000 O
BRANCH 140 144
ATOM    141  C1  IDS B   8       0.478  15.307  14.4680  0.00  0.00     0.000 C
ATOM    142  C2  IDS B   8       1.654  14.990  15.4350  0.00  0.00     0.000 C
ATOM    143  C3  IDS B   8       2.078  13.510  15.4060  0.00  0.00     0.000 C
ATOM    144  C4  IDS B   8       2.152  12.963  13.9810  0.00  0.00     0.000 C
ATOM    145  C5  IDS B   8       0.917  13.403  13.1800  0.00  0.00     0.000 C
ATOM    146  O5  IDS B   8       0.776  14.821  13.1640  0.00  0.00     0.000 O
BRANCH 142 147
ATOM    147   O  IDS B   8       2.843  15.796  15.0500  0.00  0.00     0.000 O
ATOM    148   S  IDS B   8       3.197  17.182  15.8140  0.00  0.00     0.000 S
ATOM    149   O  IDS B   8       2.017  17.595  16.5400  0.00  0.00     0.000 OA
ATOM    150   O  IDS B   8       4.312  16.868  16.6880  0.00  0.00     0.000 OA
ATOM    151   O  IDS B   8       3.543  18.120  14.7640  0.00  0.00     0.000 OA
ENDBRANCH 142 147
BRANCH 145 152
ATOM    152   C  IDS B   8       0.980  12.974  11.7280  0.00  0.00     0.000 C
ATOM    153   O  IDS B   8       1.212  13.808  10.8610  0.00  0.00     0.000 OA
ATOM    154   O  IDS B   8       0.820  11.801  11.4400  0.00  0.00     0.000 OA
ENDBRANCH 145 152
ENDBRANCH 140 144
ENDBRANCH 120 140
ENDBRANCH 119 123
ENDBRANCH 103 119
ENDBRANCH 102 106
ENDBRANCH 82 102
ENDBRANCH 81 85
ENDBRANCH 65 81
ENDBRANCH 64 68
ENDBRANCH 41 64
ENDBRANCH 40 44
ENDBRANCH 24 40
ENDBRANCH 23 27
ENDBRANCH 1 23
TORSDOF 31
ENDMDL
MODEL 92
REMARK VINA RESULT:      -6.6     10.432     19.878
ROOT
ATOM      1  C1  SGN B   1      19.733  19.889  19.5410  0.00  0.00     0.000 C
ATOM      2  C2  SGN B   1      18.691  18.772  19.3710  0.00  0.00     0.000 C
ATOM      3  C3  SGN B   1      19.216  17.449  19.9400  0.00  0.00     0.000 C
ATOM      4  C4  SGN B   1      20.549  17.090  19.2920  0.00  0.00     0.000 C
ATOM      5  C5  SGN B   1      21.485  18.294  19.3720  0.00  0.00     0.000 C
ATOM      6  O5  SGN B   1      20.846  19.441  18.7780  0.00  0.00     0.000 O
ATOM      7   O  SGN B   1      18.268  16.407  19.7410  0.00  0.00     0.000 O
ATOM      9  HD  SGN B   1      18.444  16.643  18.9270  0.00  0.00     0.000 HD
ATOM      9   O  SGN B   1      21.118  15.983  19.9680  0.00  0.00     0.000 O
ATOM     11  HD  SGN B   1      21.294  16.219  19.1530  0.00  0.00     0.000 HD
ENDROOT
BRANCH 2 13
ATOM     11   N  SGN B   1      17.519  19.396  18.7290  0.00  0.00     0.000 N
ATOM     13  HD  SGN B   1      17.913  19.783  19.3960  0.00  0.00     0.000 HD
ATOM     13   S  SGN B   1      16.518  20.369  19.5290  0.00  0.00     0.000 S
ATOM     14   O  SGN B   1      16.968  20.546  20.8540  0.00  0.00     0.000 OA
ATOM     15   O  SGN B   1      16.258  21.512  18.7200  0.00  0.00     0.000 OA
ATOM     16   O  SGN B   1      15.245  19.470  19.4780  0.00  0.00     0.000 OA
ENDBRANCH 2 13
BRANCH 5 17
ATOM     17   C  SGN B   1      22.802  18.097  18.6650  0.00  0.00     0.000 C
ATOM     18   O  SGN B   1      23.403  19.364  18.3320  0.00  0.00     0.000 O
ATOM     19   S  SGN B   1      23.998  19.492  16.8530  0.00  0.00     0.000 S
ATOM     20   O  SGN B   1      24.735  20.738  16.8520  0.00  0.00     0.000 OA
ATOM     21   O  SGN B   1      24.835  18.324  16.7080  0.00  0.00     0.000 OA
ATOM     22   O  SGN B   1      22.843  19.501  15.9820  0.00  0.00     0.000 OA
ENDBRANCH 5 17
BRANCH 1 23
ATOM     23  O4  IDS B   2      20.112  20.850  20.4310  0.00  0.00     0.000 O
BRANCH 23 27
ATOM     24  C1  IDS B   2      23.064  19.673  23.1000  0.00  0.00     0.000 C
ATOM     25  C2  IDS B   2      21.613  19.375  23.5370  0.00  0.00     0.000 C
ATOM     26  C3  IDS B   2      20.642  19.570  22.3750  0.00  0.00     0.000 C
ATOM     27  C4  IDS B   2      20.739  20.944  21.7270  0.00  0.00     0.000 C
ATOM     28  C5  IDS B   2      22.209  21.409  21.6920  0.00  0.00     0.000 C
ATOM     29  O5  IDS B   2      23.093  20.304  21.8140  0.00  0.00     0.000 O
ATOM     30   O  IDS B   2      19.310  19.410  22.8470  0.00  0.00     0.000 O
ATOM     32  HD  IDS B   2      19.006  20.109  23.2570  0.00  0.00     0.000 HD
BRANCH 25 32
ATOM     32   O  IDS B   2      21.449  17.986  24.0300  0.00  0.00     0.000 O
ATOM     33   S  IDS B   2      21.110  17.656  25.6120  0.00  0.00     0.000 S
ATOM     34   O  IDS B   2      21.245  16.216  25.7630  0.00  0.00     0.000 OA
ATOM     35   O  IDS B   2      22.046  18.372  26.4670  0.00  0.00     0.000 OA
ATOM     36   O  IDS B   2      19.744  18.081  25.8140  0.00  0.00     0.000 OA
ENDBRANCH 25 32
BRANCH 28 37
ATOM     37   C  IDS B   2      22.665  22.266  20.4940  0.00  0.00     0.000 C
ATOM     38   O  IDS B   2      23.755  21.947  20.0790  0.00  0.00     0.000 OA
ATOM     39   O  IDS B   2      22.008  23.166  19.9150  0.00  0.00     0.000 OA
ENDBRANCH 28 37
BRANCH 24 40
ATOM     40  O4  SUS B   3      24.063  19.622  24.0060  0.00  0.00     0.000 O
BRANCH 40 44
ATOM     41  C1  SUS B   3      28.102  18.613  23.5390  0.00  0.00     0.000 C
ATOM     42  C2  SUS B   3      27.630  19.942  22.9150  0.00  0.00     0.000 C
ATOM     43  C3  SUS B   3      26.320  20.369  23.5720  0.00  0.00     0.000 C
ATOM     44  C4  SUS B   3      25.314  19.236  23.4470  0.00  0.00     0.000 C
ATOM     45  C5  SUS B   3      25.851  18.021  24.1750  0.00  0.00     0.000 C
ATOM     46  O5  SUS B   3      27.076  17.615  23.5310  0.00  0.00     0.000 O
BRANCH 42 49
ATOM     47   N  SUS B   3      28.451  21.164  22.8760  0.00  0.00     0.000 N
ATOM     49  HD  SUS B   3      28.029  21.917  22.9500  0.00  0.00     0.000 HD
ATOM     49   S  SUS B   3      29.382  21.242  21.5740  0.00  0.00     0.000 S
ATOM     50   O  SUS B   3      28.588  21.167  20.4120  0.00  0.00     0.000 OA
ATOM     51   O  SUS B   3      29.886  22.691  21.8000  0.00  0.00     0.000 OA
ATOM     52   O  SUS B   3      30.441  20.321  21.7020  0.00  0.00     0.000 OA
ENDBRANCH 42 49
BRANCH 43 53
ATOM     53   O  SUS B   3      25.823  21.563  22.8610  0.00  0.00     0.000 O
ATOM     54   S  SUS B   3      25.594  22.925  23.7520  0.00  0.00     0.000 S
ATOM     55   O  SUS B   3      26.909  23.438  24.1100  0.00  0.00     0.000 OA
ATOM     56   O  SUS B   3      24.845  23.801  22.8690  0.00  0.00     0.000 OA
ATOM     57   O  SUS B   3      24.839  22.522  24.9420  0.00  0.00     0.000 OA
ENDBRANCH 43 53
BRANCH 45 58
ATOM     58   C  SUS B   3      24.859  16.879  24.1810  0.00  0.00     0.000 C
ATOM     59   S  SUS B   3      23.669  15.213  22.6330  0.00  0.00     0.000 S
ATOM     60   O  SUS B   3      24.811  16.284  22.8730  0.00  0.00     0.000 O
ATOM     61   O  SUS B   3      22.459  15.987  22.4330  0.00  0.00     0.000 OA
ATOM     62   O  SUS B   3      24.136  14.589  21.4240  0.00  0.00     0.000 OA
ATOM     63   O  SUS B   3      23.677  14.384  23.7870  0.00  0.00     0.000 OA
ENDBRANCH 45 58
BRANCH 41 64
ATOM     64  O4  IDS B   4      28.730  18.764  24.7510  0.00  0.00     0.000 O
BRANCH 64 68
ATOM     65  C1  IDS B   4      31.706  19.272  26.7910  0.00  0.00     0.000 C
ATOM     66  C2  IDS B   4      31.647  19.822  25.3600  0.00  0.00     0.000 C
ATOM     67  C3  IDS B   4      31.127  18.835  24.3290  0.00  0.00     0.000 C
ATOM     68  C4  IDS B   4      29.960  18.010  24.8380  0.00  0.00     0.000 C
ATOM     69  C5  IDS B   4      30.290  17.543  26.2620  0.00  0.00     0.000 C
ATOM     70  O5  IDS B   4      30.456  18.685  27.1060  0.00  0.00     0.000 O
ATOM     71   O  IDS B   4      32.200  17.982  23.9860  0.00  0.00     0.000 O
ATOM     73  HD  IDS B   4      31.835  18.695  24.3150  0.00  0.00     0.000 HD
BRANCH 66 73
ATOM     73   O  IDS B   4      30.710  20.953  25.3260  0.00  0.00     0.000 O
ATOM     74   S  IDS B   4      31.327  22.447  25.2600  0.00  0.00     0.000 S
ATOM     75   O  IDS B   4      32.207  22.578  26.4020  0.00  0.00     0.000 OA
ATOM     76   O  IDS B   4      30.140  23.261  25.3360  0.00  0.00     0.000 OA
ATOM     77   O  IDS B   4      32.019  22.522  23.9950  0.00  0.00     0.000 OA
ENDBRANCH 66 73
BRANCH 69 78
ATOM     78   C  IDS B   4      29.315  16.522  26.8320  0.00  0.00     0.000 C
ATOM     79   O  IDS B   4      29.744  15.655  27.5920  0.00  0.00     0.000 OA
ATOM     80   O  IDS B   4      28.101  16.662  26.5950  0.00  0.00     0.000 OA
ENDBRANCH 69 78
BRANCH 65 81
ATOM     81  O4  SGN B   5      32.807  18.481  26.9280  0.00  0.00     0.000 O
BRANCH 81 85
ATOM     82  C1  SGN B   5      35.870  17.376  29.5800  0.00  0.00     0.000 C
ATOM     83  C2  SGN B   5      34.469  16.811  29.8570  0.00  0.00     0.000 C
ATOM     84  C3  SGN B   5      33.612  16.916  28.5880  0.00  0.00     0.000 C
ATOM     85  C4  SGN B   5      33.591  18.359  28.1160  0.00  0.00     0.000 C
ATOM     86  C5  SGN B   5      35.029  18.798  27.8530  0.00  0.00     0.000 C
ATOM     87  O5  SGN B   5      35.776  18.696  29.0800  0.00  0.00     0.000 O
ATOM     88   O  SGN B   5      32.306  16.451  28.8510  0.00  0.00     0.000 O
ATOM     90  HD  SGN B   5      32.924  16.006  28.4390  0.00  0.00     0.000 HD
BRANCH 83 92
ATOM     90   N  SGN B   5      35.018  15.595  30.4890  0.00  0.00     0.000 N
ATOM     92  HD  SGN B   5      35.873  15.537  30.3600  0.00  0.00     0.000 HD
ATOM     92   S  SGN B   5      34.529  15.229  31.9660  0.00  0.00     0.000 S
ATOM     93   O  SGN B   5      35.237  14.026  32.2850  0.00  0.00     0.000 OA
ATOM     94   O  SGN B   5      34.733  16.404  32.7420  0.00  0.00     0.000 OA
ATOM     95   O  SGN B   5      33.035  15.026  31.8370  0.00  0.00     0.000 OA
ENDBRANCH 83 92
BRANCH 86 96
ATOM     96   C  SGN B   5      35.162  20.225  27.3610  0.00  0.00     0.000 C
ATOM     97   O  SGN B   5      35.093  21.142  28.4550  0.00  0.00     0.000 O
ATOM     98   S  SGN B   5      36.268  22.230  28.5410  0.00  0.00     0.000 S
ATOM     99   O  SGN B   5      35.815  23.106  29.5940  0.00  0.00     0.000 OA
ATOM    100   O  SGN B   5      37.472  21.535  28.8250  0.00  0.00     0.000 OA
ATOM    101   O  SGN B   5      36.274  22.847  27.2540  0.00  0.00     0.000 OA
ENDBRANCH 86 96
BRANCH 82 102
ATOM    102  O4  IDS B   6      36.591  16.595  28.7270  0.00  0.00     0.000 O
BRANCH 102 106
ATOM    103  C1  IDS B   6      39.685  14.867  27.8920  0.00  0.00     0.000 C
ATOM    104  C2  IDS B   6      39.268  15.068  29.3570  0.00  0.00     0.000 C
ATOM    105  C3  IDS B   6      38.815  16.471  29.7110  0.00  0.00     0.000 C
ATOM    106  C4  IDS B   6      37.948  17.097  28.6320  0.00  0.00     0.000 C
ATOM    107  C5  IDS B   6      38.544  16.800  27.2530  0.00  0.00     0.000 C
ATOM    108  O5  IDS B   6      38.696  15.397  27.0290  0.00  0.00     0.000 O
ATOM    109   O  IDS B   6      39.969  17.260  29.9500  0.00  0.00     0.000 O
ATOM    111  HD  IDS B   6      40.597  16.846  29.5210  0.00  0.00     0.000 HD
BRANCH 104 111
ATOM    111   O  IDS B   6      38.114  14.203  29.6500  0.00  0.00     0.000 O
ATOM    112   S  IDS B   6      38.349  12.926  30.5860  0.00  0.00     0.000 S
ATOM    113   O  IDS B   6      39.366  12.148  29.8960  0.00  0.00     0.000 OA
ATOM    114   O  IDS B   6      38.737  13.394  31.9210  0.00  0.00     0.000 OA
ATOM    115   O  IDS B   6      37.025  12.346  30.5260  0.00  0.00     0.000 OA
ENDBRANCH 104 111
BRANCH 107 116
ATOM    116   C  IDS B   6      37.648  17.400  26.1770  0.00  0.00     0.000 C
ATOM    117   O  IDS B   6      37.844  18.554  25.8900  0.00  0.00     0.000 OA
ATOM    118   O  IDS B   6      36.770  16.742  25.6420  0.00  0.00     0.000 OA
ENDBRANCH 107 116
BRANCH 103 119
ATOM    119  O4  SGN B   7      40.966  15.317  27.8590  0.00  0.00     0.000 O
BRANCH 119 123
ATOM    120  C1  SGN B   7      44.207  14.795  25.2680  0.00  0.00     0.000 C
ATOM    121  C2  SGN B   7      43.376  16.083  25.1200  0.00  0.00     0.000 C
ATOM    122  C3  SGN B   7      42.510  16.310  26.3650  0.00  0.00     0.000 C
ATOM    123  C4  SGN B   7      41.678  15.070  26.6450  0.00  0.00     0.000 C
ATOM    124  C5  SGN B   7      42.595  13.842  26.7690  0.00  0.00     0.000 C
ATOM    125  O5  SGN B   7      43.390  13.666  25.5750  0.00  0.00     0.000 O
ATOM    126   O  SGN B   7      41.680  17.458  26.1530  0.00  0.00     0.000 O
ATOM    128  HD  SGN B   7      42.343  16.970  25.8850  0.00  0.00     0.000 HD
BRANCH 121 130
ATOM    128   N  SGN B   7      43.696  16.477  23.7450  0.00  0.00     0.000 N
ATOM    130  HD  SGN B   7      43.102  17.106  23.7800  0.00  0.00     0.000 HD
ATOM    130   S  SGN B   7      44.510  17.823  23.4050  0.00  0.00     0.000 S
ATOM    131   O  SGN B   7      45.662  17.783  24.2390  0.00  0.00     0.000 OA
ATOM    132   O  SGN B   7      44.647  17.918  21.9960  0.00  0.00     0.000 OA
ATOM    133   O  SGN B   7      43.435  18.902  23.7700  0.00  0.00     0.000 OA
ENDBRANCH 121 130
BRANCH 124 134
ATOM    134   C  SGN B   7      41.856  12.546  26.9310  0.00  0.00     0.000 C
ATOM    135   O  SGN B   7      41.162  12.258  25.7060  0.00  0.00     0.000 O
ATOM    136   S  SGN B   7      40.448  10.861  25.6170  0.00  0.00     0.000 S
ATOM    137   O  SGN B   7      39.743  10.845  24.3580  0.00  0.00     0.000 OA
ATOM    138   O  SGN B   7      39.564  10.815  26.7600  0.00  0.00     0.000 OA
ATOM    139   O  SGN B   7      41.566   9.934  25.6830  0.00  0.00     0.000 OA
ENDBRANCH 124 134
BRANCH 120 140
ATOM    140  O4  IDS B   8      45.216  14.558  26.1130  0.00  0.00     0.000 O
BRANCH 140 144
ATOM    141  C1  IDS B   8      47.889  14.900  28.5010  0.00  0.00     0.000 C
ATOM    142  C2  IDS B   8      47.770  15.867  27.2890  0.00  0.00     0.000 C
ATOM    143  C3  IDS B   8      47.559  15.136  25.9510  0.00  0.00     0.000 C
ATOM    144  C4  IDS B   8      46.537  14.006  26.0710  0.00  0.00     0.000 C
ATOM    145  C5  IDS B   8      46.806  13.181  27.3390  0.00  0.00     0.000 C
ATOM    146  O5  IDS B   8      46.791  13.995  28.5090  0.00  0.00     0.000 O
BRANCH 142 147
ATOM    147   O  IDS B   8      46.605  16.769  27.4860  0.00  0.00     0.000 O
ATOM    148   S  IDS B   8      46.787  18.236  28.1530  0.00  0.00     0.000 S
ATOM    149   O  IDS B   8      48.076  18.264  28.8060  0.00  0.00     0.000 OA
ATOM    150   O  IDS B   8      46.694  19.176  27.0520  0.00  0.00     0.000 OA
ATOM    151   O  IDS B   8      45.696  18.362  29.1020  0.00  0.00     0.000 OA
ENDBRANCH 142 147
BRANCH 145 152
ATOM    152   C  IDS B   8      45.764  12.105  27.5660  0.00  0.00     0.000 C
ATOM    153   O  IDS B   8      45.082  12.129  28.5850  0.00  0.00     0.000 OA
ATOM    154   O  IDS B   8      45.601  11.238  26.7260  0.00  0.00     0.000 OA
ENDBRANCH 145 152
ENDBRANCH 140 144
ENDBRANCH 120 140
ENDBRANCH 119 123
ENDBRANCH 103 119
ENDBRANCH 102 106
ENDBRANCH 82 102
ENDBRANCH 81 85
ENDBRANCH 65 81
ENDBRANCH 64 68
ENDBRANCH 41 64
ENDBRANCH 40 44
ENDBRANCH 24 40
ENDBRANCH 23 27
ENDBRANCH 1 23
TORSDOF 31
ENDMDL
MODEL 93
REMARK VINA RESULT:      -6.6      7.254     19.350
ROOT
ATOM      1  C1  SGN B   1      27.801  16.967  31.6900  0.00  0.00     0.000 C
ATOM      2  C2  SGN B   1      27.990  15.763  32.6280  0.00  0.00     0.000 C
ATOM      3  C3  SGN B   1      26.663  15.024  32.8360  0.00  0.00     0.000 C
ATOM      4  C4  SGN B   1      25.600  15.988  33.3520  0.00  0.00     0.000 C
ATOM      5  C5  SGN B   1      25.567  17.223  32.4540  0.00  0.00     0.000 C
ATOM      6  O5  SGN B   1      26.884  17.802  32.3840  0.00  0.00     0.000 O
ATOM      7   O  SGN B   1      26.832  13.938  33.7390  0.00  0.00     0.000 O
ATOM      9  HD  SGN B   1      27.048  14.614  34.2350  0.00  0.00     0.000 HD
ATOM      9   O  SGN B   1      24.338  15.345  33.3440  0.00  0.00     0.000 O
ATOM     11  HD  SGN B   1      24.555  16.021  33.8400  0.00  0.00     0.000 HD
ENDROOT
BRANCH 2 13
ATOM     11   N  SGN B   1      29.434  15.910  32.8890  0.00  0.00     0.000 N
ATOM     13  HD  SGN B   1      29.142  15.801  32.0810  0.00  0.00     0.000 HD
ATOM     13   S  SGN B   1      30.551  15.251  31.9380  0.00  0.00     0.000 S
ATOM     14   O  SGN B   1      29.938  14.596  30.8500  0.00  0.00     0.000 OA
ATOM     15   O  SGN B   1      31.562  16.224  31.6890  0.00  0.00     0.000 OA
ATOM     16   O  SGN B   1      31.138  14.228  32.9590  0.00  0.00     0.000 OA
ENDBRANCH 2 13
BRANCH 5 17
ATOM     17   C  SGN B   1      24.626  18.302  32.9280  0.00  0.00     0.000 C
ATOM     18   O  SGN B   1      24.716  18.473  34.3560  0.00  0.00     0.000 O
ATOM     19   S  SGN B   1      23.325  18.590  35.1380  0.00  0.00     0.000 S
ATOM     20   O  SGN B   1      23.684  18.984  36.4840  0.00  0.00     0.000 OA
ATOM     21   O  SGN B   1      22.597  19.604  34.4120  0.00  0.00     0.000 OA
ATOM     22   O  SGN B   1      22.736  17.271  35.0580  0.00  0.00     0.000 OA
ENDBRANCH 5 17
BRANCH 1 23
ATOM     23  O4  IDS B   2      27.841  17.287  30.3650  0.00  0.00     0.000 O
BRANCH 23 27
ATOM     24  C1  IDS B   2      27.447  17.503  26.2390  0.00  0.00     0.000 C
ATOM     25  C2  IDS B   2      26.253  16.875  26.9910  0.00  0.00     0.000 C
ATOM     26  C3  IDS B   2      26.368  17.114  28.4940  0.00  0.00     0.000 C
ATOM     27  C4  IDS B   2      27.688  16.638  29.0860  0.00  0.00     0.000 C
ATOM     28  C5  IDS B   2      28.837  16.905  28.0930  0.00  0.00     0.000 C
ATOM     29  O5  IDS B   2      28.474  17.906  27.1540  0.00  0.00     0.000 O
ATOM     30   O  IDS B   2      25.322  16.416  29.1600  0.00  0.00     0.000 O
ATOM     32  HD  IDS B   2      25.480  15.570  29.2530  0.00  0.00     0.000 HD
BRANCH 25 32
ATOM     32   O  IDS B   2      24.953  17.434  26.5460  0.00  0.00     0.000 O
ATOM     33   S  IDS B   2      24.451  18.939  26.9980  0.00  0.00     0.000 S
ATOM     34   O  IDS B   2      23.065  19.049  26.5710  0.00  0.00     0.000 OA
ATOM     35   O  IDS B   2      24.575  19.078  28.4420  0.00  0.00     0.000 OA
ATOM     36   O  IDS B   2      25.298  19.864  26.2810  0.00  0.00     0.000 OA
ENDBRANCH 25 32
BRANCH 28 37
ATOM     37   C  IDS B   2      30.221  17.262  28.6730  0.00  0.00     0.000 C
ATOM     38   O  IDS B   2      31.070  16.449  28.3920  0.00  0.00     0.000 OA
ATOM     39   O  IDS B   2      30.527  18.297  29.3150  0.00  0.00     0.000 OA
ENDBRANCH 28 37
BRANCH 24 40
ATOM     40  O4  SUS B   3      27.562  17.340  24.9040  0.00  0.00     0.000 O
BRANCH 40 44
ATOM     41  C1  SUS B   3      27.200  20.140  21.8090  0.00  0.00     0.000 C
ATOM     42  C2  SUS B   3      28.224  20.446  22.9210  0.00  0.00     0.000 C
ATOM     43  C3  SUS B   3      28.564  19.155  23.6610  0.00  0.00     0.000 C
ATOM     44  C4  SUS B   3      27.276  18.522  24.1640  0.00  0.00     0.000 C
ATOM     45  C5  SUS B   3      26.398  18.186  22.9760  0.00  0.00     0.000 C
ATOM     46  O5  SUS B   3      26.066  19.416  22.2990  0.00  0.00     0.000 O
BRANCH 42 49
ATOM     47   N  SUS B   3      28.046  21.897  22.7420  0.00  0.00     0.000 N
ATOM     49  HD  SUS B   3      27.595  22.149  22.0460  0.00  0.00     0.000 HD
ATOM     49   S  SUS B   3      29.434  22.696  22.7500  0.00  0.00     0.000 S
ATOM     50   O  SUS B   3      30.282  22.195  21.7410  0.00  0.00     0.000 OA
ATOM     51   O  SUS B   3      28.852  24.073  22.3400  0.00  0.00     0.000 OA
ATOM     52   O  SUS B   3      29.939  22.741  24.0640  0.00  0.00     0.000 OA
ENDBRANCH 42 49
BRANCH 43 53
ATOM     53   O  SUS B   3      29.433  19.500  24.8030  0.00  0.00     0.000 O
ATOM     54   S  SUS B   3      31.002  19.016  24.7250  0.00  0.00     0.000 S
ATOM     55   O  SUS B   3      31.661  19.833  23.7150  0.00  0.00     0.000 OA
ATOM     56   O  SUS B   3      31.503  19.230  26.0710  0.00  0.00     0.000 OA
ATOM     57   O  SUS B   3      30.981  17.603  24.3340  0.00  0.00     0.000 OA
ENDBRANCH 43 53
BRANCH 45 58
ATOM     58   C  SUS B   3      25.137  17.460  23.3910  0.00  0.00     0.000 C
ATOM     59   S  SUS B   3      23.415  15.745  22.5670  0.00  0.00     0.000 S
ATOM     60   O  SUS B   3      24.821  16.458  22.4110  0.00  0.00     0.000 O
ATOM     61   O  SUS B   3      22.448  16.695  22.0510  0.00  0.00     0.000 OA
ATOM     62   O  SUS B   3      23.593  14.609  21.7040  0.00  0.00     0.000 OA
ATOM     63   O  SUS B   3      23.293  15.444  23.9500  0.00  0.00     0.000 OA
ENDBRANCH 45 58
BRANCH 41 64
ATOM     64  O4  IDS B   4      27.759  19.607  20.6740  0.00  0.00     0.000 O
BRANCH 64 68
ATOM     65  C1  IDS B   4      28.442  18.955  17.1550  0.00  0.00     0.000 C
ATOM     66  C2  IDS B   4      28.749  20.331  17.7590  0.00  0.00     0.000 C
ATOM     67  C3  IDS B   4      27.634  20.903  18.6160  0.00  0.00     0.000 C
ATOM     68  C4  IDS B   4      26.967  19.859  19.4920  0.00  0.00     0.000 C
ATOM     69  C5  IDS B   4      26.726  18.606  18.6400  0.00  0.00     0.000 C
ATOM     70  O5  IDS B   4      27.981  18.097  18.1840  0.00  0.00     0.000 O
ATOM     71   O  IDS B   4      26.681  21.471  17.7410  0.00  0.00     0.000 O
ATOM     73  HD  IDS B   4      27.457  21.157  17.9640  0.00  0.00     0.000 HD
BRANCH 66 73
ATOM     73   O  IDS B   4      29.907  20.205  18.6550  0.00  0.00     0.000 O
ATOM     74   S  IDS B   4      31.235  21.060  18.3030  0.00  0.00     0.000 S
ATOM     75   O  IDS B   4      31.618  20.686  16.9590  0.00  0.00     0.000 OA
ATOM     76   O  IDS B   4      32.152  20.614  19.3210  0.00  0.00     0.000 OA
ATOM     77   O  IDS B   4      30.844  22.445  18.4210  0.00  0.00     0.000 OA
ENDBRANCH 66 73
BRANCH 69 78
ATOM     78   C  IDS B   4      25.866  17.544  19.3120  0.00  0.00     0.000 C
ATOM     79   O  IDS B   4      24.657  17.743  19.4190  0.00  0.00     0.000 OA
ATOM     80   O  IDS B   4      26.396  16.465  19.6350  0.00  0.00     0.000 OA
ENDBRANCH 69 78
BRANCH 65 81
ATOM     81  O4  SGN B   5      27.628  19.107  16.0730  0.00  0.00     0.000 O
BRANCH 81 85
ATOM     82  C1  SGN B   5      25.907  17.021  12.8590  0.00  0.00     0.000 C
ATOM     83  C2  SGN B   5      25.126  17.033  14.1820  0.00  0.00     0.000 C
ATOM     84  C3  SGN B   5      25.631  18.181  15.0670  0.00  0.00     0.000 C
ATOM     85  C4  SGN B   5      27.131  18.041  15.2600  0.00  0.00     0.000 C
ATOM     86  C5  SGN B   5      27.796  18.066  13.8860  0.00  0.00     0.000 C
ATOM     87  O5  SGN B   5      27.298  16.959  13.1110  0.00  0.00     0.000 O
ATOM     88   O  SGN B   5      24.958  18.163  16.3070  0.00  0.00     0.000 O
ATOM     90  HD  SGN B   5      24.785  18.700  15.6490  0.00  0.00     0.000 HD
BRANCH 83 92
ATOM     90   N  SGN B   5      24.444  15.793  13.7630  0.00  0.00     0.000 N
ATOM     92  HD  SGN B   5      24.868  15.094  14.0470  0.00  0.00     0.000 HD
ATOM     92   S  SGN B   5      22.853  15.725  13.9060  0.00  0.00     0.000 S
ATOM     93   O  SGN B   5      22.510  14.418  13.4310  0.00  0.00     0.000 OA
ATOM     94   O  SGN B   5      22.571  16.091  15.2520  0.00  0.00     0.000 OA
ATOM     95   O  SGN B   5      22.339  16.837  13.0180  0.00  0.00     0.000 OA
ENDBRANCH 83 92
BRANCH 86 96
ATOM     96   C  SGN B   5      29.305  17.947  13.9240  0.00  0.00     0.000 C
ATOM     97   O  SGN B   5      29.695  16.641  14.3550  0.00  0.00     0.000 O
ATOM     98   S  SGN B   5      30.762  15.881  13.4300  0.00  0.00     0.000 S
ATOM     99   O  SGN B   5      31.095  14.719  14.2180  0.00  0.00     0.000 OA
ATOM    100   O  SGN B   5      30.128  15.597  12.1930  0.00  0.00     0.000 OA
ATOM    101   O  SGN B   5      31.842  16.806  13.3020  0.00  0.00     0.000 OA
ENDBRANCH 86 96
BRANCH 82 102
ATOM    102  O4  IDS B   6      25.615  18.093  12.0690  0.00  0.00     0.000 O
BRANCH 102 106
ATOM    103  C1  IDS B   6      24.554  19.929   9.1090  0.00  0.00     0.000 C
ATOM    104  C2  IDS B   6      23.568  19.032   9.8730  0.00  0.00     0.000 C
ATOM    105  C3  IDS B   6      24.091  17.652  10.2210  0.00  0.00     0.000 C
ATOM    106  C4  IDS B   6      25.538  17.673  10.6830  0.00  0.00     0.000 C
ATOM    107  C5  IDS B   6      26.354  18.607   9.7840  0.00  0.00     0.000 C
ATOM    108  O5  IDS B   6      25.812  19.928   9.7570  0.00  0.00     0.000 O
ATOM    109   O  IDS B   6      23.938  16.821   9.0820  0.00  0.00     0.000 O
ATOM    111  HD  IDS B   6      23.906  17.379   8.4200  0.00  0.00     0.000 HD
BRANCH 104 111
ATOM    111   O  IDS B   6      23.246  19.662  11.1620  0.00  0.00     0.000 O
ATOM    112   S  IDS B   6      21.774  20.259  11.3620  0.00  0.00     0.000 S
ATOM    113   O  IDS B   6      21.632  21.244  10.3010  0.00  0.00     0.000 OA
ATOM    114   O  IDS B   6      20.812  19.152  11.3040  0.00  0.00     0.000 OA
ATOM    115   O  IDS B   6      21.932  20.834  12.6800  0.00  0.00     0.000 OA
ENDBRANCH 104 111
BRANCH 107 116
ATOM    116   C  IDS B   6      27.795  18.649  10.2780  0.00  0.00     0.000 C
ATOM    117   O  IDS B   6      28.443  17.643  10.1430  0.00  0.00     0.000 OA
ATOM    118   O  IDS B   6      28.260  19.653  10.7930  0.00  0.00     0.000 OA
ENDBRANCH 107 116
BRANCH 103 119
ATOM    119  O4  SGN B   7      24.424  19.525   7.8190  0.00  0.00     0.000 O
BRANCH 119 123
ATOM    120  C1  SGN B   7      25.908  20.904   4.1610  0.00  0.00     0.000 C
ATOM    121  C2  SGN B   7      26.585  19.669   4.7850  0.00  0.00     0.000 C
ATOM    122  C3  SGN B   7      25.694  19.062   5.8770  0.00  0.00     0.000 C
ATOM    123  C4  SGN B   7      25.317  20.134   6.8860  0.00  0.00     0.000 C
ATOM    124  C5  SGN B   7      24.658  21.322   6.1660  0.00  0.00     0.000 C
ATOM    125  O5  SGN B   7      25.531  21.861   5.1490  0.00  0.00     0.000 O
ATOM    126   O  SGN B   7      26.394  17.980   6.5020  0.00  0.00     0.000 O
ATOM    128  HD  SGN B   7      26.355  18.555   5.8560  0.00  0.00     0.000 HD
BRANCH 121 130
ATOM    128   N  SGN B   7      26.863  18.785   3.6500  0.00  0.00     0.000 N
ATOM    130  HD  SGN B   7      27.032  19.471   3.1490  0.00  0.00     0.000 HD
ATOM    130   S  SGN B   7      28.357  18.531   3.1050  0.00  0.00     0.000 S
ATOM    131   O  SGN B   7      29.121  18.191   4.2560  0.00  0.00     0.000 OA
ATOM    132   O  SGN B   7      28.284  17.641   2.0030  0.00  0.00     0.000 OA
ATOM    133   O  SGN B   7      28.663  19.928   2.4650  0.00  0.00     0.000 OA
ENDBRANCH 121 130
BRANCH 124 134
ATOM    134   C  SGN B   7      24.353  22.484   7.0650  0.00  0.00     0.000 C
ATOM    135   O  SGN B   7      24.328  23.682   6.2710  0.00  0.00     0.000 O
ATOM    136   S  SGN B   7      23.874  24.997   7.0020  0.00  0.00     0.000 S
ATOM    137   O  SGN B   7      24.029  26.067   6.0460  0.00  0.00     0.000 OA
ATOM    138   O  SGN B   7      24.758  25.123   8.1380  0.00  0.00     0.000 OA
ATOM    139   O  SGN B   7      22.491  24.703   7.3430  0.00  0.00     0.000 OA
ENDBRANCH 124 134
BRANCH 120 140
ATOM    140  O4  IDS B   8      24.808  20.943   3.4010  0.00  0.00     0.000 O
BRANCH 140 144
ATOM    141  C1  IDS B   8      21.627  20.401   1.8040  0.00  0.00     0.000 C
ATOM    142  C2  IDS B   8      22.656  19.244   1.9500  0.00  0.00     0.000 C
ATOM    143  C3  IDS B   8      24.076  19.638   1.5010  0.00  0.00     0.000 C
ATOM    144  C4  IDS B   8      24.474  21.023   2.0100  0.00  0.00     0.000 C
ATOM    145  C5  IDS B   8      23.321  22.016   1.8000  0.00  0.00     0.000 C
ATOM    146  O5  IDS B   8      22.123  21.575   2.4350  0.00  0.00     0.000 O
BRANCH 142 147
ATOM    147   O  IDS B   8      22.744  18.836   3.3760  0.00  0.00     0.000 O
ATOM    148   S  IDS B   8      22.995  17.287   3.7890  0.00  0.00     0.000 S
ATOM    149   O  IDS B   8      22.713  16.473   2.6280  0.00  0.00     0.000 OA
ATOM    150   O  IDS B   8      24.385  17.217   4.2000  0.00  0.00     0.000 OA
ATOM    151   O  IDS B   8      22.067  17.026   4.8720  0.00  0.00     0.000 OA
ENDBRANCH 142 147
BRANCH 145 152
ATOM    152   C  IDS B   8      23.619  23.386   2.3750  0.00  0.00     0.000 C
ATOM    153   O  IDS B   8      24.543  24.046   1.9160  0.00  0.00     0.000 OA
ATOM    154   O  IDS B   8      22.924  23.824   3.2740  0.00  0.00     0.000 OA
ENDBRANCH 145 152
ENDBRANCH 140 144
ENDBRANCH 120 140
ENDBRANCH 119 123
ENDBRANCH 103 119
ENDBRANCH 102 106
ENDBRANCH 82 102
ENDBRANCH 81 85
ENDBRANCH 65 81
ENDBRANCH 64 68
ENDBRANCH 41 64
ENDBRANCH 40 44
ENDBRANCH 24 40
ENDBRANCH 23 27
ENDBRANCH 1 23
TORSDOF 31
ENDMDL
MODEL 94
REMARK VINA RESULT:      -6.6      6.812     19.956
ROOT
ATOM      1  C1  SGN B   1      24.876  19.319  30.5230  0.00  0.00     0.000 C
ATOM      2  C2  SGN B   1      23.416  18.848  30.4260  0.00  0.00     0.000 C
ATOM      3  C3  SGN B   1      22.875  19.046  29.0060  0.00  0.00     0.000 C
ATOM      4  C4  SGN B   1      23.034  20.501  28.5810  0.00  0.00     0.000 C
ATOM      5  C5  SGN B   1      24.473  20.942  28.8370  0.00  0.00     0.000 C
ATOM      6  O5  SGN B   1      24.811  20.705  30.2170  0.00  0.00     0.000 O
ATOM      7   O  SGN B   1      21.510  18.650  28.9310  0.00  0.00     0.000 O
ATOM      9  HD  SGN B   1      21.476  19.290  29.5140  0.00  0.00     0.000 HD
ATOM      9   O  SGN B   1      22.722  20.626  27.2050  0.00  0.00     0.000 O
ATOM     11  HD  SGN B   1      22.689  21.266  27.7880  0.00  0.00     0.000 HD
ENDROOT
BRANCH 2 13
ATOM     11   N  SGN B   1      23.178  18.393  31.8090  0.00  0.00     0.000 N
ATOM     13  HD  SGN B   1      23.837  18.073  31.3480  0.00  0.00     0.000 HD
ATOM     13   S  SGN B   1      23.601  16.926  32.3160  0.00  0.00     0.000 S
ATOM     14   O  SGN B   1      24.248  16.222  31.2790  0.00  0.00     0.000 OA
ATOM     15   O  SGN B   1      24.243  17.054  33.5810  0.00  0.00     0.000 OA
ATOM     16   O  SGN B   1      22.172  16.360  32.5800  0.00  0.00     0.000 OA
ENDBRANCH 2 13
BRANCH 5 17
ATOM     17   C  SGN B   1      24.728  22.402  28.5560  0.00  0.00     0.000 C
ATOM     18   O  SGN B   1      23.641  23.217  29.0390  0.00  0.00     0.000 O
ATOM     19   S  SGN B   1      23.118  24.352  28.0420  0.00  0.00     0.000 S
ATOM     20   O  SGN B   1      22.215  25.160  28.8340  0.00  0.00     0.000 OA
ATOM     21   O  SGN B   1      24.318  25.050  27.6420  0.00  0.00     0.000 OA
ATOM     22   O  SGN B   1      22.465  23.638  26.9670  0.00  0.00     0.000 OA
ENDBRANCH 5 17
BRANCH 1 23
ATOM     23  O4  IDS B   2      26.147  18.849  30.3720  0.00  0.00     0.000 O
BRANCH 23 27
ATOM     24  C1  IDS B   2      27.417  18.950  26.4210  0.00  0.00     0.000 C
ATOM     25  C2  IDS B   2      26.810  17.611  26.8930  0.00  0.00     0.000 C
ATOM     26  C3  IDS B   2      26.114  17.771  28.2410  0.00  0.00     0.000 C
ATOM     27  C4  IDS B   2      27.009  18.366  29.3200  0.00  0.00     0.000 C
ATOM     28  C5  IDS B   2      27.930  19.440  28.7070  0.00  0.00     0.000 C
ATOM     29  O5  IDS B   2      27.404  19.919  27.4790  0.00  0.00     0.000 O
ATOM     30   O  IDS B   2      25.679  16.496  28.6980  0.00  0.00     0.000 O
ATOM     32  HD  IDS B   2      26.315  16.024  29.0490  0.00  0.00     0.000 HD
BRANCH 25 32
ATOM     32   O  IDS B   2      25.812  17.078  25.9330  0.00  0.00     0.000 O
ATOM     33   S  IDS B   2      26.078  15.693  25.0760  0.00  0.00     0.000 S
ATOM     34   O  IDS B   2      25.008  15.612  24.0950  0.00  0.00     0.000 OA
ATOM     35   O  IDS B   2      27.384  15.764  24.4350  0.00  0.00     0.000 OA
ATOM     36   O  IDS B   2      25.994  14.618  26.0370  0.00  0.00     0.000 OA
ENDBRANCH 25 32
BRANCH 28 37
ATOM     37   C  IDS B   2      28.303  20.654  29.5820  0.00  0.00     0.000 C
ATOM     38   O  IDS B   2      29.031  20.362  30.5020  0.00  0.00     0.000 OA
ATOM     39   O  IDS B   2      27.982  21.852  29.3870  0.00  0.00     0.000 OA
ENDBRANCH 28 37
BRANCH 24 40
ATOM     40  O4  SUS B   3      28.135  18.999  25.2800  0.00  0.00     0.000 O
BRANCH 40 44
ATOM     41  C1  SUS B   3      28.476  22.038  22.4160  0.00  0.00     0.000 C
ATOM     42  C2  SUS B   3      29.115  22.294  23.7960  0.00  0.00     0.000 C
ATOM     43  C3  SUS B   3      29.320  20.960  24.5110  0.00  0.00     0.000 C
ATOM     44  C4  SUS B   3      27.989  20.226  24.5730  0.00  0.00     0.000 C
ATOM     45  C5  SUS B   3      27.513  19.954  23.1610  0.00  0.00     0.000 C
ATOM     46  O5  SUS B   3      27.303  21.221  22.5050  0.00  0.00     0.000 O
BRANCH 42 49
ATOM     47   N  SUS B   3      28.836  23.707  24.1020  0.00  0.00     0.000 N
ATOM     49  HD  SUS B   3      28.256  24.106  23.5970  0.00  0.00     0.000 HD
ATOM     49   S  SUS B   3      30.163  24.605  24.1410  0.00  0.00     0.000 S
ATOM     50   O  SUS B   3      30.840  24.512  22.9080  0.00  0.00     0.000 OA
ATOM     51   O  SUS B   3      29.449  25.975  24.2710  0.00  0.00     0.000 OA
ATOM     52   O  SUS B   3      30.891  24.311  25.3100  0.00  0.00     0.000 OA
ENDBRANCH 42 49
BRANCH 43 53
ATOM     53   O  SUS B   3      29.800  21.246  25.8770  0.00  0.00     0.000 O
ATOM     54   S  SUS B   3      31.258  20.620  26.3050  0.00  0.00     0.000 S
ATOM     55   O  SUS B   3      32.280  21.356  25.5740  0.00  0.00     0.000 OA
ATOM     56   O  SUS B   3      31.314  20.811  27.7430  0.00  0.00     0.000 OA
ATOM     57   O  SUS B   3      31.236  19.208  25.9100  0.00  0.00     0.000 OA
ENDBRANCH 43 53
BRANCH 45 58
ATOM     58   C  SUS B   3      26.241  19.136  23.1400  0.00  0.00     0.000 C
ATOM     59   S  SUS B   3      23.691  19.337  23.3570  0.00  0.00     0.000 S
ATOM     60   O  SUS B   3      25.106  20.019  23.1570  0.00  0.00     0.000 O
ATOM     61   O  SUS B   3      23.609  19.043  24.7750  0.00  0.00     0.000 OA
ATOM     62   O  SUS B   3      22.819  20.409  22.9600  0.00  0.00     0.000 OA
ATOM     63   O  SUS B   3      23.691  18.205  22.5000  0.00  0.00     0.000 OA
ENDBRANCH 45 58
BRANCH 41 64
ATOM     64  O4  IDS B   4      29.372  21.633  21.4580  0.00  0.00     0.000 O
BRANCH 64 68
ATOM     65  C1  IDS B   4      30.732  21.168  18.1100  0.00  0.00     0.000 C
ATOM     66  C2  IDS B   4      30.123  22.516  18.5150  0.00  0.00     0.000 C
ATOM     67  C3  IDS B   4      28.784  22.411  19.2260  0.00  0.00     0.000 C
ATOM     68  C4  IDS B   4      28.731  21.263  20.2170  0.00  0.00     0.000 C
ATOM     69  C5  IDS B   4      29.354  20.029  19.5510  0.00  0.00     0.000 C
ATOM     70  O5  IDS B   4      30.720  20.305  19.2330  0.00  0.00     0.000 O
ATOM     71   O  IDS B   4      27.795  22.232  18.2340  0.00  0.00     0.000 O
ATOM     73  HD  IDS B   4      28.576  22.451  18.5370  0.00  0.00     0.000 HD
BRANCH 66 73
ATOM     73   O  IDS B   4      31.024  23.173  19.4720  0.00  0.00     0.000 O
ATOM     74   S  IDS B   4      31.869  24.454  18.9600  0.00  0.00     0.000 S
ATOM     75   O  IDS B   4      32.623  24.013  17.8070  0.00  0.00     0.000 OA
ATOM     76   O  IDS B   4      32.680  24.753  20.1130  0.00  0.00     0.000 OA
ATOM     77   O  IDS B   4      30.886  25.465  18.6480  0.00  0.00     0.000 OA
ENDBRANCH 66 73
BRANCH 69 78
ATOM     78   C  IDS B   4      29.179  18.735  20.3340  0.00  0.00     0.000 C
ATOM     79   O  IDS B   4      30.014  18.444  21.1890  0.00  0.00     0.000 OA
ATOM     80   O  IDS B   4      28.142  18.069  20.1600  0.00  0.00     0.000 OA
ENDBRANCH 69 78
BRANCH 65 81
ATOM     81  O4  SGN B   5      30.118  20.714  16.9820  0.00  0.00     0.000 O
BRANCH 81 85
ATOM     82  C1  SGN B   5      30.838  18.585  13.4340  0.00  0.00     0.000 C
ATOM     83  C2  SGN B   5      30.323  17.782  14.6370  0.00  0.00     0.000 C
ATOM     84  C3  SGN B   5      29.685  18.736  15.6570  0.00  0.00     0.000 C
ATOM     85  C4  SGN B   5      30.693  19.806  16.0400  0.00  0.00     0.000 C
ATOM     86  C5  SGN B   5      31.110  20.547  14.7720  0.00  0.00     0.000 C
ATOM     87  O5  SGN B   5      31.717  19.607  13.8650  0.00  0.00     0.000 O
ATOM     88   O  SGN B   5      29.261  18.012  16.7910  0.00  0.00     0.000 O
ATOM     90  HD  SGN B   5      28.747  18.294  16.1540  0.00  0.00     0.000 HD
BRANCH 83 92
ATOM     90   N  SGN B   5      30.735  16.660  13.7710  0.00  0.00     0.000 N
ATOM     92  HD  SGN B   5      31.597  16.623  13.7000  0.00  0.00     0.000 HD
ATOM     92   S  SGN B   5      30.010  15.250  13.9710  0.00  0.00     0.000 S
ATOM     93   O  SGN B   5      30.628  14.393  13.0050  0.00  0.00     0.000 OA
ATOM     94   O  SGN B   5      30.118  14.955  15.3590  0.00  0.00     0.000 OA
ATOM     95   O  SGN B   5      28.550  15.524  13.6810  0.00  0.00     0.000 OA
ENDBRANCH 83 92
BRANCH 86 96
ATOM     96   C  SGN B   5      32.111  21.660  15.0050  0.00  0.00     0.000 C
ATOM     97   O  SGN B   5      33.373  21.123  15.4090  0.00  0.00     0.000 O
ATOM     98   S  SGN B   5      34.654  21.639  14.5930  0.00  0.00     0.000 S
ATOM     99   O  SGN B   5      35.754  21.093  15.3510  0.00  0.00     0.000 OA
ATOM    100   O  SGN B   5      34.543  21.143  13.2680  0.00  0.00     0.000 OA
ATOM    101   O  SGN B   5      34.570  23.062  14.6620  0.00  0.00     0.000 OA
ENDBRANCH 86 96
BRANCH 82 102
ATOM    102  O4  IDS B   6      29.829  19.113  12.6850  0.00  0.00     0.000 O
BRANCH 102 106
ATOM    103  C1  IDS B   6      27.812  19.465   9.6730  0.00  0.00     0.000 C
ATOM    104  C2  IDS B   6      28.234  18.076  10.1790  0.00  0.00     0.000 C
ATOM    105  C3  IDS B   6      29.698  17.946  10.5510  0.00  0.00     0.000 C
ATOM    106  C4  IDS B   6      30.226  19.162  11.2910  0.00  0.00     0.000 C
ATOM    107  C5  IDS B   6      29.709  20.439  10.6220  0.00  0.00     0.000 C
ATOM    108  O5  IDS B   6      28.282  20.466  10.5560  0.00  0.00     0.000 O
ATOM    109   O  IDS B   6      30.438  17.718   9.3630  0.00  0.00     0.000 O
ATOM    111  HD  IDS B   6      29.931  18.038   8.7380  0.00  0.00     0.000 HD
BRANCH 104 111
ATOM    111   O  IDS B   6      27.491  17.768  11.4100  0.00  0.00     0.000 O
ATOM    112   S  IDS B   6      26.259  16.751  11.3110  0.00  0.00     0.000 S
ATOM    113   O  IDS B   6      25.356  17.362  10.3490  0.00  0.00     0.000 OA
ATOM    114   O  IDS B   6      26.775  15.434  10.9180  0.00  0.00     0.000 OA
ATOM    115   O  IDS B   6      25.792  16.816  12.6790  0.00  0.00     0.000 OA
ENDBRANCH 104 111
BRANCH 107 116
ATOM    116   C  IDS B   6      30.214  21.652  11.3920  0.00  0.00     0.000 C
ATOM    117   O  IDS B   6      31.403  21.850  11.3720  0.00  0.00     0.000 OA
ATOM    118   O  IDS B   6      29.449  22.379  12.0060  0.00  0.00     0.000 OA
ENDBRANCH 107 116
BRANCH 103 119
ATOM    119  O4  SGN B   7      28.172  19.453   8.3640  0.00  0.00     0.000 O
BRANCH 119 123
ATOM    120  C1  SGN B   7      26.681  21.122   4.8310  0.00  0.00     0.000 C
ATOM    121  C2  SGN B   7      27.703  21.948   5.6340  0.00  0.00     0.000 C
ATOM    122  C3  SGN B   7      28.437  21.058   6.6460  0.00  0.00     0.000 C
ATOM    123  C4  SGN B   7      27.427  20.322   7.5090  0.00  0.00     0.000 C
ATOM    124  C5  SGN B   7      26.451  19.537   6.6180  0.00  0.00     0.000 C
ATOM    125  O5  SGN B   7      25.783  20.413   5.6830  0.00  0.00     0.000 O
ATOM    126   O  SGN B   7      29.306  21.875   7.4390  0.00  0.00     0.000 O
ATOM    128  HD  SGN B   7      28.786  21.808   6.7500  0.00  0.00     0.000 HD
BRANCH 121 130
ATOM    128   N  SGN B   7      28.057  22.598   4.3690  0.00  0.00     0.000 N
ATOM    130  HD  SGN B   7      27.312  23.041   4.3810  0.00  0.00     0.000 HD
ATOM    130   S  SGN B   7      28.502  24.143   4.2920  0.00  0.00     0.000 S
ATOM    131   O  SGN B   7      29.519  24.287   5.2780  0.00  0.00     0.000 OA
ATOM    132   O  SGN B   7      28.767  24.464   2.9360  0.00  0.00     0.000 OA
ATOM    133   O  SGN B   7      27.137  24.845   4.6060  0.00  0.00     0.000 OA
ENDBRANCH 121 130
BRANCH 124 134
ATOM    134   C  SGN B   7      25.342  18.867   7.3750  0.00  0.00     0.000 C
ATOM    135   O  SGN B   7      24.100  19.140   6.7050  0.00  0.00     0.000 O
ATOM    136   S  SGN B   7      22.830  18.398   7.2550  0.00  0.00     0.000 S
ATOM    137   O  SGN B   7      21.706  18.904   6.5030  0.00  0.00     0.000 OA
ATOM    138   O  SGN B   7      22.770  18.740   8.6580  0.00  0.00     0.000 OA
ATOM    139   O  SGN B   7      23.142  17.003   6.9880  0.00  0.00     0.000 OA
ENDBRANCH 124 134
BRANCH 120 140
ATOM    140  O4  IDS B   8      26.922  20.159   3.9340  0.00  0.00     0.000 O
BRANCH 140 144
ATOM    141  C1  IDS B   8      28.268  17.614   1.7720  0.00  0.00     0.000 C
ATOM    142  C2  IDS B   8      28.842  19.059   1.7600  0.00  0.00     0.000 C
ATOM    143  C3  IDS B   8      27.751  20.142   1.6620  0.00  0.00     0.000 C
ATOM    144  C4  IDS B   8      26.567  19.847   2.5820  0.00  0.00     0.000 C
ATOM    145  C5  IDS B   8      26.165  18.368   2.4690  0.00  0.00     0.000 C
ATOM    146  O5  IDS B   8      27.257  17.501   2.7660  0.00  0.00     0.000 O
BRANCH 142 147
ATOM    147   O  IDS B   8      29.593  19.305   3.0190  0.00  0.00     0.000 O
ATOM    148   S  IDS B   8      31.007  20.101   3.0080  0.00  0.00     0.000 S
ATOM    149   O  IDS B   8      31.490  20.117   1.6460  0.00  0.00     0.000 OA
ATOM    150   O  IDS B   8      30.707  21.428   3.5140  0.00  0.00     0.000 OA
ATOM    151   O  IDS B   8      31.879  19.342   3.8830  0.00  0.00     0.000 OA
ENDBRANCH 142 147
BRANCH 145 152
ATOM    152   C  IDS B   8      25.058  17.990   3.4320  0.00  0.00     0.000 C
ATOM    153   O  IDS B   8      25.252  17.107   4.2590  0.00  0.00     0.000 OA
ATOM    154   O  IDS B   8      23.994  18.582   3.3890  0.00  0.00     0.000 OA
ENDBRANCH 145 152
ENDBRANCH 140 144
ENDBRANCH 120 140
ENDBRANCH 119 123
ENDBRANCH 103 119
ENDBRANCH 102 106
ENDBRANCH 82 102
ENDBRANCH 81 85
ENDBRANCH 65 81
ENDBRANCH 64 68
ENDBRANCH 41 64
ENDBRANCH 40 44
ENDBRANCH 24 40
ENDBRANCH 23 27
ENDBRANCH 1 23
TORSDOF 31
ENDMDL
MODEL 95
REMARK VINA RESULT:      -6.6     11.954     16.526
ROOT
ATOM      1  C1  SGN B   1      48.230  10.748  20.0910  0.00  0.00     0.000 C
ATOM      2  C2  SGN B   1      48.886  11.484  18.9110  0.00  0.00     0.000 C
ATOM      3  C3  SGN B   1      47.858  11.775  17.8130  0.00  0.00     0.000 C
ATOM      4  C4  SGN B   1      47.178  10.483  17.3730  0.00  0.00     0.000 C
ATOM      5  C5  SGN B   1      46.676   9.737  18.6070  0.00  0.00     0.000 C
ATOM      6  O5  SGN B   1      47.768   9.530  19.5230  0.00  0.00     0.000 O
ATOM      7   O  SGN B   1      48.478  12.416  16.7040  0.00  0.00     0.000 O
ATOM      9  HD  SGN B   1      48.900  11.660  16.7300  0.00  0.00     0.000 HD
ATOM      9   O  SGN B   1      46.096  10.790  16.5130  0.00  0.00     0.000 O
ATOM     11  HD  SGN B   1      46.518  10.034  16.5390  0.00  0.00     0.000 HD
ENDROOT
BRANCH 2 13
ATOM     11   N  SGN B   1      50.262  11.553  19.4380  0.00  0.00     0.000 N
ATOM     13  HD  SGN B   1      49.607  11.917  19.8710  0.00  0.00     0.000 HD
ATOM     13   S  SGN B   1      50.766  12.763  20.3710  0.00  0.00     0.000 S
ATOM     14   O  SGN B   1      49.705  13.658  20.6200  0.00  0.00     0.000 OA
ATOM     15   O  SGN B   1      51.491  12.215  21.4680  0.00  0.00     0.000 OA
ATOM     16   O  SGN B   1      51.811  13.380  19.3910  0.00  0.00     0.000 OA
ENDBRANCH 2 13
BRANCH 5 17
ATOM     17   C  SGN B   1      46.078   8.385  18.3070  0.00  0.00     0.000 C
ATOM     18   O  SGN B   1      46.794   7.732  17.2390  0.00  0.00     0.000 O
ATOM     19   S  SGN B   1      45.894   7.045  16.1090  0.00  0.00     0.000 S
ATOM     20   O  SGN B   1      46.821   6.276  15.3070  0.00  0.00     0.000 OA
ATOM     21   O  SGN B   1      44.958   6.232  16.8500  0.00  0.00     0.000 OA
ATOM     22   O  SGN B   1      45.282   8.144  15.3950  0.00  0.00     0.000 OA
ENDBRANCH 5 17
BRANCH 1 23
ATOM     23  O4  IDS B   2      47.594  11.005  21.2700  0.00  0.00     0.000 O
BRANCH 23 27
ATOM     24  C1  IDS B   2      44.680  13.066  23.3890  0.00  0.00     0.000 C
ATOM     25  C2  IDS B   2      45.255  13.801  22.1580  0.00  0.00     0.000 C
ATOM     26  C3  IDS B   2      46.083  12.854  21.2940  0.00  0.00     0.000 C
ATOM     27  C4  IDS B   2      47.189  12.141  22.0610  0.00  0.00     0.000 C
ATOM     28  C5  IDS B   2      46.702  11.788  23.4810  0.00  0.00     0.000 C
ATOM     29  O5  IDS B   2      45.284  11.774  23.5420  0.00  0.00     0.000 O
ATOM     30   O  IDS B   2      46.696  13.592  20.2440  0.00  0.00     0.000 O
ATOM     32  HD  IDS B   2      47.402  14.025  20.4980  0.00  0.00     0.000 HD
BRANCH 25 32
ATOM     32   O  IDS B   2      44.191  14.376  21.3000  0.00  0.00     0.000 O
ATOM     33   S  IDS B   2      44.096  15.995  20.9960  0.00  0.00     0.000 S
ATOM     34   O  IDS B   2      42.825  16.208  20.3230  0.00  0.00     0.000 OA
ATOM     35   O  IDS B   2      44.162  16.729  22.2520  0.00  0.00     0.000 OA
ATOM     36   O  IDS B   2      45.209  16.294  20.1250  0.00  0.00     0.000 OA
ENDBRANCH 25 32
BRANCH 28 37
ATOM     37   C  IDS B   2      47.228  10.487  24.1200  0.00  0.00     0.000 C
ATOM     38   O  IDS B   2      46.345   9.803  24.5840  0.00  0.00     0.000 OA
ATOM     39   O  IDS B   2      48.415  10.079  24.1360  0.00  0.00     0.000 OA
ENDBRANCH 28 37
BRANCH 24 40
ATOM     40  O4  SUS B   3      43.974  13.751  24.3130  0.00  0.00     0.000 O
BRANCH 40 44
ATOM     41  C1  SUS B   3      40.516  12.586  26.3700  0.00  0.00     0.000 C
ATOM     42  C2  SUS B   3      41.867  12.367  27.0810  0.00  0.00     0.000 C
ATOM     43  C3  SUS B   3      42.926  13.257  26.4330  0.00  0.00     0.000 C
ATOM     44  C4  SUS B   3      42.960  12.973  24.9400  0.00  0.00     0.000 C
ATOM     45  C5  SUS B   3      41.609  13.312  24.3450  0.00  0.00     0.000 C
ATOM     46  O5  SUS B   3      40.622  12.450  24.9480  0.00  0.00     0.000 O
BRANCH 42 49
ATOM     47   N  SUS B   3      41.609  12.553  28.5190  0.00  0.00     0.000 N
ATOM     49  HD  SUS B   3      42.067  13.170  28.9180  0.00  0.00     0.000 HD
ATOM     49   S  SUS B   3      41.767  11.196  29.3560  0.00  0.00     0.000 S
ATOM     50   O  SUS B   3      43.060  10.667  29.1710  0.00  0.00     0.000 OA
ATOM     51   O  SUS B   3      41.634  11.835  30.7610  0.00  0.00     0.000 OA
ATOM     52   O  SUS B   3      40.671  10.351  29.0870  0.00  0.00     0.000 OA
ENDBRANCH 42 49
BRANCH 43 53
ATOM     53   O  SUS B   3      44.230  12.924  27.0380  0.00  0.00     0.000 O
ATOM     54   S  SUS B   3      44.921  14.062  28.0020  0.00  0.00     0.000 S
ATOM     55   O  SUS B   3      44.141  14.126  29.2300  0.00  0.00     0.000 OA
ATOM     56   O  SUS B   3      46.278  13.583  28.1950  0.00  0.00     0.000 OA
ATOM     57   O  SUS B   3      44.855  15.327  27.2640  0.00  0.00     0.000 OA
ENDBRANCH 43 53
BRANCH 45 58
ATOM     58   C  SUS B   3      41.595  13.150  22.8410  0.00  0.00     0.000 C
ATOM     59   S  SUS B   3      41.519  11.376  20.9880  0.00  0.00     0.000 S
ATOM     60   O  SUS B   3      41.353  11.771  22.5120  0.00  0.00     0.000 O
ATOM     61   O  SUS B   3      42.950  11.277  20.7760  0.00  0.00     0.000 OA
ATOM     62   O  SUS B   3      40.865  10.095  20.9710  0.00  0.00     0.000 OA
ATOM     63   O  SUS B   3      40.865  12.401  20.2560  0.00  0.00     0.000 OA
ENDBRANCH 45 58
BRANCH 41 64
ATOM     64  O4  IDS B   4      39.852  13.716  26.7790  0.00  0.00     0.000 O
BRANCH 64 68
ATOM     65  C1  IDS B   4      36.927  15.756  27.5280  0.00  0.00     0.000 C
ATOM     66  C2  IDS B   4      36.928  14.257  27.8550  0.00  0.00     0.000 C
ATOM     67  C3  IDS B   4      37.442  13.370  26.7340  0.00  0.00     0.000 C
ATOM     68  C4  IDS B   4      38.645  13.958  26.0210  0.00  0.00     0.000 C
ATOM     69  C5  IDS B   4      38.371  15.447  25.7690  0.00  0.00     0.000 C
ATOM     70  O5  IDS B   4      38.201  16.113  27.0220  0.00  0.00     0.000 O
ATOM     71   O  IDS B   4      36.382  13.197  25.8170  0.00  0.00     0.000 O
ATOM     73  HD  IDS B   4      36.738  13.402  26.5790  0.00  0.00     0.000 HD
BRANCH 66 73
ATOM     73   O  IDS B   4      37.834  14.021  28.9880  0.00  0.00     0.000 O
ATOM     74   S  IDS B   4      37.471  12.822  30.0120  0.00  0.00     0.000 S
ATOM     75   O  IDS B   4      36.138  13.094  30.5050  0.00  0.00     0.000 OA
ATOM     76   O  IDS B   4      38.504  12.960  31.0070  0.00  0.00     0.000 OA
ATOM     77   O  IDS B   4      37.555  11.610  29.2320  0.00  0.00     0.000 OA
ENDBRANCH 66 73
BRANCH 69 78
ATOM     78   C  IDS B   4      39.389  16.131  24.8680  0.00  0.00     0.000 C
ATOM     79   O  IDS B   4      39.322  15.946  23.6530  0.00  0.00     0.000 OA
ATOM     80   O  IDS B   4      40.189  16.937  25.3770  0.00  0.00     0.000 OA
ENDBRANCH 69 78
BRANCH 65 81
ATOM     81  O4  SGN B   5      35.852  16.048  26.7440  0.00  0.00     0.000 O
BRANCH 81 85
ATOM     82  C1  SGN B   5      33.155  19.157  25.9130  0.00  0.00     0.000 C
ATOM     83  C2  SGN B   5      34.288  18.927  24.9020  0.00  0.00     0.000 C
ATOM     84  C3  SGN B   5      34.870  17.520  25.0940  0.00  0.00     0.000 C
ATOM     85  C4  SGN B   5      35.315  17.356  26.5370  0.00  0.00     0.000 C
ATOM     86  C5  SGN B   5      34.105  17.583  27.4400  0.00  0.00     0.000 C
ATOM     87  O5  SGN B   5      33.617  18.922  27.2290  0.00  0.00     0.000 O
ATOM     88   O  SGN B   5      35.950  17.323  24.2070  0.00  0.00     0.000 O
ATOM     90  HD  SGN B   5      35.148  17.014  24.0990  0.00  0.00     0.000 HD
BRANCH 83 92
ATOM     90   N  SGN B   5      33.449  19.470  23.8150  0.00  0.00     0.000 N
ATOM     92  HD  SGN B   5      32.641  19.615  24.0900  0.00  0.00     0.000 HD
ATOM     92   S  SGN B   5      34.066  20.618  22.8910  0.00  0.00     0.000 S
ATOM     93   O  SGN B   5      33.022  20.923  21.9600  0.00  0.00     0.000 OA
ATOM     94   O  SGN B   5      34.541  21.618  23.7830  0.00  0.00     0.000 OA
ATOM     95   O  SGN B   5      35.275  19.980  22.2420  0.00  0.00     0.000 OA
ENDBRANCH 83 92
BRANCH 86 96
ATOM     96   C  SGN B   5      34.399  17.438  28.9190  0.00  0.00     0.000 C
ATOM     97   O  SGN B   5      34.719  18.707  29.4950  0.00  0.00     0.000 O
ATOM     98   S  SGN B   5      33.910  19.105  30.8210  0.00  0.00     0.000 S
ATOM     99   O  SGN B   5      34.586  20.302  31.2580  0.00  0.00     0.000 OA
ATOM    100   O  SGN B   5      32.553  19.292  30.4520  0.00  0.00     0.000 OA
ATOM    101   O  SGN B   5      34.099  17.996  31.6980  0.00  0.00     0.000 OA
ENDBRANCH 86 96
BRANCH 82 102
ATOM    102  O4  IDS B   6      32.056  18.394  25.6520  0.00  0.00     0.000 O
BRANCH 102 106
ATOM    103  C1  IDS B   6      28.489  18.090  24.9840  0.00  0.00     0.000 C
ATOM    104  C2  IDS B   6      29.273  19.327  24.5190  0.00  0.00     0.000 C
ATOM    105  C3  IDS B   6      30.180  19.945  25.5650  0.00  0.00     0.000 C
ATOM    106  C4  IDS B   6      30.917  18.905  26.3910  0.00  0.00     0.000 C
ATOM    107  C5  IDS B   6      29.960  17.771  26.7680  0.00  0.00     0.000 C
ATOM    108  O5  IDS B   6      29.362  17.173  25.6170  0.00  0.00     0.000 O
ATOM    109   O  IDS B   6      29.390  20.780  26.3960  0.00  0.00     0.000 O
ATOM    111  HD  IDS B   6      28.588  20.466  26.3050  0.00  0.00     0.000 HD
BRANCH 104 111
ATOM    111   O  IDS B   6      30.163  18.942  23.4120  0.00  0.00     0.000 O
ATOM    112   S  IDS B   6      29.738  19.356  21.9250  0.00  0.00     0.000 S
ATOM    113   O  IDS B   6      28.437  18.734  21.7300  0.00  0.00     0.000 OA
ATOM    114   O  IDS B   6      29.737  20.820  21.8330  0.00  0.00     0.000 OA
ATOM    115   O  IDS B   6      30.809  18.719  21.1900  0.00  0.00     0.000 OA
ENDBRANCH 104 111
BRANCH 107 116
ATOM    116   C  IDS B   6      30.717  16.716  27.5640  0.00  0.00     0.000 C
ATOM    117   O  IDS B   6      31.045  15.720  26.9700  0.00  0.00     0.000 OA
ATOM    118   O  IDS B   6      30.969  16.873  28.7480  0.00  0.00     0.000 OA
ENDBRANCH 107 116
BRANCH 103 119
ATOM    119  O4  SGN B   7      27.421  18.614  25.6380  0.00  0.00     0.000 O
BRANCH 119 123
ATOM    120  C1  SGN B   7      23.966  17.087  27.4320  0.00  0.00     0.000 C
ATOM    121  C2  SGN B   7      25.215  17.253  28.3170  0.00  0.00     0.000 C
ATOM    122  C3  SGN B   7      26.236  18.176  27.6390  0.00  0.00     0.000 C
ATOM    123  C4  SGN B   7      26.537  17.667  26.2390  0.00  0.00     0.000 C
ATOM    124  C5  SGN B   7      25.230  17.530  25.4410  0.00  0.00     0.000 C
ATOM    125  O5  SGN B   7      24.300  16.653  26.1150  0.00  0.00     0.000 O
ATOM    126   O  SGN B   7      27.422  18.228  28.4410  0.00  0.00     0.000 O
ATOM    128  HD  SGN B   7      26.594  17.984  28.3670  0.00  0.00     0.000 HD
BRANCH 121 130
ATOM    128   N  SGN B   7      24.568  16.447  29.3550  0.00  0.00     0.000 N
ATOM    130  HD  SGN B   7      25.336  16.133  29.6020  0.00  0.00     0.000 HD
ATOM    130   S  SGN B   7      24.673  16.813  30.9190  0.00  0.00     0.000 S
ATOM    131   O  SGN B   7      24.321  18.189  31.0040  0.00  0.00     0.000 OA
ATOM    132   O  SGN B   7      23.949  15.841  31.6560  0.00  0.00     0.000 OA
ATOM    133   O  SGN B   7      26.179  16.472  31.1870  0.00  0.00     0.000 OA
ENDBRANCH 121 130
BRANCH 124 134
ATOM    134   C  SGN B   7      25.410  16.924  24.0800  0.00  0.00     0.000 C
ATOM    135   O  SGN B   7      24.350  15.980  23.8560  0.00  0.00     0.000 O
ATOM    136   S  SGN B   7      24.270  15.345  22.4210  0.00  0.00     0.000 S
ATOM    137   O  SGN B   7      23.210  14.367  22.4680  0.00  0.00     0.000 OA
ATOM    138   O  SGN B   7      25.571  14.757  22.1940  0.00  0.00     0.000 OA
ATOM    139   O  SGN B   7      23.976  16.498  21.5840  0.00  0.00     0.000 OA
ENDBRANCH 124 134
BRANCH 120 140
ATOM    140  O4  IDS B   8      23.049  18.010  27.1220  0.00  0.00     0.000 O
BRANCH 140 144
ATOM    141  C1  IDS B   8      21.736  21.362  27.0570  0.00  0.00     0.000 C
ATOM    142  C2  IDS B   8      22.562  20.850  28.2720  0.00  0.00     0.000 C
ATOM    143  C3  IDS B   8      22.089  19.478  28.7870  0.00  0.00     0.000 C
ATOM    144  C4  IDS B   8      21.809  18.502  27.6450  0.00  0.00     0.000 C
ATOM    145  C5  IDS B   8      21.007  19.200  26.5370  0.00  0.00     0.000 C
ATOM    146  O5  IDS B   8      21.680  20.359  26.0500  0.00  0.00     0.000 O
BRANCH 142 147
ATOM    147   O  IDS B   8      23.987  20.703  27.8760  0.00  0.00     0.000 O
ATOM    148   S  IDS B   8      25.130  21.673  28.4950  0.00  0.00     0.000 S
ATOM    149   O  IDS B   8      24.465  22.812  29.0870  0.00  0.00     0.000 OA
ATOM    150   O  IDS B   8      25.836  20.865  29.4720  0.00  0.00     0.000 OA
ATOM    151   O  IDS B   8      25.959  22.055  27.3680  0.00  0.00     0.000 OA
ENDBRANCH 142 147
BRANCH 145 152
ATOM    152   C  IDS B   8      20.783  18.311  25.3300  0.00  0.00     0.000 C
ATOM    153   O  IDS B   8      21.184  18.673  24.2300  0.00  0.00     0.000 OA
ATOM    154   O  IDS B   8      20.226  17.237  25.4700  0.00  0.00     0.000 OA
ENDBRANCH 145 152
ENDBRANCH 140 144
ENDBRANCH 120 140
ENDBRANCH 119 123
ENDBRANCH 103 119
ENDBRANCH 102 106
ENDBRANCH 82 102
ENDBRANCH 81 85
ENDBRANCH 65 81
ENDBRANCH 64 68
ENDBRANCH 41 64
ENDBRANCH 40 44
ENDBRANCH 24 40
ENDBRANCH 23 27
ENDBRANCH 1 23
TORSDOF 31
ENDMDL
MODEL 96
REMARK VINA RESULT:      -6.6      8.441     14.173
ROOT
ATOM      1  C1  SGN B   1      27.268  20.042  22.5930  0.00  0.00     0.000 C
ATOM      2  C2  SGN B   1      27.919  19.092  21.5730  0.00  0.00     0.000 C
ATOM      3  C3  SGN B   1      26.887  18.105  21.0160  0.00  0.00     0.000 C
ATOM      4  C4  SGN B   1      26.216  17.346  22.1560  0.00  0.00     0.000 C
ATOM      5  C5  SGN B   1      25.720  18.346  23.1980  0.00  0.00     0.000 C
ATOM      6  O5  SGN B   1      26.815  19.178  23.6260  0.00  0.00     0.000 O
ATOM      7   O  SGN B   1      27.502  17.200  20.1070  0.00  0.00     0.000 O
ATOM      9  HD  SGN B   1      27.930  17.030  20.8400  0.00  0.00     0.000 HD
ATOM      9   O  SGN B   1      25.131  16.593  21.6450  0.00  0.00     0.000 O
ATOM     11  HD  SGN B   1      25.559  16.424  22.3790  0.00  0.00     0.000 HD
ENDROOT
BRANCH 2 13
ATOM     11   N  SGN B   1      29.303  19.599  21.6100  0.00  0.00     0.000 N
ATOM     13  HD  SGN B   1      28.647  20.127  21.4090  0.00  0.00     0.000 HD
ATOM     13   S  SGN B   1      29.790  20.835  20.7010  0.00  0.00     0.000 S
ATOM     14   O  SGN B   1      28.708  21.345  19.9550  0.00  0.00     0.000 OA
ATOM     15   O  SGN B   1      30.557  21.717  21.5150  0.00  0.00     0.000 OA
ATOM     16   O  SGN B   1      30.793  20.060  19.7910  0.00  0.00     0.000 OA
ENDBRANCH 2 13
BRANCH 5 17
ATOM     17   C  SGN B   1      25.131  17.706  24.4310  0.00  0.00     0.000 C
ATOM     18   O  SGN B   1      24.192  16.672  24.0770  0.00  0.00     0.000 O
ATOM     19   S  SGN B   1      22.810  16.674  24.8820  0.00  0.00     0.000 S
ATOM     20   O  SGN B   1      22.163  15.431  24.5190  0.00  0.00     0.000 OA
ATOM     21   O  SGN B   1      23.211  16.733  26.2680  0.00  0.00     0.000 OA
ATOM     22   O  SGN B   1      22.106  17.850  24.4220  0.00  0.00     0.000 OA
ENDBRANCH 5 17
BRANCH 1 23
ATOM     23  O4  IDS B   2      26.631  21.246  22.6540  0.00  0.00     0.000 O
BRANCH 23 27
ATOM     24  C1  IDS B   2      22.617  21.046  21.6150  0.00  0.00     0.000 C
ATOM     25  C2  IDS B   2      23.592  21.352  20.4560  0.00  0.00     0.000 C
ATOM     26  C3  IDS B   2      25.038  21.110  20.8800  0.00  0.00     0.000 C
ATOM     27  C4  IDS B   2      25.438  21.872  22.1370  0.00  0.00     0.000 C
ATOM     28  C5  IDS B   2      24.258  21.910  23.1280  0.00  0.00     0.000 C
ATOM     29  O5  IDS B   2      23.327  20.875  22.8490  0.00  0.00     0.000 O
ATOM     30   O  IDS B   2      25.908  21.521  19.8330  0.00  0.00     0.000 O
ATOM     32  HD  IDS B   2      26.029  22.378  19.8050  0.00  0.00     0.000 HD
BRANCH 25 32
ATOM     32   O  IDS B   2      23.328  20.511  19.2630  0.00  0.00     0.000 O
ATOM     33   S  IDS B   2      22.848  21.164  17.8250  0.00  0.00     0.000 S
ATOM     34   O  IDS B   2      22.474  20.044  16.9770  0.00  0.00     0.000 OA
ATOM     35   O  IDS B   2      21.723  22.060  18.0510  0.00  0.00     0.000 OA
ATOM     36   O  IDS B   2      24.006  21.854  17.3050  0.00  0.00     0.000 OA
ENDBRANCH 25 32
BRANCH 28 37
ATOM     37   C  IDS B   2      24.582  21.878  24.6360  0.00  0.00     0.000 C
ATOM     38   O  IDS B   2      24.022  20.977  25.2150  0.00  0.00     0.000 OA
ATOM     39   O  IDS B   2      25.380  22.625  25.2530  0.00  0.00     0.000 OA
ENDBRANCH 28 37
BRANCH 24 40
ATOM     40  O4  SUS B   3      21.295  21.264  21.4570  0.00  0.00     0.000 O
BRANCH 40 44
ATOM     41  C1  SUS B   3      18.006  19.437  23.2980  0.00  0.00     0.000 C
ATOM     42  C2  SUS B   3      18.853  20.396  24.1590  0.00  0.00     0.000 C
ATOM     43  C3  SUS B   3      19.668  21.307  23.2440  0.00  0.00     0.000 C
ATOM     44  C4  SUS B   3      20.484  20.445  22.2920  0.00  0.00     0.000 C
ATOM     45  C5  SUS B   3      19.538  19.621  21.4430  0.00  0.00     0.000 C
ATOM     46  O5  SUS B   3      18.791  18.751  22.3170  0.00  0.00     0.000 O
BRANCH 42 49
ATOM     47   N  SUS B   3      19.336  20.687  25.5200  0.00  0.00     0.000 N
ATOM     49  HD  SUS B   3      20.009  20.219  25.8000  0.00  0.00     0.000 HD
ATOM     49   S  SUS B   3      18.175  20.598  26.6200  0.00  0.00     0.000 S
ATOM     50   O  SUS B   3      17.583  19.319  26.5910  0.00  0.00     0.000 OA
ATOM     51   O  SUS B   3      19.092  20.748  27.8610  0.00  0.00     0.000 OA
ATOM     52   O  SUS B   3      17.324  21.714  26.4920  0.00  0.00     0.000 OA
ENDBRANCH 42 49
BRANCH 43 53
ATOM     53   O  SUS B   3      20.569  22.113  24.0890  0.00  0.00     0.000 O
ATOM     54   S  SUS B   3      20.319  23.737  24.1160  0.00  0.00     0.000 S
ATOM     55   O  SUS B   3      19.085  23.976  24.8510  0.00  0.00     0.000 OA
ATOM     56   O  SUS B   3      21.503  24.264  24.7710  0.00  0.00     0.000 OA
ATOM     57   O  SUS B   3      20.195  24.161  22.7180  0.00  0.00     0.000 OA
ENDBRANCH 43 53
BRANCH 45 58
ATOM     58   C  SUS B   3      20.274  18.809  20.4000  0.00  0.00     0.000 C
ATOM     59   S  SUS B   3      21.962  16.895  20.1330  0.00  0.00     0.000 S
ATOM     60   O  SUS B   3      20.963  17.723  21.0410  0.00  0.00     0.000 O
ATOM     61   O  SUS B   3      23.151  17.718  20.0290  0.00  0.00     0.000 OA
ATOM     62   O  SUS B   3      22.162  15.728  20.9500  0.00  0.00     0.000 OA
ATOM     63   O  SUS B   3      21.269  16.670  18.9140  0.00  0.00     0.000 OA
ENDBRANCH 45 58
BRANCH 41 64
ATOM     64  O4  IDS B   4      16.859  20.006  22.8020  0.00  0.00     0.000 O
BRANCH 64 68
ATOM     65  C1  IDS B   4      13.259  19.917  22.2430  0.00  0.00     0.000 C
ATOM     66  C2  IDS B   4      13.880  19.136  23.4080  0.00  0.00     0.000 C
ATOM     67  C3  IDS B   4      15.111  18.327  23.0370  0.00  0.00     0.000 C
ATOM     68  C4  IDS B   4      16.034  19.062  22.0830  0.00  0.00     0.000 C
ATOM     69  C5  IDS B   4      15.174  19.711  20.9910  0.00  0.00     0.000 C
ATOM     70  O5  IDS B   4      14.280  20.651  21.5920  0.00  0.00     0.000 O
ATOM     71   O  IDS B   4      14.662  17.129  22.4380  0.00  0.00     0.000 O
ATOM     73  HD  IDS B   4      14.585  17.849  22.9120  0.00  0.00     0.000 HD
BRANCH 66 73
ATOM     73   O  IDS B   4      14.331  20.090  24.4300  0.00  0.00     0.000 O
ATOM     74   S  IDS B   4      13.336  20.406  25.6650  0.00  0.00     0.000 S
ATOM     75   O  IDS B   4      12.094  20.869  25.0830  0.00  0.00     0.000 OA
ATOM     76   O  IDS B   4      14.064  21.423  26.3800  0.00  0.00     0.000 OA
ATOM     77   O  IDS B   4      13.201  19.159  26.3800  0.00  0.00     0.000 OA
ENDBRANCH 66 73
BRANCH 69 78
ATOM     78   C  IDS B   4      15.966  20.303  19.8340  0.00  0.00     0.000 C
ATOM     79   O  IDS B   4      16.089  21.525  19.7650  0.00  0.00     0.000 OA
ATOM     80   O  IDS B   4      16.553  19.528  19.0550  0.00  0.00     0.000 OA
ENDBRANCH 69 78
BRANCH 65 81
ATOM     81  O4  SGN B   5      12.525  19.070  21.4700  0.00  0.00     0.000 O
BRANCH 81 85
ATOM     82  C1  SGN B   5       8.993  18.767  19.2180  0.00  0.00     0.000 C
ATOM     83  C2  SGN B   5      10.190  19.457  18.5480  0.00  0.00     0.000 C
ATOM     84  C3  SGN B   5      11.481  19.077  19.2860  0.00  0.00     0.000 C
ATOM     85  C4  SGN B   5      11.337  19.425  20.7580  0.00  0.00     0.000 C
ATOM     86  C5  SGN B   5      10.136  18.665  21.3150  0.00  0.00     0.000 C
ATOM     87  O5  SGN B   5       8.956  19.077  20.5980  0.00  0.00     0.000 O
ATOM     88   O  SGN B   5      12.579  19.753  18.7120  0.00  0.00     0.000 O
ATOM     90  HD  SGN B   5      12.372  18.923  18.5750  0.00  0.00     0.000 HD
BRANCH 83 92
ATOM     90   N  SGN B   5      10.375  19.238  17.1000  0.00  0.00     0.000 N
ATOM     92  HD  SGN B   5      10.359  18.393  16.9100  0.00  0.00     0.000 HD
ATOM     92   S  SGN B   5       9.565  20.174  16.0890  0.00  0.00     0.000 S
ATOM     93   O  SGN B   5       9.951  19.711  14.7900  0.00  0.00     0.000 OA
ATOM     94   O  SGN B   5       8.205  20.099  16.4980  0.00  0.00     0.000 OA
ATOM     95   O  SGN B   5      10.050  21.576  16.3910  0.00  0.00     0.000 OA
ENDBRANCH 83 92
BRANCH 86 96
ATOM     96   C  SGN B   5       9.877  18.908  22.7870  0.00  0.00     0.000 C
ATOM     97   O  SGN B   5       9.410  17.713  23.4180  0.00  0.00     0.000 O
ATOM     98   S  SGN B   5      10.177  17.275  24.7570  0.00  0.00     0.000 S
ATOM     99   O  SGN B   5       9.364  16.188  25.2480  0.00  0.00     0.000 OA
ATOM    100   O  SGN B   5      11.498  16.907  24.3900  0.00  0.00     0.000 OA
ATOM    101   O  SGN B   5      10.133  18.435  25.5870  0.00  0.00     0.000 OA
ENDBRANCH 86 96
BRANCH 82 102
ATOM    102  O4  IDS B   6       8.996  17.416  19.0350  0.00  0.00     0.000 O
BRANCH 102 106
ATOM    103  C1  IDS B   6       7.438  14.547  17.4230  0.00  0.00     0.000 C
ATOM    104  C2  IDS B   6       7.305  15.955  16.8210  0.00  0.00     0.000 C
ATOM    105  C3  IDS B   6       6.927  17.043  17.8070  0.00  0.00     0.000 C
ATOM    106  C4  IDS B   6       7.644  16.904  19.1380  0.00  0.00     0.000 C
ATOM    107  C5  IDS B   6       7.649  15.435  19.5710  0.00  0.00     0.000 C
ATOM    108  O5  IDS B   6       8.245  14.591  18.5840  0.00  0.00     0.000 O
ATOM    109   O  IDS B   6       5.520  17.007  17.9860  0.00  0.00     0.000 O
ATOM    111  HD  IDS B   6       5.303  16.199  17.7620  0.00  0.00     0.000 HD
BRANCH 104 111
ATOM    111   O  IDS B   6       8.607  16.364  16.2710  0.00  0.00     0.000 O
ATOM    112   S  IDS B   6       8.800  16.320  14.6820  0.00  0.00     0.000 S
ATOM    113   O  IDS B   6       8.544  14.935  14.3210  0.00  0.00     0.000 OA
ATOM    114   O  IDS B   6       7.882  17.292  14.0760  0.00  0.00     0.000 OA
ATOM    115   O  IDS B   6      10.195  16.700  14.6060  0.00  0.00     0.000 OA
ENDBRANCH 104 111
BRANCH 107 116
ATOM    116   C  IDS B   6       8.402  15.300  20.8890  0.00  0.00     0.000 C
ATOM    117   O  IDS B   6       9.537  14.900  20.8270  0.00  0.00     0.000 OA
ATOM    118   O  IDS B   6       7.873  15.577  21.9540  0.00  0.00     0.000 OA
ENDBRANCH 107 116
BRANCH 103 119
ATOM    119  O4  SGN B   7       6.158  14.096  17.4700  0.00  0.00     0.000 O
BRANCH 119 123
ATOM    120  C1  SGN B   7       4.238  10.383  17.3470  0.00  0.00     0.000 C
ATOM    121  C2  SGN B   7       5.065  10.717  18.6030  0.00  0.00     0.000 C
ATOM    122  C3  SGN B   7       5.355  12.222  18.6710  0.00  0.00     0.000 C
ATOM    123  C4  SGN B   7       5.996  12.681  17.3720  0.00  0.00     0.000 C
ATOM    124  C5  SGN B   7       5.100  12.296  16.1830  0.00  0.00     0.000 C
ATOM    125  O5  SGN B   7       4.855  10.872  16.1570  0.00  0.00     0.000 O
ATOM    126   O  SGN B   7       6.205  12.482  19.7930  0.00  0.00     0.000 O
ATOM    128  HD  SGN B   7       5.705  11.921  19.3640  0.00  0.00     0.000 HD
BRANCH 121 130
ATOM    128   N  SGN B   7       4.356   9.548  19.1300  0.00  0.00     0.000 N
ATOM    130  HD  SGN B   7       5.043   9.048  18.9630  0.00  0.00     0.000 HD
ATOM    130   S  SGN B   7       4.730   8.884  20.5480  0.00  0.00     0.000 S
ATOM    131   O  SGN B   7       4.751   9.966  21.4720  0.00  0.00     0.000 OA
ATOM    132   O  SGN B   7       3.871   7.775  20.7620  0.00  0.00     0.000 OA
ATOM    133   O  SGN B   7       6.119   8.248  20.2040  0.00  0.00     0.000 OA
ENDBRANCH 121 130
BRANCH 124 134
ATOM    134   C  SGN B   7       5.703  12.604  14.8440  0.00  0.00     0.000 C
ATOM    135   O  SGN B   7       4.640  12.864  13.9120  0.00  0.00     0.000 O
ATOM    136   S  SGN B   7       5.067  13.359  12.4830  0.00  0.00     0.000 S
ATOM    137   O  SGN B   7       3.854  13.449  11.7060  0.00  0.00     0.000 OA
ATOM    138   O  SGN B   7       5.980  12.352  11.9910  0.00  0.00     0.000 OA
ATOM    139   O  SGN B   7       5.684  14.644  12.7690  0.00  0.00     0.000 OA
ENDBRANCH 124 134
BRANCH 120 140
ATOM    140  O4  IDS B   8       2.972  10.723  17.0810  0.00  0.00     0.000 O
BRANCH 140 144
ATOM    141  C1  IDS B   8       0.692  10.867  14.2980  0.00  0.00     0.000 C
ATOM    142  C2  IDS B   8       0.547  11.841  15.5020  0.00  0.00     0.000 C
ATOM    143  C3  IDS B   8       0.597  11.126  16.8650  0.00  0.00     0.000 C
ATOM    144  C4  IDS B   8       1.704  10.075  16.9210  0.00  0.00     0.000 C
ATOM    145  C5  IDS B   8       1.699   9.233  15.6360  0.00  0.00     0.000 C
ATOM    146  O5  IDS B   8       1.840  10.045  14.4730  0.00  0.00     0.000 O
BRANCH 142 147
ATOM    147   O  IDS B   8       1.661  12.825  15.4800  0.00  0.00     0.000 O
ATOM    148   S  IDS B   8       1.368  14.420  15.5320  0.00  0.00     0.000 S
ATOM    149   O  IDS B   8      -0.027  14.620  15.2070  0.00  0.00     0.000 OA
ATOM    150   O  IDS B   8       1.694  14.830  16.8850  0.00  0.00     0.000 OA
ATOM    151   O  IDS B   8       2.245  15.002  14.5340  0.00  0.00     0.000 OA
ENDBRANCH 142 147
BRANCH 145 152
ATOM    152   C  IDS B   8       2.839   8.235  15.5880  0.00  0.00     0.000 C
ATOM    153   O  IDS B   8       3.601   8.234  14.6280  0.00  0.00     0.000 OA
ATOM    154   O  IDS B   8       2.999   7.460  16.5130  0.00  0.00     0.000 OA
ENDBRANCH 145 152
ENDBRANCH 140 144
ENDBRANCH 120 140
ENDBRANCH 119 123
ENDBRANCH 103 119
ENDBRANCH 102 106
ENDBRANCH 82 102
ENDBRANCH 81 85
ENDBRANCH 65 81
ENDBRANCH 64 68
ENDBRANCH 41 64
ENDBRANCH 40 44
ENDBRANCH 24 40
ENDBRANCH 23 27
ENDBRANCH 1 23
TORSDOF 31
ENDMDL
MODEL 97
REMARK VINA RESULT:      -6.5      6.777     19.417
ROOT
ATOM      1  C1  SGN B   1      24.992  19.244  30.6720  0.00  0.00     0.000 C
ATOM      2  C2  SGN B   1      23.521  18.807  30.5660  0.00  0.00     0.000 C
ATOM      3  C3  SGN B   1      22.974  19.083  29.1610  0.00  0.00     0.000 C
ATOM      4  C4  SGN B   1      23.160  20.554  28.8030  0.00  0.00     0.000 C
ATOM      5  C5  SGN B   1      24.610  20.952  29.0680  0.00  0.00     0.000 C
ATOM      6  O5  SGN B   1      24.953  20.644  30.4330  0.00  0.00     0.000 O
ATOM      7   O  SGN B   1      21.601  18.720  29.0800  0.00  0.00     0.000 O
ATOM      9  HD  SGN B   1      21.585  19.332  29.6920  0.00  0.00     0.000 HD
ATOM      9   O  SGN B   1      22.841  20.750  27.4380  0.00  0.00     0.000 O
ATOM     11  HD  SGN B   1      22.825  21.362  28.0510  0.00  0.00     0.000 HD
ENDROOT
BRANCH 2 13
ATOM     11   N  SGN B   1      23.281  18.292  31.9270  0.00  0.00     0.000 N
ATOM     13  HD  SGN B   1      23.933  17.982  31.4480  0.00  0.00     0.000 HD
ATOM     13   S  SGN B   1      23.681  16.795  32.3620  0.00  0.00     0.000 S
ATOM     14   O  SGN B   1      24.311  16.129  31.2890  0.00  0.00     0.000 OA
ATOM     15   O  SGN B   1      24.330  16.852  33.6280  0.00  0.00     0.000 OA
ATOM     16   O  SGN B   1      22.243  16.242  32.6060  0.00  0.00     0.000 OA
ENDBRANCH 2 13
BRANCH 5 17
ATOM     17   C  SGN B   1      24.893  22.419  28.8530  0.00  0.00     0.000 C
ATOM     18   O  SGN B   1      23.820  23.231  29.3700  0.00  0.00     0.000 O
ATOM     19   S  SGN B   1      23.322  24.420  28.4240  0.00  0.00     0.000 S
ATOM     20   O  SGN B   1      22.432  25.208  29.2490  0.00  0.00     0.000 OA
ATOM     21   O  SGN B   1      24.536  25.112  28.0590  0.00  0.00     0.000 OA
ATOM     22   O  SGN B   1      22.660  23.768  27.3160  0.00  0.00     0.000 OA
ENDBRANCH 5 17
BRANCH 1 23
ATOM     23  O4  IDS B   2      26.252  18.755  30.4880  0.00  0.00     0.000 O
BRANCH 23 27
ATOM     24  C1  IDS B   2      27.446  18.889  26.5150  0.00  0.00     0.000 C
ATOM     25  C2  IDS B   2      26.821  17.555  26.9790  0.00  0.00     0.000 C
ATOM     26  C3  IDS B   2      26.154  17.710  28.3430  0.00  0.00     0.000 C
ATOM     27  C4  IDS B   2      27.082  18.270  29.4130  0.00  0.00     0.000 C
ATOM     28  C5  IDS B   2      28.014  19.333  28.7970  0.00  0.00     0.000 C
ATOM     29  O5  IDS B   2      27.475  19.841  27.5860  0.00  0.00     0.000 O
ATOM     30   O  IDS B   2      25.701  16.437  28.7910  0.00  0.00     0.000 O
ATOM     32  HD  IDS B   2      26.334  15.947  29.1220  0.00  0.00     0.000 HD
BRANCH 25 32
ATOM     32   O  IDS B   2      25.793  17.058  26.0320  0.00  0.00     0.000 O
ATOM     33   S  IDS B   2      26.009  15.675  25.1570  0.00  0.00     0.000 S
ATOM     34   O  IDS B   2      24.920  15.631  24.1940  0.00  0.00     0.000 OA
ATOM     35   O  IDS B   2      27.304  15.719  24.4950  0.00  0.00     0.000 OA
ATOM     36   O  IDS B   2      25.913  14.593  26.1090  0.00  0.00     0.000 OA
ENDBRANCH 25 32
BRANCH 28 37
ATOM     37   C  IDS B   2      28.429  20.527  29.6820  0.00  0.00     0.000 C
ATOM     38   O  IDS B   2      28.971  20.183  30.7060  0.00  0.00     0.000 OA
ATOM     39   O  IDS B   2      28.313  21.746  29.4080  0.00  0.00     0.000 OA
ENDBRANCH 28 37
BRANCH 24 40
ATOM     40  O4  SUS B   3      28.142  18.940  25.3600  0.00  0.00     0.000 O
BRANCH 40 44
ATOM     41  C1  SUS B   3      28.468  22.002  22.5200  0.00  0.00     0.000 C
ATOM     42  C2  SUS B   3      29.158  22.226  23.8810  0.00  0.00     0.000 C
ATOM     43  C3  SUS B   3      29.351  20.879  24.5740  0.00  0.00     0.000 C
ATOM     44  C4  SUS B   3      28.005  20.178  24.6720  0.00  0.00     0.000 C
ATOM     45  C5  SUS B   3      27.477  19.934  23.2730  0.00  0.00     0.000 C
ATOM     46  O5  SUS B   3      27.278  21.213  22.6380  0.00  0.00     0.000 O
BRANCH 42 49
ATOM     47   N  SUS B   3      30.309  23.067  23.5110  0.00  0.00     0.000 N
ATOM     49  HD  SUS B   3      31.094  22.725  23.6370  0.00  0.00     0.000 HD
ATOM     49   S  SUS B   3      30.274  24.505  24.2170  0.00  0.00     0.000 S
ATOM     50   O  SUS B   3      30.229  24.352  25.6170  0.00  0.00     0.000 OA
ATOM     51   O  SUS B   3      31.683  24.963  23.7620  0.00  0.00     0.000 OA
ATOM     52   O  SUS B   3      29.275  25.297  23.6150  0.00  0.00     0.000 OA
ENDBRANCH 42 49
BRANCH 43 53
ATOM     53   O  SUS B   3      29.882  21.136  25.9270  0.00  0.00     0.000 O
ATOM     54   S  SUS B   3      31.435  20.685  26.2210  0.00  0.00     0.000 S
ATOM     55   O  SUS B   3      32.301  21.597  25.4880  0.00  0.00     0.000 OA
ATOM     56   O  SUS B   3      31.564  20.787  27.6640  0.00  0.00     0.000 OA
ATOM     57   O  SUS B   3      31.569  19.312  25.7260  0.00  0.00     0.000 OA
ENDBRANCH 43 53
BRANCH 45 58
ATOM     58   C  SUS B   3      26.184  19.149  23.2850  0.00  0.00     0.000 C
ATOM     59   S  SUS B   3      23.651  19.407  23.6090  0.00  0.00     0.000 S
ATOM     60   O  SUS B   3      25.075  20.059  23.3680  0.00  0.00     0.000 O
ATOM     61   O  SUS B   3      23.618  19.081  25.0220  0.00  0.00     0.000 OA
ATOM     62   O  SUS B   3      22.792  20.510  23.2720  0.00  0.00     0.000 OA
ATOM     63   O  SUS B   3      23.588  18.296  22.7270  0.00  0.00     0.000 OA
ENDBRANCH 45 58
BRANCH 41 64
ATOM     64  O4  IDS B   4      29.322  21.586  21.5290  0.00  0.00     0.000 O
BRANCH 64 68
ATOM     65  C1  IDS B   4      30.549  21.076  18.1360  0.00  0.00     0.000 C
ATOM     66  C2  IDS B   4      29.977  22.436  18.5540  0.00  0.00     0.000 C
ATOM     67  C3  IDS B   4      28.664  22.358  19.3150  0.00  0.00     0.000 C
ATOM     68  C4  IDS B   4      28.629  21.217  20.3150  0.00  0.00     0.000 C
ATOM     69  C5  IDS B   4      29.208  19.969  19.6360  0.00  0.00     0.000 C
ATOM     70  O5  IDS B   4      30.565  20.221  19.2650  0.00  0.00     0.000 O
ATOM     71   O  IDS B   4      27.636  22.188  18.3610  0.00  0.00     0.000 O
ATOM     73  HD  IDS B   4      28.431  22.397  18.6330  0.00  0.00     0.000 HD
BRANCH 66 73
ATOM     73   O  IDS B   4      30.923  23.086  19.4720  0.00  0.00     0.000 O
ATOM     74   S  IDS B   4      31.738  24.375  18.9320  0.00  0.00     0.000 S
ATOM     75   O  IDS B   4      32.435  23.948  17.7380  0.00  0.00     0.000 OA
ATOM     76   O  IDS B   4      32.606  24.663  20.0460  0.00  0.00     0.000 OA
ATOM     77   O  IDS B   4      30.739  25.385  18.6800  0.00  0.00     0.000 OA
ENDBRANCH 66 73
BRANCH 69 78
ATOM     78   C  IDS B   4      29.041  18.684  20.4350  0.00  0.00     0.000 C
ATOM     79   O  IDS B   4      28.121  17.921  20.1430  0.00  0.00     0.000 OA
ATOM     80   O  IDS B   4      29.903  18.395  21.2860  0.00  0.00     0.000 OA
ENDBRANCH 69 78
BRANCH 65 81
ATOM     81  O4  SGN B   5      29.887  20.624  17.0350  0.00  0.00     0.000 O
BRANCH 81 85
ATOM     82  C1  SGN B   5      30.323  18.309  13.5590  0.00  0.00     0.000 C
ATOM     83  C2  SGN B   5      30.023  17.557  14.8650  0.00  0.00     0.000 C
ATOM     84  C3  SGN B   5      29.445  18.534  15.8980  0.00  0.00     0.000 C
ATOM     85  C4  SGN B   5      30.408  19.694  16.0840  0.00  0.00     0.000 C
ATOM     86  C5  SGN B   5      30.609  20.372  14.7310  0.00  0.00     0.000 C
ATOM     87  O5  SGN B   5      31.169  19.415  13.8120  0.00  0.00     0.000 O
ATOM     88   O  SGN B   5      29.220  17.864  17.1180  0.00  0.00     0.000 O
ATOM     90  HD  SGN B   5      28.611  18.065  16.5360  0.00  0.00     0.000 HD
BRANCH 83 92
ATOM     90   N  SGN B   5      29.346  16.472  14.1290  0.00  0.00     0.000 N
ATOM     92  HD  SGN B   5      29.241  16.679  13.2950  0.00  0.00     0.000 HD
ATOM     92   S  SGN B   5      29.823  14.970  14.3980  0.00  0.00     0.000 S
ATOM     93   O  SGN B   5      28.992  14.176  13.5450  0.00  0.00     0.000 OA
ATOM     94   O  SGN B   5      31.234  14.975  14.2140  0.00  0.00     0.000 OA
ATOM     95   O  SGN B   5      29.560  14.741  15.8700  0.00  0.00     0.000 OA
ENDBRANCH 83 92
BRANCH 86 96
ATOM     96   C  SGN B   5      31.543  21.564  14.7660  0.00  0.00     0.000 C
ATOM     97   O  SGN B   5      32.854  21.162  15.1730  0.00  0.00     0.000 O
ATOM     98   S  SGN B   5      34.062  21.639  14.2340  0.00  0.00     0.000 S
ATOM     99   O  SGN B   5      35.227  21.266  15.0000  0.00  0.00     0.000 OA
ATOM    100   O  SGN B   5      33.929  20.965  12.9930  0.00  0.00     0.000 OA
ATOM    101   O  SGN B   5      33.888  23.051  14.1220  0.00  0.00     0.000 OA
ENDBRANCH 86 96
BRANCH 82 102
ATOM    102  O4  IDS B   6      29.192  18.713  12.9140  0.00  0.00     0.000 O
BRANCH 102 106
ATOM    103  C1  IDS B   6      27.036  18.540   9.9850  0.00  0.00     0.000 C
ATOM    104  C2  IDS B   6      27.913  17.344  10.3880  0.00  0.00     0.000 C
ATOM    105  C3  IDS B   6      29.354  17.684  10.7130  0.00  0.00     0.000 C
ATOM    106  C4  IDS B   6      29.487  18.965  11.5170  0.00  0.00     0.000 C
ATOM    107  C5  IDS B   6      28.550  20.034  10.9470  0.00  0.00     0.000 C
ATOM    108  O5  IDS B   6      27.192  19.591  10.9200  0.00  0.00     0.000 O
ATOM    109   O  IDS B   6      30.072  17.777   9.4940  0.00  0.00     0.000 O
ATOM    111  HD  IDS B   6      29.460  17.945   8.9040  0.00  0.00     0.000 HD
BRANCH 104 111
ATOM    111   O  IDS B   6      27.369  16.742  11.6150  0.00  0.00     0.000 O
ATOM    112   S  IDS B   6      26.352  15.515  11.4650  0.00  0.00     0.000 S
ATOM    113   O  IDS B   6      25.257  16.042  10.6670  0.00  0.00     0.000 OA
ATOM    114   O  IDS B   6      27.069  14.390  10.8550  0.00  0.00     0.000 OA
ATOM    115   O  IDS B   6      26.020  15.316  12.8590  0.00  0.00     0.000 OA
ENDBRANCH 104 111
BRANCH 107 116
ATOM    116   C  IDS B   6      28.664  21.302  11.7810  0.00  0.00     0.000 C
ATOM    117   O  IDS B   6      27.720  21.580  12.4780  0.00  0.00     0.000 OA
ATOM    118   O  IDS B   6      29.661  22.005  11.7360  0.00  0.00     0.000 OA
ENDBRANCH 107 116
BRANCH 103 119
ATOM    119  O4  SGN B   7      27.319  18.717   8.6690  0.00  0.00     0.000 O
BRANCH 119 123
ATOM    120  C1  SGN B   7      25.486  20.812   5.5480  0.00  0.00     0.000 C
ATOM    121  C2  SGN B   7      26.740  21.438   6.1870  0.00  0.00     0.000 C
ATOM    122  C3  SGN B   7      27.506  20.391   7.0060  0.00  0.00     0.000 C
ATOM    123  C4  SGN B   7      26.568  19.734   8.0060  0.00  0.00     0.000 C
ATOM    124  C5  SGN B   7      25.350  19.149   7.2730  0.00  0.00     0.000 C
ATOM    125  O5  SGN B   7      24.659  20.169   6.5170  0.00  0.00     0.000 O
ATOM    126   O  SGN B   7      28.607  21.028   7.6640  0.00  0.00     0.000 O
ATOM    128  HD  SGN B   7      27.970  21.078   7.0790  0.00  0.00     0.000 HD
BRANCH 121 130
ATOM    128   N  SGN B   7      26.711  22.261   4.9760  0.00  0.00     0.000 N
ATOM    130  HD  SGN B   7      26.259  22.871   5.3920  0.00  0.00     0.000 HD
ATOM    130   S  SGN B   7      27.595  23.598   4.8240  0.00  0.00     0.000 S
ATOM    131   O  SGN B   7      28.917  23.213   5.1860  0.00  0.00     0.000 OA
ATOM    132   O  SGN B   7      27.337  24.162   3.5480  0.00  0.00     0.000 OA
ATOM    133   O  SGN B   7      26.854  24.541   5.8310  0.00  0.00     0.000 OA
ENDBRANCH 121 130
BRANCH 124 134
ATOM    134   C  SGN B   7      24.306  18.579   8.1880  0.00  0.00     0.000 C
ATOM    135   O  SGN B   7      23.611  19.666   8.8230  0.00  0.00     0.000 O
ATOM    136   S  SGN B   7      22.372  19.281   9.7090  0.00  0.00     0.000 S
ATOM    137   O  SGN B   7      21.910  20.507  10.3150  0.00  0.00     0.000 OA
ATOM    138   O  SGN B   7      22.876  18.330  10.6730  0.00  0.00     0.000 OA
ATOM    139   O  SGN B   7      21.451  18.720   8.7330  0.00  0.00     0.000 OA
ENDBRANCH 124 134
BRANCH 120 140
ATOM    140  O4  IDS B   8      25.428  19.891   4.5800  0.00  0.00     0.000 O
BRANCH 140 144
ATOM    141  C1  IDS B   8      25.134  17.976   1.5450  0.00  0.00     0.000 C
ATOM    142  C2  IDS B   8      24.298  17.612   2.8050  0.00  0.00     0.000 C
ATOM    143  C3  IDS B   8      25.143  17.540   4.0900  0.00  0.00     0.000 C
ATOM    144  C4  IDS B   8      26.129  18.702   4.1940  0.00  0.00     0.000 C
ATOM    145  C5  IDS B   8      26.834  18.920   2.8460  0.00  0.00     0.000 C
ATOM    146  O5  IDS B   8      25.901  19.148   1.7930  0.00  0.00     0.000 O
BRANCH 142 147
ATOM    147   O  IDS B   8      23.253  18.647   3.0230  0.00  0.00     0.000 O
ATOM    148   S  IDS B   8      21.856  18.282   3.7620  0.00  0.00     0.000 S
ATOM    149   O  IDS B   8      21.720  16.843   3.7560  0.00  0.00     0.000 OA
ATOM    150   O  IDS B   8      21.972  18.830   5.1010  0.00  0.00     0.000 OA
ATOM    151   O  IDS B   8      20.826  18.927   2.9710  0.00  0.00     0.000 OA
ENDBRANCH 142 147
BRANCH 145 152
ATOM    152   C  IDS B   8      27.754  20.124   2.8570  0.00  0.00     0.000 C
ATOM    153   O  IDS B   8      28.737  20.128   3.5900  0.00  0.00     0.000 OA
ATOM    154   O  IDS B   8      27.519  21.067   2.1230  0.00  0.00     0.000 OA
ENDBRANCH 145 152
ENDBRANCH 140 144
ENDBRANCH 120 140
ENDBRANCH 119 123
ENDBRANCH 103 119
ENDBRANCH 102 106
ENDBRANCH 82 102
ENDBRANCH 81 85
ENDBRANCH 65 81
ENDBRANCH 64 68
ENDBRANCH 41 64
ENDBRANCH 40 44
ENDBRANCH 24 40
ENDBRANCH 23 27
ENDBRANCH 1 23
TORSDOF 31
ENDMDL
MODEL 98
REMARK VINA RESULT:      -6.5      6.736     12.274
ROOT
ATOM      1  C1  SGN B   1      39.452  25.771  16.3840  0.00  0.00     0.000 C
ATOM      2  C2  SGN B   1      40.297  26.197  17.5960  0.00  0.00     0.000 C
ATOM      3  C3  SGN B   1      39.463  26.158  18.8810  0.00  0.00     0.000 C
ATOM      4  C4  SGN B   1      38.215  27.021  18.7240  0.00  0.00     0.000 C
ATOM      5  C5  SGN B   1      37.503  26.639  17.4280  0.00  0.00     0.000 C
ATOM      6  O5  SGN B   1      38.422  26.748  16.3240  0.00  0.00     0.000 O
ATOM      7   O  SGN B   1      40.235  26.595  19.9930  0.00  0.00     0.000 O
ATOM      9  HD  SGN B   1      40.242  27.297  19.4870  0.00  0.00     0.000 HD
ATOM      9   O  SGN B   1      37.357  26.813  19.8320  0.00  0.00     0.000 O
ATOM     11  HD  SGN B   1      37.364  27.516  19.3260  0.00  0.00     0.000 HD
ENDROOT
BRANCH 2 13
ATOM     11   N  SGN B   1      41.630  26.472  17.0270  0.00  0.00     0.000 N
ATOM     13  HD  SGN B   1      41.217  25.733  16.8430  0.00  0.00     0.000 HD
ATOM     13   S  SGN B   1      42.658  25.296  16.6390  0.00  0.00     0.000 S
ATOM     14   O  SGN B   1      42.068  24.037  16.8770  0.00  0.00     0.000 OA
ATOM     15   O  SGN B   1      43.205  25.581  15.3550  0.00  0.00     0.000 OA
ATOM     16   O  SGN B   1      43.765  25.612  17.6920  0.00  0.00     0.000 OA
ENDBRANCH 2 13
BRANCH 5 17
ATOM     17   C  SGN B   1      36.308  27.501  17.1060  0.00  0.00     0.000 C
ATOM     18   O  SGN B   1      36.579  28.886  17.4020  0.00  0.00     0.000 O
ATOM     19   S  SGN B   1      35.427  29.675  18.1830  0.00  0.00     0.000 S
ATOM     20   O  SGN B   1      35.832  31.064  18.1450  0.00  0.00     0.000 OA
ATOM     21   O  SGN B   1      34.232  29.400  17.4200  0.00  0.00     0.000 OA
ATOM     22   O  SGN B   1      35.418  29.109  19.5140  0.00  0.00     0.000 OA
ENDBRANCH 5 17
BRANCH 1 23
ATOM     23  O4  IDS B   2      39.103  24.655  15.6830  0.00  0.00     0.000 O
BRANCH 23 27
ATOM     24  C1  IDS B   2      35.838  22.654  17.2840  0.00  0.00     0.000 C
ATOM     25  C2  IDS B   2      37.221  22.189  17.7930  0.00  0.00     0.000 C
ATOM     26  C3  IDS B   2      38.313  23.171  17.3790  0.00  0.00     0.000 C
ATOM     27  C4  IDS B   2      38.353  23.439  15.8800  0.00  0.00     0.000 C
ATOM     28  C5  IDS B   2      36.919  23.474  15.3130  0.00  0.00     0.000 C
ATOM     29  O5  IDS B   2      35.973  23.725  16.3420  0.00  0.00     0.000 O
ATOM     30   O  IDS B   2      39.581  22.647  17.7550  0.00  0.00     0.000 O
ATOM     32  HD  IDS B   2      39.876  22.042  17.2100  0.00  0.00     0.000 HD
BRANCH 25 32
ATOM     32   O  IDS B   2      37.263  22.068  19.2710  0.00  0.00     0.000 O
ATOM     33   S  IDS B   2      37.583  20.633  20.0200  0.00  0.00     0.000 S
ATOM     34   O  IDS B   2      37.320  20.847  21.4340  0.00  0.00     0.000 OA
ATOM     35   O  IDS B   2      36.721  19.597  19.4690  0.00  0.00     0.000 OA
ATOM     36   O  IDS B   2      38.983  20.370  19.7780  0.00  0.00     0.000 OA
ENDBRANCH 25 32
BRANCH 28 37
ATOM     37   C  IDS B   2      36.631  24.438  14.1430  0.00  0.00     0.000 C
ATOM     38   O  IDS B   2      37.028  24.016  13.0820  0.00  0.00     0.000 OA
ATOM     39   O  IDS B   2      36.000  25.522  14.1950  0.00  0.00     0.000 OA
ENDBRANCH 28 37
BRANCH 24 40
ATOM     40  O4  SUS B   3      34.751  21.882  17.4920  0.00  0.00     0.000 O
BRANCH 40 44
ATOM     41  C1  SUS B   3      30.778  22.947  18.2860  0.00  0.00     0.000 C
ATOM     42  C2  SUS B   3      31.326  23.266  16.8800  0.00  0.00     0.000 C
ATOM     43  C3  SUS B   3      32.561  22.408  16.6150  0.00  0.00     0.000 C
ATOM     44  C4  SUS B   3      33.565  22.631  17.7350  0.00  0.00     0.000 C
ATOM     45  C5  SUS B   3      32.941  22.196  19.0460  0.00  0.00     0.000 C
ATOM     46  O5  SUS B   3      31.791  23.028  19.2950  0.00  0.00     0.000 O
BRANCH 42 49
ATOM     47   N  SUS B   3      30.470  24.456  16.7360  0.00  0.00     0.000 N
ATOM     49  HD  SUS B   3      29.872  24.579  17.3500  0.00  0.00     0.000 HD
ATOM     49   S  SUS B   3      29.742  24.525  15.3110  0.00  0.00     0.000 S
ATOM     50   O  SUS B   3      28.973  23.361  15.1090  0.00  0.00     0.000 OA
ATOM     51   O  SUS B   3      28.828  25.734  15.6340  0.00  0.00     0.000 OA
ATOM     52   O  SUS B   3      30.685  24.864  14.3210  0.00  0.00     0.000 OA
ENDBRANCH 42 49
BRANCH 43 53
ATOM     53   O  SUS B   3      33.143  22.834  15.3280  0.00  0.00     0.000 O
ATOM     54   S  SUS B   3      33.065  21.767  14.0800  0.00  0.00     0.000 S
ATOM     55   O  SUS B   3      31.673  21.692  13.6570  0.00  0.00     0.000 OA
ATOM     56   O  SUS B   3      33.952  22.331  13.0780  0.00  0.00     0.000 OA
ATOM     57   O  SUS B   3      33.530  20.480  14.6040  0.00  0.00     0.000 OA
ENDBRANCH 43 53
BRANCH 45 58
ATOM     58   C  SUS B   3      33.917  22.294  20.1980  0.00  0.00     0.000 C
ATOM     59   S  SUS B   3      34.854  23.935  21.9340  0.00  0.00     0.000 S
ATOM     60   O  SUS B   3      33.766  23.570  20.8420  0.00  0.00     0.000 O
ATOM     61   O  SUS B   3      36.025  24.343  21.1820  0.00  0.00     0.000 OA
ATOM     62   O  SUS B   3      34.208  25.036  22.5980  0.00  0.00     0.000 OA
ATOM     63   O  SUS B   3      35.014  22.762  22.7190  0.00  0.00     0.000 OA
ENDBRANCH 45 58
BRANCH 41 64
ATOM     64  O4  IDS B   4      30.023  21.801  18.3380  0.00  0.00     0.000 O
BRANCH 64 68
ATOM     65  C1  IDS B   4      27.454  19.399  19.2880  0.00  0.00     0.000 C
ATOM     66  C2  IDS B   4      27.095  20.609  18.4160  0.00  0.00     0.000 C
ATOM     67  C3  IDS B   4      27.660  21.929  18.9110  0.00  0.00     0.000 C
ATOM     68  C4  IDS B   4      29.080  21.805  19.4320  0.00  0.00     0.000 C
ATOM     69  C5  IDS B   4      29.158  20.549  20.3110  0.00  0.00     0.000 C
ATOM     70  O5  IDS B   4      28.851  19.400  19.5180  0.00  0.00     0.000 O
ATOM     71   O  IDS B   4      26.811  22.388  19.9430  0.00  0.00     0.000 O
ATOM     73  HD  IDS B   4      27.026  21.908  19.2550  0.00  0.00     0.000 HD
BRANCH 66 73
ATOM     73   O  IDS B   4      27.671  20.414  17.0780  0.00  0.00     0.000 O
ATOM     74   S  IDS B   4      26.653  20.254  15.8310  0.00  0.00     0.000 S
ATOM     75   O  IDS B   4      25.783  19.143  16.1520  0.00  0.00     0.000 OA
ATOM     76   O  IDS B   4      27.559  19.995  14.7400  0.00  0.00     0.000 OA
ATOM     77   O  IDS B   4      25.957  21.516  15.7370  0.00  0.00     0.000 OA
ENDBRANCH 66 73
BRANCH 69 78
ATOM     78   C  IDS B   4      30.460  20.404  21.0860  0.00  0.00     0.000 C
ATOM     79   O  IDS B   4      31.231  19.495  20.7810  0.00  0.00     0.000 OA
ATOM     80   O  IDS B   4      30.751  21.271  21.9310  0.00  0.00     0.000 OA
ENDBRANCH 69 78
BRANCH 65 81
ATOM     81  O4  SGN B   5      26.651  19.380  20.3880  0.00  0.00     0.000 O
BRANCH 81 85
ATOM     82  C1  SGN B   5      24.518  16.806  22.9300  0.00  0.00     0.000 C
ATOM     83  C2  SGN B   5      25.984  17.087  23.2920  0.00  0.00     0.000 C
ATOM     84  C3  SGN B   5      26.456  18.358  22.5730  0.00  0.00     0.000 C
ATOM     85  C4  SGN B   5      26.229  18.203  21.0800  0.00  0.00     0.000 C
ATOM     86  C5  SGN B   5      24.741  17.953  20.8440  0.00  0.00     0.000 C
ATOM     87  O5  SGN B   5      24.363  16.741  21.5250  0.00  0.00     0.000 O
ATOM     88   O  SGN B   5      27.818  18.591  22.8560  0.00  0.00     0.000 O
ATOM     90  HD  SGN B   5      27.152  19.004  23.2230  0.00  0.00     0.000 HD
BRANCH 83 92
ATOM     90   N  SGN B   5      25.787  15.911  24.1620  0.00  0.00     0.000 N
ATOM     92  HD  SGN B   5      25.771  15.180  23.6980  0.00  0.00     0.000 HD
ATOM     92   S  SGN B   5      26.625  15.832  25.5200  0.00  0.00     0.000 S
ATOM     93   O  SGN B   5      26.218  14.596  26.1170  0.00  0.00     0.000 OA
ATOM     94   O  SGN B   5      27.984  16.031  25.1480  0.00  0.00     0.000 OA
ATOM     95   O  SGN B   5      26.191  17.048  26.3110  0.00  0.00     0.000 OA
ENDBRANCH 83 92
BRANCH 86 96
ATOM     96   C  SGN B   5      24.362  17.789  19.3870  0.00  0.00     0.000 C
ATOM     97   O  SGN B   5      24.725  16.488  18.9170  0.00  0.00     0.000 O
ATOM     98   S  SGN B   5      23.574  15.662  18.1660  0.00  0.00     0.000 S
ATOM     99   O  SGN B   5      24.289  14.520  17.6480  0.00  0.00     0.000 OA
ATOM    100   O  SGN B   5      22.577  15.351  19.1270  0.00  0.00     0.000 OA
ATOM    101   O  SGN B   5      23.109  16.547  17.1480  0.00  0.00     0.000 OA
ENDBRANCH 86 96
BRANCH 82 102
ATOM    102  O4  IDS B   6      23.662  17.724  23.4600  0.00  0.00     0.000 O
BRANCH 102 106
ATOM    103  C1  IDS B   6      20.894  18.878  25.5250  0.00  0.00     0.000 C
ATOM    104  C2  IDS B   6      21.970  17.945  26.1030  0.00  0.00     0.000 C
ATOM    105  C3  IDS B   6      22.314  16.748  25.2380  0.00  0.00     0.000 C
ATOM    106  C4  IDS B   6      22.391  17.094  23.7610  0.00  0.00     0.000 C
ATOM    107  C5  IDS B   6      21.224  18.011  23.3840  0.00  0.00     0.000 C
ATOM    108  O5  IDS B   6      21.199  19.197  24.1810  0.00  0.00     0.000 O
ATOM    109   O  IDS B   6      21.343  15.742  25.4700  0.00  0.00     0.000 O
ATOM    111  HD  IDS B   6      20.657  16.179  25.7670  0.00  0.00     0.000 HD
BRANCH 104 111
ATOM    111   O  IDS B   6      23.227  18.695  26.2460  0.00  0.00     0.000 O
ATOM    112   S  IDS B   6      23.659  19.166  27.7140  0.00  0.00     0.000 S
ATOM    113   O  IDS B   6      22.555  19.993  28.1740  0.00  0.00     0.000 OA
ATOM    114   O  IDS B   6      23.910  17.972  28.5290  0.00  0.00     0.000 OA
ATOM    115   O  IDS B   6      24.852  19.912  27.3780  0.00  0.00     0.000 OA
ENDBRANCH 104 111
BRANCH 107 116
ATOM    116   C  IDS B   6      21.331  18.381  21.9100  0.00  0.00     0.000 C
ATOM    117   O  IDS B   6      21.128  17.500  21.1140  0.00  0.00     0.000 OA
ATOM    118   O  IDS B   6      21.618  19.515  21.5590  0.00  0.00     0.000 OA
ENDBRANCH 107 116
BRANCH 103 119
ATOM    119  O4  SGN B   7      19.727  18.268  25.8590  0.00  0.00     0.000 O
BRANCH 119 123
ATOM    120  C1  SGN B   7      15.807  19.460  26.6950  0.00  0.00     0.000 C
ATOM    121  C2  SGN B   7      16.259  19.476  25.2230  0.00  0.00     0.000 C
ATOM    122  C3  SGN B   7      17.539  18.650  25.0440  0.00  0.00     0.000 C
ATOM    123  C4  SGN B   7      18.601  19.131  26.0180  0.00  0.00     0.000 C
ATOM    124  C5  SGN B   7      18.052  19.083  27.4540  0.00  0.00     0.000 C
ATOM    125  O5  SGN B   7      16.849  19.875  27.5770  0.00  0.00     0.000 O
ATOM    126   O  SGN B   7      17.983  18.768  23.6870  0.00  0.00     0.000 O
ATOM    128  HD  SGN B   7      17.361  18.911  24.2730  0.00  0.00     0.000 HD
BRANCH 121 130
ATOM    128   N  SGN B   7      14.859  19.854  25.0130  0.00  0.00     0.000 N
ATOM    130  HD  SGN B   7      15.105  20.631  24.7190  0.00  0.00     0.000 HD
ATOM    130   S  SGN B   7      14.207  19.959  23.5440  0.00  0.00     0.000 S
ATOM    131   O  SGN B   7      14.540  18.733  22.9020  0.00  0.00     0.000 OA
ATOM    132   O  SGN B   7      12.851  20.351  23.6840  0.00  0.00     0.000 OA
ATOM    133   O  SGN B   7      14.935  21.237  23.0040  0.00  0.00     0.000 OA
ENDBRANCH 121 130
BRANCH 124 134
ATOM    134   C  SGN B   7      18.989  19.648  28.4810  0.00  0.00     0.000 C
ATOM    135   O  SGN B   7      18.211  20.185  29.5640  0.00  0.00     0.000 O
ATOM    136   S  SGN B   7      19.011  20.690  30.8180  0.00  0.00     0.000 S
ATOM    137   O  SGN B   7      18.040  21.272  31.7130  0.00  0.00     0.000 OA
ATOM    138   O  SGN B   7      19.953  21.657  30.3010  0.00  0.00     0.000 OA
ATOM    139   O  SGN B   7      19.617  19.465  31.3160  0.00  0.00     0.000 OA
ENDBRANCH 124 134
BRANCH 120 140
ATOM    140  O4  IDS B   8      15.336  18.425  27.4000  0.00  0.00     0.000 O
BRANCH 140 144
ATOM    141  C1  IDS B   8      13.045  15.712  27.9900  0.00  0.00     0.000 C
ATOM    142  C2  IDS B   8      12.568  17.029  27.3160  0.00  0.00     0.000 C
ATOM    143  C3  IDS B   8      13.017  18.292  28.0730  0.00  0.00     0.000 C
ATOM    144  C4  IDS B   8      14.474  18.203  28.5230  0.00  0.00     0.000 C
ATOM    145  C5  IDS B   8      14.754  16.823  29.1380  0.00  0.00     0.000 C
ATOM    146  O5  IDS B   8      14.446  15.769  28.2300  0.00  0.00     0.000 O
BRANCH 142 147
ATOM    147   O  IDS B   8      13.131  17.116  25.9430  0.00  0.00     0.000 O
ATOM    148   S  IDS B   8      12.435  16.336  24.7030  0.00  0.00     0.000 S
ATOM    149   O  IDS B   8      11.541  15.343  25.2550  0.00  0.00     0.000 OA
ATOM    150   O  IDS B   8      11.739  17.358  23.9440  0.00  0.00     0.000 OA
ATOM    151   O  IDS B   8      13.530  15.730  23.9700  0.00  0.00     0.000 OA
ENDBRANCH 142 147
BRANCH 145 152
ATOM    152   C  IDS B   8      16.211  16.637  29.5140  0.00  0.00     0.000 C
ATOM    153   O  IDS B   8      16.729  17.402  30.3200  0.00  0.00     0.000 OA
ATOM    154   O  IDS B   8      16.845  15.718  29.0290  0.00  0.00     0.000 OA
ENDBRANCH 145 152
ENDBRANCH 140 144
ENDBRANCH 120 140
ENDBRANCH 119 123
ENDBRANCH 103 119
ENDBRANCH 102 106
ENDBRANCH 82 102
ENDBRANCH 81 85
ENDBRANCH 65 81
ENDBRANCH 64 68
ENDBRANCH 41 64
ENDBRANCH 40 44
ENDBRANCH 24 40
ENDBRANCH 23 27
ENDBRANCH 1 23
TORSDOF 31
ENDMDL
MODEL 99
REMARK VINA RESULT:      -5.9      3.161      4.994
ROOT
ATOM      1  C1  SGN B   1      28.324  10.670  14.3940  0.00  0.00     0.000 C
ATOM      2  C2  SGN B   1      29.650  10.195  15.0100  0.00  0.00     0.000 C
ATOM      3  C3  SGN B   1      30.262   9.064  14.1770  0.00  0.00     0.000 C
ATOM      4  C4  SGN B   1      29.262   7.922  14.0250  0.00  0.00     0.000 C
ATOM      5  C5  SGN B   1      27.927   8.487  13.5450  0.00  0.00     0.000 C
ATOM      6  O5  SGN B   1      27.489   9.521  14.4480  0.00  0.00     0.000 O
ATOM      7   O  SGN B   1      31.465   8.597  14.7740  0.00  0.00     0.000 O
ATOM      9  HD  SGN B   1      30.885   8.430  15.3950  0.00  0.00     0.000 HD
ATOM      9   O  SGN B   1      29.759   6.982  13.0900  0.00  0.00     0.000 O
ATOM     11  HD  SGN B   1      29.178   6.815  13.7110  0.00  0.00     0.000 HD
ENDROOT
BRANCH 2 13
ATOM     11   N  SGN B   1      29.537  11.183  16.1000  0.00  0.00     0.000 N
ATOM     13  HD  SGN B   1      29.721  11.437  15.2930  0.00  0.00     0.000 HD
ATOM     13   S  SGN B   1      30.343  12.575  16.0850  0.00  0.00     0.000 S
ATOM     14   O  SGN B   1      31.086  12.693  14.8920  0.00  0.00     0.000 OA
ATOM     15   O  SGN B   1      29.448  13.618  16.4580  0.00  0.00     0.000 OA
ATOM     16   O  SGN B   1      31.273  12.307  17.3080  0.00  0.00     0.000 OA
ENDBRANCH 2 13
BRANCH 5 17
ATOM     17   C  SGN B   1      26.821   7.465  13.4610  0.00  0.00     0.000 C
ATOM     18   O  SGN B   1      25.774   7.910  12.5770  0.00  0.00     0.000 O
ATOM     19   S  SGN B   1      24.278   7.720  13.1090  0.00  0.00     0.000 S
ATOM     20   O  SGN B   1      23.434   8.014  11.9700  0.00  0.00     0.000 OA
ATOM     21   O  SGN B   1      24.226   6.338  13.5250  0.00  0.00     0.000 OA
ATOM     22   O  SGN B   1      24.139   8.667  14.1930  0.00  0.00     0.000 OA
ENDBRANCH 5 17
BRANCH 1 23
ATOM     23  O4  IDS B   2      27.845  11.574  13.4930  0.00  0.00     0.000 O
BRANCH 23 27
ATOM     24  C1  IDS B   2      25.855  14.886  15.0100  0.00  0.00     0.000 C
ATOM     25  C2  IDS B   2      25.012  13.596  14.8940  0.00  0.00     0.000 C
ATOM     26  C3  IDS B   2      25.901  12.387  14.6160  0.00  0.00     0.000 C
ATOM     27  C4  IDS B   2      26.794  12.558  13.3950  0.00  0.00     0.000 C
ATOM     28  C5  IDS B   2      27.291  14.015  13.3050  0.00  0.00     0.000 C
ATOM     29  O5  IDS B   2      27.199  14.661  14.5660  0.00  0.00     0.000 O
ATOM     30   O  IDS B   2      25.081  11.246  14.3920  0.00  0.00     0.000 O
ATOM     32  HD  IDS B   2      24.743  11.218  13.5950  0.00  0.00     0.000 HD
BRANCH 25 32
ATOM     32   O  IDS B   2      24.246  13.314  16.1330  0.00  0.00     0.000 O
ATOM     33   S  IDS B   2      22.603  13.459  16.1940  0.00  0.00     0.000 S
ATOM     34   O  IDS B   2      22.236  13.327  17.5950  0.00  0.00     0.000 OA
ATOM     35   O  IDS B   2      22.212  14.757  15.6610  0.00  0.00     0.000 OA
ATOM     36   O  IDS B   2      22.085  12.363  15.4080  0.00  0.00     0.000 OA
ENDBRANCH 25 32
BRANCH 28 37
ATOM     37   C  IDS B   2      28.703  14.261  12.7350  0.00  0.00     0.000 C
ATOM     38   O  IDS B   2      28.837  13.827  11.6150  0.00  0.00     0.000 OA
ATOM     39   O  IDS B   2      29.639  14.894  13.2830  0.00  0.00     0.000 OA
ENDBRANCH 28 37
BRANCH 24 40
ATOM     40  O4  SUS B   3      25.243  16.075  15.1880  0.00  0.00     0.000 O
BRANCH 40 44
ATOM     41  C1  SUS B   3      26.545  19.469  17.2710  0.00  0.00     0.000 C
ATOM     42  C2  SUS B   3      26.979  19.336  15.7980  0.00  0.00     0.000 C
ATOM     43  C3  SUS B   3      26.055  18.349  15.0880  0.00  0.00     0.000 C
ATOM     44  C4  SUS B   3      26.057  17.035  15.8530  0.00  0.00     0.000 C
ATOM     45  C5  SUS B   3      25.526  17.281  17.2500  0.00  0.00     0.000 C
ATOM     46  O5  SUS B   3      26.419  18.197  17.9170  0.00  0.00     0.000 O
BRANCH 42 49
ATOM     47   N  SUS B   3      27.056  20.725  15.3120  0.00  0.00     0.000 N
ATOM     49  HD  SUS B   3      26.531  20.935  14.6570  0.00  0.00     0.000 HD
ATOM     49   S  SUS B   3      28.546  21.159  14.9160  0.00  0.00     0.000 S
ATOM     50   O  SUS B   3      29.055  20.286  13.9340  0.00  0.00     0.000 OA
ATOM     51   O  SUS B   3      28.173  22.527  14.2900  0.00  0.00     0.000 OA
ATOM     52   O  SUS B   3      29.307  21.339  16.0870  0.00  0.00     0.000 OA
ENDBRANCH 42 49
BRANCH 43 53
ATOM     53   O  SUS B   3      26.578  18.136  13.7240  0.00  0.00     0.000 O
ATOM     54   S  SUS B   3      25.694  18.744  12.4790  0.00  0.00     0.000 S
ATOM     55   O  SUS B   3      25.821  20.194  12.5190  0.00  0.00     0.000 OA
ATOM     56   O  SUS B   3      26.285  18.137  11.2990  0.00  0.00     0.000 OA
ATOM     57   O  SUS B   3      24.308  18.326  12.7110  0.00  0.00     0.000 OA
ENDBRANCH 43 53
BRANCH 45 58
ATOM     58   C  SUS B   3      25.403  15.999  18.0440  0.00  0.00     0.000 C
ATOM     59   S  SUS B   3      24.388  15.026  20.1910  0.00  0.00     0.000 S
ATOM     60   O  SUS B   3      24.478  16.196  19.1260  0.00  0.00     0.000 O
ATOM     61   O  SUS B   3      25.559  15.189  21.0320  0.00  0.00     0.000 OA
ATOM     62   O  SUS B   3      23.166  15.373  20.8660  0.00  0.00     0.000 OA
ATOM     63   O  SUS B   3      24.345  13.826  19.4340  0.00  0.00     0.000 OA
ENDBRANCH 45 58
BRANCH 41 64
ATOM     64  O4  IDS B   4      25.470  20.303  17.4580  0.00  0.00     0.000 O
BRANCH 64 68
ATOM     65  C1  IDS B   4      23.931  22.817  19.5990  0.00  0.00     0.000 C
ATOM     66  C2  IDS B   4      25.423  22.491  19.7400  0.00  0.00     0.000 C
ATOM     67  C3  IDS B   4      25.741  21.006  19.7740  0.00  0.00     0.000 C
ATOM     68  C4  IDS B   4      24.913  20.203  18.7880  0.00  0.00     0.000 C
ATOM     69  C5  IDS B   4      23.460  20.688  18.8790  0.00  0.00     0.000 C
ATOM     70  O5  IDS B   4      23.401  22.071  18.5190  0.00  0.00     0.000 O
ATOM     71   O  IDS B   4      25.490  20.552  21.0880  0.00  0.00     0.000 O
ATOM     73  HD  IDS B   4      25.639  21.145  20.4740  0.00  0.00     0.000 HD
BRANCH 66 73
ATOM     73   O  IDS B   4      26.136  23.017  18.5680  0.00  0.00     0.000 O
ATOM     74   S  IDS B   4      27.530  23.800  18.8160  0.00  0.00     0.000 S
ATOM     75   O  IDS B   4      27.235  24.881  19.7310  0.00  0.00     0.000 OA
ATOM     76   O  IDS B   4      27.866  24.234  17.4830  0.00  0.00     0.000 OA
ATOM     77   O  IDS B   4      28.432  22.816  19.3650  0.00  0.00     0.000 OA
ENDBRANCH 66 73
BRANCH 69 78
ATOM     78   C  IDS B   4      22.461  19.833  18.1100  0.00  0.00     0.000 C
ATOM     79   O  IDS B   4      21.777  20.365  17.2370  0.00  0.00     0.000 OA
ATOM     80   O  IDS B   4      22.446  18.606  18.3160  0.00  0.00     0.000 OA
ENDBRANCH 69 78
BRANCH 65 81
ATOM     81  O4  SGN B   5      23.319  22.668  20.8060  0.00  0.00     0.000 O
BRANCH 81 85
ATOM     82  C1  SGN B   5      19.491  23.574  22.2780  0.00  0.00     0.000 C
ATOM     83  C2  SGN B   5      19.785  23.953  20.8190  0.00  0.00     0.000 C
ATOM     84  C3  SGN B   5      21.000  23.160  20.3180  0.00  0.00     0.000 C
ATOM     85  C4  SGN B   5      22.176  23.405  21.2470  0.00  0.00     0.000 C
ATOM     86  C5  SGN B   5      21.773  22.971  22.6540  0.00  0.00     0.000 C
ATOM     87  O5  SGN B   5      20.645  23.760  23.0760  0.00  0.00     0.000 O
ATOM     88   O  SGN B   5      21.312  23.545  18.9960  0.00  0.00     0.000 O
ATOM     90  HD  SGN B   5      20.891  22.823  19.2230  0.00  0.00     0.000 HD
BRANCH 83 92
ATOM     90   N  SGN B   5      18.536  24.716  21.0040  0.00  0.00     0.000 N
ATOM     92  HD  SGN B   5      18.658  25.389  21.5360  0.00  0.00     0.000 HD
ATOM     92   S  SGN B   5      17.648  25.029  19.7120  0.00  0.00     0.000 S
ATOM     93   O  SGN B   5      16.534  25.772  20.2190  0.00  0.00     0.000 OA
ATOM     94   O  SGN B   5      18.533  25.623  18.7700  0.00  0.00     0.000 OA
ATOM     95   O  SGN B   5      17.262  23.668  19.1730  0.00  0.00     0.000 OA
ENDBRANCH 83 92
BRANCH 86 96
ATOM     96   C  SGN B   5      22.861  23.148  23.6930  0.00  0.00     0.000 C
ATOM     97   O  SGN B   5      22.383  22.778  24.9890  0.00  0.00     0.000 O
ATOM     98   S  SGN B   5      23.296  21.747  25.8110  0.00  0.00     0.000 S
ATOM     99   O  SGN B   5      22.672  21.737  27.1120  0.00  0.00     0.000 OA
ATOM    100   O  SGN B   5      23.259  20.505  25.1260  0.00  0.00     0.000 OA
ATOM    101   O  SGN B   5      24.593  22.344  25.8100  0.00  0.00     0.000 OA
ENDBRANCH 86 96
BRANCH 82 102
ATOM    102  O4  IDS B   6      19.027  22.299  22.4050  0.00  0.00     0.000 O
BRANCH 102 106
ATOM    103  C1  IDS B   6      16.469  19.774  22.9930  0.00  0.00     0.000 C
ATOM    104  C2  IDS B   6      16.183  20.990  22.0970  0.00  0.00     0.000 C
ATOM    105  C3  IDS B   6      16.607  22.327  22.6740  0.00  0.00     0.000 C
ATOM    106  C4  IDS B   6      17.951  22.263  23.3770  0.00  0.00     0.000 C
ATOM    107  C5  IDS B   6      18.028  20.993  24.2300  0.00  0.00     0.000 C
ATOM    108  O5  IDS B   6      17.807  19.815  23.4520  0.00  0.00     0.000 O
ATOM    109   O  IDS B   6      15.593  22.765  23.5630  0.00  0.00     0.000 O
ATOM    111  HD  IDS B   6      15.186  22.036  23.7910  0.00  0.00     0.000 HD
BRANCH 104 111
ATOM    111   O  IDS B   6      16.939  20.850  20.8430  0.00  0.00     0.000 O
ATOM    112   S  IDS B   6      16.197  20.195  19.5850  0.00  0.00     0.000 S
ATOM    113   O  IDS B   6      15.790  18.877  20.0460  0.00  0.00     0.000 OA
ATOM    114   O  IDS B   6      15.091  21.074  19.1890  0.00  0.00     0.000 OA
ATOM    115   O  IDS B   6      17.299  20.175  18.6480  0.00  0.00     0.000 OA
ENDBRANCH 104 111
BRANCH 107 116
ATOM    116   C  IDS B   6      19.393  20.920  24.9020  0.00  0.00     0.000 C
ATOM    117   O  IDS B   6      19.574  21.651  25.8420  0.00  0.00     0.000 OA
ATOM    118   O  IDS B   6      20.261  20.163  24.4970  0.00  0.00     0.000 OA
ENDBRANCH 107 116
BRANCH 103 119
ATOM    119  O4  SGN B   7      15.425  19.761  23.8600  0.00  0.00     0.000 O
BRANCH 119 123
ATOM    120  C1  SGN B   7      13.257  16.865  25.9580  0.00  0.00     0.000 C
ATOM    121  C2  SGN B   7      14.733  17.069  26.3450  0.00  0.00     0.000 C
ATOM    122  C3  SGN B   7      15.256  18.401  25.7890  0.00  0.00     0.000 C
ATOM    123  C4  SGN B   7      14.996  18.470  24.2930  0.00  0.00     0.000 C
ATOM    124  C5  SGN B   7      13.501  18.248  24.0120  0.00  0.00     0.000 C
ATOM    125  O5  SGN B   7      13.053  16.984  24.5510  0.00  0.00     0.000 O
ATOM    126   O  SGN B   7      16.653  18.511  26.0820  0.00  0.00     0.000 O
ATOM    128  HD  SGN B   7      15.907  18.090  26.2060  0.00  0.00     0.000 HD
BRANCH 121 130
ATOM    128   N  SGN B   7      15.761  16.548  27.2490  0.00  0.00     0.000 N
ATOM    130  HD  SGN B   7      15.547  17.139  27.8450  0.00  0.00     0.000 HD
ATOM    130   S  SGN B   7      15.396  15.689  28.5610  0.00  0.00     0.000 S
ATOM    131   O  SGN B   7      14.509  14.673  28.1060  0.00  0.00     0.000 OA
ATOM    132   O  SGN B   7      16.604  15.344  29.2200  0.00  0.00     0.000 OA
ATOM    133   O  SGN B   7      14.760  16.804  29.4590  0.00  0.00     0.000 OA
ENDBRANCH 121 130
BRANCH 124 134
ATOM    134   C  SGN B   7      13.161  18.183  22.5520  0.00  0.00     0.000 C
ATOM    135   O  SGN B   7      12.183  17.148  22.3550  0.00  0.00     0.000 O
ATOM    136   S  SGN B   7      11.579  17.021  20.9100  0.00  0.00     0.000 S
ATOM    137   O  SGN B   7      10.715  15.866  20.9310  0.00  0.00     0.000 OA
ATOM    138   O  SGN B   7      12.719  16.858  20.0360  0.00  0.00     0.000 OA
ATOM    139   O  SGN B   7      10.876  18.285  20.7530  0.00  0.00     0.000 OA
ENDBRANCH 124 134
BRANCH 120 140
ATOM    140  O4  IDS B   8      12.192  17.554  26.3820  0.00  0.00     0.000 O
BRANCH 140 144
ATOM    141  C1  IDS B   8      10.111  20.351  27.2820  0.00  0.00     0.000 C
ATOM    142  C2  IDS B   8      11.631  20.346  27.6140  0.00  0.00     0.000 C
ATOM    143  C3  IDS B   8      12.097  19.041  28.2870  0.00  0.00     0.000 C
ATOM    144  C4  IDS B   8      11.503  17.805  27.6130  0.00  0.00     0.000 C
ATOM    145  C5  IDS B   8      10.005  18.015  27.3470  0.00  0.00     0.000 C
ATOM    146  O5  IDS B   8       9.768  19.177  26.5570  0.00  0.00     0.000 O
BRANCH 142 147
ATOM    147   O  IDS B   8      12.413  20.496  26.3580  0.00  0.00     0.000 O
ATOM    148   S  IDS B   8      13.084  21.917  25.9560  0.00  0.00     0.000 S
ATOM    149   O  IDS B   8      12.460  22.940  26.7640  0.00  0.00     0.000 OA
ATOM    150   O  IDS B   8      14.500  21.768  26.2330  0.00  0.00     0.000 OA
ATOM    151   O  IDS B   8      12.795  22.090  24.5450  0.00  0.00     0.000 OA
ENDBRANCH 142 147
BRANCH 145 152
ATOM    152   C  IDS B   8       9.380  16.861  26.5900  0.00  0.00     0.000 C
ATOM    153   O  IDS B   8       9.784  15.720  26.7850  0.00  0.00     0.000 OA
ATOM    154   O  IDS B   8       8.468  17.076  25.8110  0.00  0.00     0.000 OA
ENDBRANCH 145 152
ENDBRANCH 140 144
ENDBRANCH 120 140
ENDBRANCH 119 123
ENDBRANCH 103 119
ENDBRANCH 102 106
ENDBRANCH 82 102
ENDBRANCH 81 85
ENDBRANCH 65 81
ENDBRANCH 64 68
ENDBRANCH 41 64
ENDBRANCH 40 44
ENDBRANCH 24 40
ENDBRANCH 23 27
ENDBRANCH 1 23
TORSDOF 31
ENDMDL
MODEL 100
REMARK VINA RESULT:      -4.4      6.119     10.303
ROOT
ATOM      1  C1  SGN B   1      28.315  10.623  15.1840  0.00  0.00     0.000 C
ATOM      2  C2  SGN B   1      28.844   9.315  14.5730  0.00  0.00     0.000 C
ATOM      3  C3  SGN B   1      27.726   8.570  13.8350  0.00  0.00     0.000 C
ATOM      4  C4  SGN B   1      26.548   8.326  14.7720  0.00  0.00     0.000 C
ATOM      5  C5  SGN B   1      26.169   9.641  15.4500  0.00  0.00     0.000 C
ATOM      6  O5  SGN B   1      27.325  10.194  16.1090  0.00  0.00     0.000 O
ATOM      7   O  SGN B   1      28.208   7.340  13.3080  0.00  0.00     0.000 O
ATOM      9  HD  SGN B   1      28.333   7.228  14.1580  0.00  0.00     0.000 HD
ATOM      9   O  SGN B   1      25.452   7.826  14.0300  0.00  0.00     0.000 O
ATOM     11  HD  SGN B   1      25.576   7.714  14.8790  0.00  0.00     0.000 HD
ENDROOT
BRANCH 2 13
ATOM     11   N  SGN B   1      30.257   9.373  14.9930  0.00  0.00     0.000 N
ATOM     13  HD  SGN B   1      29.906  10.021  14.5380  0.00  0.00     0.000 HD
ATOM     13   S  SGN B   1      31.369  10.184  14.1590  0.00  0.00     0.000 S
ATOM     14   O  SGN B   1      30.773  10.831  13.0570  0.00  0.00     0.000 OA
ATOM     15   O  SGN B   1      32.154  10.941  15.0750  0.00  0.00     0.000 OA
ATOM     16   O  SGN B   1      32.236   8.969  13.7050  0.00  0.00     0.000 OA
ENDBRANCH 2 13
BRANCH 5 17
ATOM     17   C  SGN B   1      25.082   9.506  16.4870  0.00  0.00     0.000 C
ATOM     18   O  SGN B   1      24.093  10.543  16.3340  0.00  0.00     0.000 O
ATOM     19   S  SGN B   1      23.626  11.271  17.6800  0.00  0.00     0.000 S
ATOM     20   O  SGN B   1      22.488  12.079  17.2940  0.00  0.00     0.000 OA
ATOM     21   O  SGN B   1      23.288  10.184  18.5690  0.00  0.00     0.000 OA
ATOM     22   O  SGN B   1      24.770  12.046  18.1060  0.00  0.00     0.000 OA
ENDBRANCH 5 17
BRANCH 1 23
ATOM     23  O4  IDS B   2      28.149  11.940  14.8730  0.00  0.00     0.000 O
BRANCH 23 27
ATOM     24  C1  IDS B   2      27.105  15.562  13.1350  0.00  0.00     0.000 C
ATOM     25  C2  IDS B   2      26.249  14.348  12.7120  0.00  0.00     0.000 C
ATOM     26  C3  IDS B   2      26.517  13.149  13.6180  0.00  0.00     0.000 C
ATOM     27  C4  IDS B   2      27.988  12.768  13.7020  0.00  0.00     0.000 C
ATOM     28  C5  IDS B   2      28.863  14.038  13.6940  0.00  0.00     0.000 C
ATOM     29  O5  IDS B   2      28.109  15.176  14.0830  0.00  0.00     0.000 O
ATOM     30   O  IDS B   2      25.808  12.020  13.1210  0.00  0.00     0.000 O
ATOM     32  HD  IDS B   2      26.201  11.638  12.4500  0.00  0.00     0.000 HD
BRANCH 25 32
ATOM     32   O  IDS B   2      24.795  14.638  12.7690  0.00  0.00     0.000 O
ATOM     33   S  IDS B   2      23.935  14.506  14.1720  0.00  0.00     0.000 S
ATOM     34   O  IDS B   2      22.535  14.642  13.8020  0.00  0.00     0.000 OA
ATOM     35   O  IDS B   2      24.201  13.212  14.7830  0.00  0.00     0.000 OA
ATOM     36   O  IDS B   2      24.370  15.606  15.0010  0.00  0.00     0.000 OA
ENDBRANCH 25 32
BRANCH 28 37
ATOM     37   C  IDS B   2      30.170  14.018  14.5140  0.00  0.00     0.000 C
ATOM     38   O  IDS B   2      29.975  14.070  15.7050  0.00  0.00     0.000 OA
ATOM     39   O  IDS B   2      31.338  13.894  14.0710  0.00  0.00     0.000 OA
ENDBRANCH 28 37
BRANCH 24 40
ATOM     40  O4  SUS B   3      27.060  16.701  12.4140  0.00  0.00     0.000 O
BRANCH 40 44
ATOM     41  C1  SUS B   3      25.740  19.177  15.5240  0.00  0.00     0.000 C
ATOM     42  C2  SUS B   3      24.784  18.974  14.3310  0.00  0.00     0.000 C
ATOM     43  C3  SUS B   3      25.195  17.717  13.5670  0.00  0.00     0.000 C
ATOM     44  C4  SUS B   3      26.659  17.836  13.1730  0.00  0.00     0.000 C
ATOM     45  C5  SUS B   3      27.498  17.938  14.4300  0.00  0.00     0.000 C
ATOM     46  O5  SUS B   3      27.116  19.140  15.1300  0.00  0.00     0.000 O
BRANCH 42 49
ATOM     47   N  SUS B   3      23.772  19.581  15.2120  0.00  0.00     0.000 N
ATOM     49  HD  SUS B   3      23.410  19.060  15.8020  0.00  0.00     0.000 HD
ATOM     49   S  SUS B   3      22.598  20.304  14.3980  0.00  0.00     0.000 S
ATOM     50   O  SUS B   3      21.978  19.382  13.5300  0.00  0.00     0.000 OA
ATOM     51   O  SUS B   3      21.689  20.601  15.6180  0.00  0.00     0.000 OA
ATOM     52   O  SUS B   3      23.086  21.501  13.8370  0.00  0.00     0.000 OA
ENDBRANCH 42 49
BRANCH 43 53
ATOM     53   O  SUS B   3      24.355  17.626  12.3560  0.00  0.00     0.000 O
ATOM     54   S  SUS B   3      24.691  18.669  11.1310  0.00  0.00     0.000 S
ATOM     55   O  SUS B   3      25.951  18.249  10.5340  0.00  0.00     0.000 OA
ATOM     56   O  SUS B   3      23.551  18.544  10.2400  0.00  0.00     0.000 OA
ATOM     57   O  SUS B   3      24.807  19.998  11.7380  0.00  0.00     0.000 OA
ENDBRANCH 43 53
BRANCH 45 58
ATOM     58   C  SUS B   3      28.979  17.960  14.1220  0.00  0.00     0.000 C
ATOM     59   S  SUS B   3      30.681  18.761  12.3770  0.00  0.00     0.000 S
ATOM     60   O  SUS B   3      29.215  18.793  12.9750  0.00  0.00     0.000 O
ATOM     61   O  SUS B   3      30.755  17.526  11.6190  0.00  0.00     0.000 OA
ATOM     62   O  SUS B   3      30.653  19.928  11.5360  0.00  0.00     0.000 OA
ATOM     63   O  SUS B   3      31.550  18.840  13.4970  0.00  0.00     0.000 OA
ENDBRANCH 45 58
BRANCH 41 64
ATOM     64  O4  IDS B   4      25.444  18.390  16.6100  0.00  0.00     0.000 O
BRANCH 64 68
ATOM     65  C1  IDS B   4      25.224  17.175  20.0370  0.00  0.00     0.000 C
ATOM     66  C2  IDS B   4      24.075  17.992  19.4330  0.00  0.00     0.000 C
ATOM     67  C3  IDS B   4      24.517  19.244  18.6930  0.00  0.00     0.000 C
ATOM     68  C4  IDS B   4      25.770  19.028  17.8650  0.00  0.00     0.000 C
ATOM     69  C5  IDS B   4      26.772  18.233  18.7120  0.00  0.00     0.000 C
ATOM     70  O5  IDS B   4      26.206  16.962  19.0400  0.00  0.00     0.000 O
ATOM     71   O  IDS B   4      24.753  20.243  19.6640  0.00  0.00     0.000 O
ATOM     73  HD  IDS B   4      24.431  19.497  19.3640  0.00  0.00     0.000 HD
BRANCH 66 73
ATOM     73   O  IDS B   4      23.385  17.169  18.4300  0.00  0.00     0.000 O
ATOM     74   S  IDS B   4      21.932  16.570  18.8110  0.00  0.00     0.000 S
ATOM     75   O  IDS B   4      22.109  15.807  20.0280  0.00  0.00     0.000 OA
ATOM     76   O  IDS B   4      21.629  15.767  17.6540  0.00  0.00     0.000 OA
ATOM     77   O  IDS B   4      21.073  17.719  18.9770  0.00  0.00     0.000 OA
ENDBRANCH 66 73
BRANCH 69 78
ATOM     78   C  IDS B   4      28.163  18.123  18.1040  0.00  0.00     0.000 C
ATOM     79   O  IDS B   4      28.894  19.113  18.1170  0.00  0.00     0.000 OA
ATOM     80   O  IDS B   4      28.555  17.010  17.7090  0.00  0.00     0.000 OA
ENDBRANCH 69 78
BRANCH 65 81
ATOM     81  O4  SGN B   5      25.640  17.764  21.1930  0.00  0.00     0.000 O
BRANCH 81 85
ATOM     82  C1  SGN B   5      28.227  17.199  24.4520  0.00  0.00     0.000 C
ATOM     83  C2  SGN B   5      28.750  18.052  23.2860  0.00  0.00     0.000 C
ATOM     84  C3  SGN B   5      27.568  18.536  22.4340  0.00  0.00     0.000 C
ATOM     85  C4  SGN B   5      26.754  17.337  21.9800  0.00  0.00     0.000 C
ATOM     86  C5  SGN B   5      26.273  16.587  23.2200  0.00  0.00     0.000 C
ATOM     87  O5  SGN B   5      27.422  16.142  23.9660  0.00  0.00     0.000 O
ATOM     88   O  SGN B   5      28.044  19.272  21.3290  0.00  0.00     0.000 O
ATOM     90  HD  SGN B   5      27.707  19.612  22.0510  0.00  0.00     0.000 HD
BRANCH 83 92
ATOM     90   N  SGN B   5      30.105  17.749  23.7860  0.00  0.00     0.000 N
ATOM     92  HD  SGN B   5      30.397  17.002  23.4600  0.00  0.00     0.000 HD
ATOM     92   S  SGN B   5      31.174  18.936  23.8230  0.00  0.00     0.000 S
ATOM     93   O  SGN B   5      32.362  18.327  24.3410  0.00  0.00     0.000 OA
ATOM     94   O  SGN B   5      31.173  19.498  22.5160  0.00  0.00     0.000 OA
ATOM     95   O  SGN B   5      30.575  19.964  24.7580  0.00  0.00     0.000 OA
ENDBRANCH 83 92
BRANCH 86 96
ATOM     96   C  SGN B   5      25.431  15.365  22.9180  0.00  0.00     0.000 C
ATOM     97   O  SGN B   5      24.468  15.150  23.9530  0.00  0.00     0.000 O
ATOM     98   S  SGN B   5      22.950  14.950  23.4750  0.00  0.00     0.000 S
ATOM     99   O  SGN B   5      22.282  14.560  24.6930  0.00  0.00     0.000 OA
ATOM    100   O  SGN B   5      22.511  16.183  22.9270  0.00  0.00     0.000 OA
ATOM    101   O  SGN B   5      23.017  13.904  22.5070  0.00  0.00     0.000 OA
ENDBRANCH 86 96
BRANCH 82 102
ATOM    102  O4  IDS B   6      27.541  17.934  25.3730  0.00  0.00     0.000 O
BRANCH 102 106
ATOM    103  C1  IDS B   6      27.346  17.651  28.9970  0.00  0.00     0.000 C
ATOM    104  C2  IDS B   6      28.271  16.730  28.1860  0.00  0.00     0.000 C
ATOM    105  C3  IDS B   6      27.633  16.094  26.9650  0.00  0.00     0.000 C
ATOM    106  C4  IDS B   6      26.739  17.056  26.2030  0.00  0.00     0.000 C
ATOM    107  C5  IDS B   6      25.889  17.863  27.1880  0.00  0.00     0.000 C
ATOM    108  O5  IDS B   6      26.694  18.565  28.1360  0.00  0.00     0.000 O
ATOM    109   O  IDS B   6      26.902  14.956  27.3910  0.00  0.00     0.000 O
ATOM    111  HD  IDS B   6      26.740  15.114  28.2270  0.00  0.00     0.000 HD
BRANCH 104 111
ATOM    111   O  IDS B   6      29.399  17.519  27.6680  0.00  0.00     0.000 O
ATOM    112   S  IDS B   6      30.882  16.976  27.9350  0.00  0.00     0.000 S
ATOM    113   O  IDS B   6      30.985  16.889  29.3830  0.00  0.00     0.000 OA
ATOM    114   O  IDS B   6      31.042  15.699  27.2310  0.00  0.00     0.000 OA
ATOM    115   O  IDS B   6      31.637  18.067  27.3570  0.00  0.00     0.000 OA
ENDBRANCH 104 111
BRANCH 107 116
ATOM    116   C  IDS B   6      25.022  18.849  26.4150  0.00  0.00     0.000 C
ATOM    117   O  IDS B   6      25.152  20.015  26.6890  0.00  0.00     0.000 OA
ATOM    118   O  IDS B   6      24.229  18.470  25.5670  0.00  0.00     0.000 OA
ENDBRANCH 107 116
BRANCH 103 119
ATOM    119  O4  SGN B   7      26.643  16.793  29.7790  0.00  0.00     0.000 O
BRANCH 119 123
ATOM    120  C1  SGN B   7      25.768  16.824  33.8690  0.00  0.00     0.000 C
ATOM    121  C2  SGN B   7      24.588  16.940  32.8860  0.00  0.00     0.000 C
ATOM    122  C3  SGN B   7      25.018  16.513  31.4760  0.00  0.00     0.000 C
ATOM    123  C4  SGN B   7      26.249  17.298  31.0550  0.00  0.00     0.000 C
ATOM    124  C5  SGN B   7      27.362  17.124  32.1010  0.00  0.00     0.000 C
ATOM    125  O5  SGN B   7      26.915  17.538  33.4110  0.00  0.00     0.000 O
ATOM    126   O  SGN B   7      23.928  16.727  30.5720  0.00  0.00     0.000 O
ATOM    128  HD  SGN B   7      24.210  16.697  31.3900  0.00  0.00     0.000 HD
BRANCH 121 130
ATOM    128   N  SGN B   7      23.598  16.150  33.6220  0.00  0.00     0.000 N
ATOM    130  HD  SGN B   7      23.805  16.561  34.3560  0.00  0.00     0.000 HD
ATOM    130   S  SGN B   7      22.210  16.779  34.1420  0.00  0.00     0.000 S
ATOM    131   O  SGN B   7      21.648  17.428  33.0070  0.00  0.00     0.000 OA
ATOM    132   O  SGN B   7      21.485  15.764  34.8190  0.00  0.00     0.000 OA
ATOM    133   O  SGN B   7      22.735  17.717  35.2800  0.00  0.00     0.000 OA
ENDBRANCH 121 130
BRANCH 124 134
ATOM    134   C  SGN B   7      28.582  17.955  31.8330  0.00  0.00     0.000 C
ATOM    135   O  SGN B   7      28.610  19.044  32.7700  0.00  0.00     0.000 O
ATOM    136   S  SGN B   7      29.894  19.949  32.7560  0.00  0.00     0.000 S
ATOM    137   O  SGN B   7      29.648  21.019  33.6930  0.00  0.00     0.000 OA
ATOM    138   O  SGN B   7      30.016  20.410  31.3920  0.00  0.00     0.000 OA
ATOM    139   O  SGN B   7      30.934  19.022  33.1740  0.00  0.00     0.000 OA
ENDBRANCH 124 134
BRANCH 120 140
ATOM    140  O4  IDS B   8      26.373  15.712  34.3010  0.00  0.00     0.000 O
BRANCH 140 144
ATOM    141  C1  IDS B   8      28.455  13.069  35.5820  0.00  0.00     0.000 C
ATOM    142  C2  IDS B   8      28.559  13.521  34.0970  0.00  0.00     0.000 C
ATOM    143  C3  IDS B   8      27.190  13.621  33.4000  0.00  0.00     0.000 C
ATOM    144  C4  IDS B   8      26.144  14.297  34.2850  0.00  0.00     0.000 C
ATOM    145  C5  IDS B   8      26.216  13.736  35.7130  0.00  0.00     0.000 C
ATOM    146  O5  IDS B   8      27.518  13.886  36.2740  0.00  0.00     0.000 O
BRANCH 142 147
ATOM    147   O  IDS B   8      29.186  14.867  34.0310  0.00  0.00     0.000 O
ATOM    148   S  IDS B   8      30.788  15.034  33.8370  0.00  0.00     0.000 S
ATOM    149   O  IDS B   8      31.402  13.761  34.1420  0.00  0.00     0.000 OA
ATOM    150   O  IDS B   8      30.971  15.428  32.4530  0.00  0.00     0.000 OA
ATOM    151   O  IDS B   8      31.181  16.065  34.7790  0.00  0.00     0.000 OA
ENDBRANCH 142 147
BRANCH 145 152
ATOM    152   C  IDS B   8      25.269  14.438  36.6650  0.00  0.00     0.000 C
ATOM    153   O  IDS B   8      25.687  14.845  37.7430  0.00  0.00     0.000 OA
ATOM    154   O  IDS B   8      24.108  14.610  36.3410  0.00  0.00     0.000 OA
ENDBRANCH 145 152
ENDBRANCH 140 144
ENDBRANCH 120 140
ENDBRANCH 119 123
ENDBRANCH 103 119
ENDBRANCH 102 106
ENDBRANCH 82 102
ENDBRANCH 81 85
ENDBRANCH 65 81
ENDBRANCH 64 68
ENDBRANCH 41 64
ENDBRANCH 40 44
ENDBRANCH 24 40
ENDBRANCH 23 27
ENDBRANCH 1 23
TORSDOF 31
ENDMDL
