MODEL 1
REMARK VINA RESULT:      -6.0      0.000      0.000
ROOT
ATOM      1  C1  Z9H D   1      18.710  28.113   6.9220  0.00  0.00     0.000 C
ATOM      2  C2  Z9H D   1      18.941  26.632   7.3090  0.00  0.00     0.000 C
ATOM      3  C3  Z9H D   1      20.448  26.534   6.9220  0.00  0.00     0.000 C
ATOM      4  C4  Z9H D   1      20.813  27.058   5.4720  0.00  0.00     0.000 C
ATOM      5  C5  Z9H D   1      20.303  28.439   4.8980  0.00  0.00     0.000 C
ATOM      6  O5  Z9H D   1      19.034  28.584   5.5850  0.00  0.00     0.000 O
ATOM      7   O  Z9H D   1      20.956  25.213   7.1160  0.00  0.00     0.000 O
ATOM      8   C  Z9H D   1      21.675  25.002   8.3420  0.00  0.00     0.000 C
ATOM      9   O  Z9H D   1      22.243  27.079   5.4140  0.00  0.00     0.000 O
ATOM     10   C  Z9H D   1      22.852  25.960   4.7630  0.00  0.00     0.000 C
ENDROOT
BRANCH 2 11
ATOM     11   O  Z9H D   1      18.926  26.691   8.7110  0.00  0.00     0.000 O
ATOM     12   O  Z9H D   1      17.582  25.923   9.7890  0.00  0.00     0.000 OA
ATOM     13   S  Z9H D   1      17.635  25.830   8.3690  0.00  0.00     0.000 S
ATOM     14   O  Z9H D   1      18.063  24.548   7.8870  0.00  0.00     0.000 OA
ATOM     15   O  Z9H D   1      16.597  26.639   7.7720  0.00  0.00     0.000 O
ENDBRANCH 2 11
BRANCH 5 16
ATOM     16   C  Z9H D   1      20.417  28.602   3.2360  0.00  0.00     0.000 C
ATOM     17   S  Z9H D   1      19.696  29.593   1.6430  0.00  0.00     0.000 S
ATOM     18   O  Z9H D   1      20.109  29.973   3.1560  0.00  0.00     0.000 O
ATOM     19   O  Z9H D   1      18.537  28.756   1.5270  0.00  0.00     0.000 O
ATOM     20   O  Z9H D   1      20.860  29.428   0.8440  0.00  0.00     0.000 OA
ATOM     21   O  Z9H D   1      19.355  30.985   1.6360  0.00  0.00     0.000 OA
ENDBRANCH 5 16
BRANCH 1 22
ATOM     22  O4  GU1 D   2      19.455  29.089   7.7370  0.00  0.00     0.000 O
BRANCH 22 26
ATOM     23  C1  GU1 D   2      19.379  32.922   9.2450  0.00  0.00     0.000 C
ATOM     24  C2  GU1 D   2      18.011  32.290   9.0340  0.00  0.00     0.000 C
ATOM     25  C3  GU1 D   2      18.170  30.807   8.8590  0.00  0.00     0.000 C
ATOM     26  C4  GU1 D   2      19.178  30.494   7.7630  0.00  0.00     0.000 C
ATOM     27  C5  GU1 D   2      20.481  31.258   8.0140  0.00  0.00     0.000 C
ATOM     28  O5  GU1 D   2      20.224  32.655   8.1320  0.00  0.00     0.000 O
ATOM     29   O  GU1 D   2      17.143  32.517  10.1380  0.00  0.00     0.000 O
ATOM     30   C  GU1 D   2      16.264  33.619   9.9610  0.00  0.00     0.000 C
ATOM     31   C  GU1 D   2      16.201  29.601   9.5380  0.00  0.00     0.000 C
ATOM     32   O  GU1 D   2      16.902  30.258   8.4850  0.00  0.00     0.000 O
BRANCH 27 33
ATOM     33   C  GU1 D   2      21.457  31.062   6.8790  0.00  0.00     0.000 C
ATOM     34   O  GU1 D   2      21.295  31.701   5.8600  0.00  0.00     0.000 OA
ATOM     35   O  GU1 D   2      22.389  30.280   6.9900  0.00  0.00     0.000 O
ENDBRANCH 27 33
BRANCH 23 36
ATOM     36  O4  GU6 D   3      19.527  34.354   9.1940  0.00  0.00     0.000 O
BRANCH 36 40
ATOM     37  C1  GU6 D   3      19.684  38.313  10.1920  0.00  0.00     0.000 C
ATOM     38  C2  GU6 D   3      19.520  38.058   8.6990  0.00  0.00     0.000 C
ATOM     39  C3  GU6 D   3      19.202  36.604   8.4670  0.00  0.00     0.000 C
ATOM     40  C4  GU6 D   3      19.322  35.690   9.6080  0.00  0.00     0.000 C
ATOM     41  C5  GU6 D   3      20.558  36.098  10.4770  0.00  0.00     0.000 C
ATOM     42  O5  GU6 D   3      20.744  37.504  10.6760  0.00  0.00     0.000 O
BRANCH 38 43
ATOM     43   O  GU6 D   3      18.491  38.869   8.1660  0.00  0.00     0.000 O
ATOM     44   S  GU6 D   3      18.978  40.159   7.5190  0.00  0.00     0.000 S
ATOM     45   O  GU6 D   3      19.205  41.157   8.5790  0.00  0.00     0.000 OA
ATOM     46   O  GU6 D   3      20.248  39.886   6.8230  0.00  0.00     0.000 O
ATOM     47   O  GU6 D   3      17.973  40.616   6.5650  0.00  0.00     0.000 OA
ENDBRANCH 38 43
BRANCH 39 48
ATOM     48   O  GU6 D   3      18.588  36.177   7.2660  0.00  0.00     0.000 O
ATOM     49   S  GU6 D   3      19.183  36.005   5.8690  0.00  0.00     0.000 S
ATOM     50   O  GU6 D   3      20.345  35.110   5.9210  0.00  0.00     0.000 OA
ATOM     51   O  GU6 D   3      18.080  35.400   5.1100  0.00  0.00     0.000 OA
ATOM     52   O  GU6 D   3      19.588  37.331   5.3530  0.00  0.00     0.000 O
ENDBRANCH 39 48
BRANCH 41 53
ATOM     53   C  GU6 D   3      21.576  35.216  11.1490  0.00  0.00     0.000 C
ATOM     54   O  GU6 D   3      22.406  35.002  10.0370  0.00  0.00     0.000 O
ATOM     55   S  GU6 D   3      23.598  34.039  10.1300  0.00  0.00     0.000 S
ATOM     56   O  GU6 D   3      23.036  32.682  10.3260  0.00  0.00     0.000 O
ATOM     57   O  GU6 D   3      24.357  34.112   8.8740  0.00  0.00     0.000 OA
ATOM     58   O  GU6 D   3      24.407  34.454  11.2980  0.00  0.00     0.000 OA
ENDBRANCH 41 53
BRANCH 37 59
ATOM     59  O4  Z9K D   4      18.619  38.252  11.1650  0.00  0.00     0.000 O
BRANCH 59 63
ATOM     60  C1  Z9K D   4      16.251  41.371  11.5030  0.00  0.00     0.000 C
ATOM     61  C2  Z9K D   4      17.580  41.939  12.0720  0.00  0.00     0.000 C
ATOM     62  C3  Z9K D   4      18.578  40.740  11.7630  0.00  0.00     0.000 C
ATOM     63  C4  Z9K D   4      18.129  39.265  12.0920  0.00  0.00     0.000 C
ATOM     64  C5  Z9K D   4      16.615  39.004  12.0930  0.00  0.00     0.000 C
ATOM     65  O5  Z9K D   4      16.128  39.931  11.0870  0.00  0.00     0.000 O
ATOM     66   O  Z9K D   4      19.859  40.887  12.4010  0.00  0.00     0.000 O
ATOM     67   C  Z9K D   4      20.791  41.668  11.6700  0.00  0.00     0.000 C
BRANCH 61 68
ATOM     68   O  Z9K D   4      17.966  42.996  11.2360  0.00  0.00     0.000 O
ATOM     69   O  Z9K D   4      18.652  43.436  13.6620  0.00  0.00     0.000 OA
ATOM     70   S  Z9K D   4      17.702  43.759  12.6410  0.00  0.00     0.000 S
ATOM     71   O  Z9K D   4      16.292  43.913  12.8290  0.00  0.00     0.000 OA
ATOM     72   O  Z9K D   4      18.187  44.810  11.8070  0.00  0.00     0.000 OA
ENDBRANCH 61 68
BRANCH 64 73
ATOM     73   C  Z9K D   4      16.317  37.500  11.9230  0.00  0.00     0.000 C
ATOM     74   O  Z9K D   4      15.939  37.028  10.8110  0.00  0.00     0.000 O
ATOM     75   O  Z9K D   4      16.443  36.689  12.8730  0.00  0.00     0.000 OA
ENDBRANCH 64 73
BRANCH 60 76
ATOM     76  O4  Z9L D   5      14.933  41.436  12.0760  0.00  0.00     0.000 O
BRANCH 76 80
ATOM     77  C1  Z9L D   5      11.075  42.062  11.2420  0.00  0.00     0.000 C
ATOM     78  C2  Z9L D   5      11.202  40.554  11.7740  0.00  0.00     0.000 C
ATOM     79  C3  Z9L D   5      12.702  40.436  12.5460  0.00  0.00     0.000 C
ATOM     80  C4  Z9L D   5      13.663  41.273  11.5000  0.00  0.00     0.000 C
ATOM     81  C5  Z9L D   5      13.441  42.695  10.7740  0.00  0.00     0.000 C
ATOM     82  O5  Z9L D   5      12.067  42.728  10.3600  0.00  0.00     0.000 O
ATOM     83   C  Z9L D   5      10.650  44.313  12.0460  0.00  0.00     0.000 C
ATOM     84   C  Z9L D   5      10.650  44.313  12.0460  0.00  0.00     0.000 C
BRANCH 78 85
ATOM     85   O  Z9L D   5      10.191  40.338  12.7060  0.00  0.00     0.000 O
ATOM     86   O  Z9L D   5       8.679  39.173  12.4480  0.00  0.00     0.000 OA
ATOM     87   S  Z9L D   5       9.783  39.302  11.5470  0.00  0.00     0.000 S
ATOM     88   O  Z9L D   5      10.479  38.041  11.6230  0.00  0.00     0.000 OA
ATOM     89   O  Z9L D   5       9.235  39.863  10.3600  0.00  0.00     0.000 OA
ENDBRANCH 78 85
BRANCH 79 90
ATOM     90   O  Z9L D   5      13.216  39.145  12.4620  0.00  0.00     0.000 O
ATOM     91   S  Z9L D   5      13.180  39.315  14.0450  0.00  0.00     0.000 S
ATOM     92   O  Z9L D   5      11.974  39.651  14.7560  0.00  0.00     0.000 OA
ATOM     93   O  Z9L D   5      14.465  39.778  14.5050  0.00  0.00     0.000 O
ATOM     94   O  Z9L D   5      13.246  37.892  13.9720  0.00  0.00     0.000 OA
ENDBRANCH 79 90
BRANCH 81 95
ATOM     95   C  Z9L D   5      14.616  43.193   9.6850  0.00  0.00     0.000 C
ATOM     96   S  Z9L D   5      15.136  43.241   7.7630  0.00  0.00     0.000 S
ATOM     97   O  Z9L D   5      14.399  42.215   8.7030  0.00  0.00     0.000 O
ATOM     98   O  Z9L D   5      16.528  43.216   8.1310  0.00  0.00     0.000 OA
ATOM     99   O  Z9L D   5      14.453  44.469   7.5310  0.00  0.00     0.000 OA
ATOM    100   O  Z9L D   5      14.900  42.193   6.8000  0.00  0.00     0.000 O
ENDBRANCH 81 95
ENDBRANCH 76 80
ENDBRANCH 60 76
ENDBRANCH 59 63
ENDBRANCH 37 59
ENDBRANCH 36 40
ENDBRANCH 23 36
ENDBRANCH 22 26
ENDBRANCH 1 22
TORSDOF 19
ENDMDL
MODEL 2
REMARK VINA RESULT:      -6.0      3.145      4.625
ROOT
ATOM      1  C1  Z9H D   1      18.542  28.702   7.4090  0.00  0.00     0.000 C
ATOM      2  C2  Z9H D   1      18.600  27.275   8.0040  0.00  0.00     0.000 C
ATOM      3  C3  Z9H D   1      19.983  26.848   7.4230  0.00  0.00     0.000 C
ATOM      4  C4  Z9H D   1      20.167  27.084   5.8660  0.00  0.00     0.000 C
ATOM      5  C5  Z9H D   1      19.788  28.439   5.1470  0.00  0.00     0.000 C
ATOM      6  O5  Z9H D   1      18.697  28.910   5.9780  0.00  0.00     0.000 O
ATOM      7   O  Z9H D   1      20.302  25.498   7.7620  0.00  0.00     0.000 O
ATOM      8   C  Z9H D   1      21.182  25.337   8.8880  0.00  0.00     0.000 C
ATOM      9   O  Z9H D   1      21.550  26.834   5.5960  0.00  0.00     0.000 O
ATOM     10   C  Z9H D   1      21.852  25.541   5.0640  0.00  0.00     0.000 C
ENDROOT
BRANCH 2 11
ATOM     11   O  Z9H D   1      18.840  27.535   9.3630  0.00  0.00     0.000 O
ATOM     12   O  Z9H D   1      17.597  27.198  10.7410  0.00  0.00     0.000 OA
ATOM     13   S  Z9H D   1      17.386  26.895   9.3660  0.00  0.00     0.000 S
ATOM     14   O  Z9H D   1      17.507  25.499   9.0540  0.00  0.00     0.000 OA
ATOM     15   O  Z9H D   1      16.406  27.792   8.7970  0.00  0.00     0.000 O
ENDBRANCH 2 11
BRANCH 5 16
ATOM     16   C  Z9H D   1      19.634  28.339   3.4830  0.00  0.00     0.000 C
ATOM     17   S  Z9H D   1      19.426  29.415   1.7980  0.00  0.00     0.000 S
ATOM     18   O  Z9H D   1      20.287  29.542   3.1580  0.00  0.00     0.000 O
ATOM     19   O  Z9H D   1      18.010  29.579   1.9650  0.00  0.00     0.000 O
ATOM     20   O  Z9H D   1      20.002  28.438   0.9420  0.00  0.00     0.000 OA
ATOM     21   O  Z9H D   1      20.084  30.663   1.5430  0.00  0.00     0.000 OA
ENDBRANCH 5 16
BRANCH 1 22
ATOM     22  O4  GU1 D   2      19.562  29.631   7.9270  0.00  0.00     0.000 O
BRANCH 22 26
ATOM     23  C1  GU1 D   2      20.397  33.613   8.5770  0.00  0.00     0.000 C
ATOM     24  C2  GU1 D   2      18.917  33.261   8.5760  0.00  0.00     0.000 C
ATOM     25  C3  GU1 D   2      18.758  31.775   8.7160  0.00  0.00     0.000 C
ATOM     26  C4  GU1 D   2      19.574  31.040   7.6630  0.00  0.00     0.000 C
ATOM     27  C5  GU1 D   2      21.022  31.540   7.6780  0.00  0.00     0.000 C
ATOM     28  O5  GU1 D   2      21.062  32.954   7.5060  0.00  0.00     0.000 O
ATOM     29   O  GU1 D   2      18.221  33.886   9.6490  0.00  0.00     0.000 O
ATOM     30   C  GU1 D   2      17.567  35.093   9.2840  0.00  0.00     0.000 C
ATOM     31   C  GU1 D   2      16.662  31.181   9.7390  0.00  0.00     0.000 C
ATOM     32   O  GU1 D   2      17.377  31.449   8.5350  0.00  0.00     0.000 O
BRANCH 27 33
ATOM     33   C  GU1 D   2      21.827  30.915   6.5630  0.00  0.00     0.000 C
ATOM     34   O  GU1 D   2      21.758  31.407   5.4550  0.00  0.00     0.000 OA
ATOM     35   O  GU1 D   2      22.532  29.941   6.7770  0.00  0.00     0.000 O
ENDBRANCH 27 33
BRANCH 23 36
ATOM     36  O4  GU6 D   3      20.823  34.940   8.2110  0.00  0.00     0.000 O
BRANCH 36 40
ATOM     37  C1  GU6 D   3      22.599  38.441   9.3430  0.00  0.00     0.000 C
ATOM     38  C2  GU6 D   3      23.371  37.671   8.2790  0.00  0.00     0.000 C
ATOM     39  C3  GU6 D   3      22.514  36.556   7.7400  0.00  0.00     0.000 C
ATOM     40  C4  GU6 D   3      21.256  36.266   8.4380  0.00  0.00     0.000 C
ATOM     41  C5  GU6 D   3      21.465  36.426   9.9800  0.00  0.00     0.000 C
ATOM     42  O5  GU6 D   3      22.258  37.546  10.3900  0.00  0.00     0.000 O
BRANCH 38 43
ATOM     43   O  GU6 D   3      23.761  38.533   7.2260  0.00  0.00     0.000 O
ATOM     44   S  GU6 D   3      25.107  39.214   7.4360  0.00  0.00     0.000 S
ATOM     45   O  GU6 D   3      24.908  40.383   8.3100  0.00  0.00     0.000 OA
ATOM     46   O  GU6 D   3      26.020  38.261   8.0930  0.00  0.00     0.000 O
ATOM     47   O  GU6 D   3      25.643  39.606   6.1360  0.00  0.00     0.000 OA
ENDBRANCH 38 43
BRANCH 39 48
ATOM     48   O  GU6 D   3      22.790  35.970   6.4820  0.00  0.00     0.000 O
ATOM     49   S  GU6 D   3      23.929  35.042   6.0620  0.00  0.00     0.000 S
ATOM     50   O  GU6 D   3      23.967  33.861   6.9330  0.00  0.00     0.000 OA
ATOM     51   O  GU6 D   3      23.569  34.675   4.6860  0.00  0.00     0.000 OA
ATOM     52   O  GU6 D   3      25.208  35.780   6.1540  0.00  0.00     0.000 O
ENDBRANCH 39 48
BRANCH 41 53
ATOM     53   C  GU6 D   3      20.936  35.572  11.1010  0.00  0.00     0.000 C
ATOM     54   O  GU6 D   3      20.023  36.498  11.6300  0.00  0.00     0.000 O
ATOM     55   S  GU6 D   3      19.248  36.179  12.9160  0.00  0.00     0.000 S
ATOM     56   O  GU6 D   3      20.244  36.113  14.0100  0.00  0.00     0.000 O
ATOM     57   O  GU6 D   3      18.280  37.258  13.1590  0.00  0.00     0.000 OA
ATOM     58   O  GU6 D   3      18.588  34.869  12.7170  0.00  0.00     0.000 OA
ENDBRANCH 41 53
BRANCH 37 59
ATOM     59  O4  Z9K D   4      21.444  39.269   9.0920  0.00  0.00     0.000 O
BRANCH 59 63
ATOM     60  C1  Z9K D   4      20.051  42.944   9.1510  0.00  0.00     0.000 C
ATOM     61  C2  Z9K D   4      20.990  42.958  10.3890  0.00  0.00     0.000 C
ATOM     62  C3  Z9K D   4      21.689  41.536  10.2530  0.00  0.00     0.000 C
ATOM     63  C4  Z9K D   4      20.803  40.273   9.9320  0.00  0.00     0.000 C
ATOM     64  C5  Z9K D   4      19.491  40.542   9.1790  0.00  0.00     0.000 C
ATOM     65  O5  Z9K D   4      19.824  41.689   8.3530  0.00  0.00     0.000 O
ATOM     66   O  Z9K D   4      22.454  41.165  11.4140  0.00  0.00     0.000 O
ATOM     67   C  Z9K D   4      23.782  41.664  11.4240  0.00  0.00     0.000 C
BRANCH 61 68
ATOM     68   O  Z9K D   4      21.986  43.911  10.1370  0.00  0.00     0.000 O
ATOM     69   O  Z9K D   4      21.417  43.802  12.6300  0.00  0.00     0.000 OA
ATOM     70   S  Z9K D   4      21.230  44.547  11.4210  0.00  0.00     0.000 S
ATOM     71   O  Z9K D   4      20.006  45.149  10.9900  0.00  0.00     0.000 OA
ATOM     72   O  Z9K D   4      22.307  45.461  11.2150  0.00  0.00     0.000 OA
ENDBRANCH 61 68
BRANCH 64 73
ATOM     73   C  Z9K D   4      18.978  39.258   8.4930  0.00  0.00     0.000 C
ATOM     74   O  Z9K D   4      18.437  38.330   9.1620  0.00  0.00     0.000 O
ATOM     75   O  Z9K D   4      19.070  39.089   7.2530  0.00  0.00     0.000 OA
ENDBRANCH 64 73
BRANCH 60 76
ATOM     76  O4  Z9L D   5      18.685  43.385   9.0600  0.00  0.00     0.000 O
BRANCH 76 80
ATOM     77  C1  Z9L D   5      16.077  45.379   6.7810  0.00  0.00     0.000 C
ATOM     78  C2  Z9L D   5      15.555  43.865   6.8780  0.00  0.00     0.000 C
ATOM     79  C3  Z9L D   5      16.368  43.154   8.1790  0.00  0.00     0.000 C
ATOM     80  C4  Z9L D   5      17.894  43.732   7.9530  0.00  0.00     0.000 C
ATOM     81  C5  Z9L D   5      18.419  45.221   7.6240  0.00  0.00     0.000 C
ATOM     82  O5  Z9L D   5      17.505  45.768   6.6610  0.00  0.00     0.000 O
ATOM     83   C  Z9L D   5      15.841  47.527   7.8860  0.00  0.00     0.000 C
ATOM     84   C  Z9L D   5      15.841  47.527   7.8860  0.00  0.00     0.000 C
BRANCH 78 85
ATOM     85   O  Z9L D   5      14.191  43.896   7.1540  0.00  0.00     0.000 O
ATOM     86   O  Z9L D   5      12.809  43.257   5.9740  0.00  0.00     0.000 OA
ATOM     87   S  Z9L D   5      14.215  43.114   5.7500  0.00  0.00     0.000 S
ATOM     88   O  Z9L D   5      14.472  41.700   5.8770  0.00  0.00     0.000 OA
ATOM     89   O  Z9L D   5      14.492  43.895   4.5940  0.00  0.00     0.000 OA
ENDBRANCH 78 85
BRANCH 79 90
ATOM     90   O  Z9L D   5      16.532  41.785   7.9870  0.00  0.00     0.000 O
ATOM     91   S  Z9L D   5      15.733  41.767   9.3640  0.00  0.00     0.000 S
ATOM     92   O  Z9L D   5      14.451  42.404   9.5190  0.00  0.00     0.000 OA
ATOM     93   O  Z9L D   5      16.669  41.708  10.4590  0.00  0.00     0.000 O
ATOM     94   O  Z9L D   5      15.490  40.425   8.9450  0.00  0.00     0.000 OA
ENDBRANCH 79 90
BRANCH 81 95
ATOM     95   C  Z9L D   5      20.064  45.417   7.3660  0.00  0.00     0.000 C
ATOM     96   S  Z9L D   5      21.504  46.738   6.9770  0.00  0.00     0.000 S
ATOM     97   O  Z9L D   5      20.000  46.555   6.5480  0.00  0.00     0.000 O
ATOM     98   O  Z9L D   5      22.258  45.723   6.2860  0.00  0.00     0.000 OA
ATOM     99   O  Z9L D   5      21.725  47.016   8.3560  0.00  0.00     0.000 OA
ATOM    100   O  Z9L D   5      21.382  47.884   6.1100  0.00  0.00     0.000 O
ENDBRANCH 81 95
ENDBRANCH 76 80
ENDBRANCH 60 76
ENDBRANCH 59 63
ENDBRANCH 37 59
ENDBRANCH 36 40
ENDBRANCH 23 36
ENDBRANCH 22 26
ENDBRANCH 1 22
TORSDOF 19
ENDMDL
MODEL 3
REMARK VINA RESULT:      -5.7     16.237     26.314
ROOT
ATOM      1  C1  Z9H D   1       4.391  21.316   5.7180  0.00  0.00     0.000 C
ATOM      2  C2  Z9H D   1       3.713  22.365   4.8050  0.00  0.00     0.000 C
ATOM      3  C3  Z9H D   1       4.976  22.818   4.0110  0.00  0.00     0.000 C
ATOM      4  C4  Z9H D   1       6.232  23.207   4.8960  0.00  0.00     0.000 C
ATOM      5  C5  Z9H D   1       6.761  22.312   6.0860  0.00  0.00     0.000 C
ATOM      6  O5  Z9H D   1       5.535  21.683   6.5390  0.00  0.00     0.000 O
ATOM      7   O  Z9H D   1       4.671  23.869   3.0920  0.00  0.00     0.000 O
ATOM      8   C  Z9H D   1       4.462  23.456   1.7310  0.00  0.00     0.000 C
ATOM      9   O  Z9H D   1       7.317  23.373   3.9780  0.00  0.00     0.000 O
ATOM     10   C  Z9H D   1       7.617  24.724   3.6140  0.00  0.00     0.000 C
ENDROOT
BRANCH 2 11
ATOM     11   O  Z9H D   1       2.992  21.554   3.9150  0.00  0.00     0.000 O
ATOM     12   O  Z9H D   1       1.109  21.482   3.8360  0.00  0.00     0.000 OA
ATOM     13   S  Z9H D   1       1.853  22.334   4.7010  0.00  0.00     0.000 S
ATOM     14   O  Z9H D   1       1.875  23.707   4.2830  0.00  0.00     0.000 OA
ATOM     15   O  Z9H D   1       1.743  21.883   6.0690  0.00  0.00     0.000 O
ENDBRANCH 2 11
BRANCH 5 16
ATOM     16   C  Z9H D   1       7.787  23.089   7.1560  0.00  0.00     0.000 C
ATOM     17   S  Z9H D   1       8.645  24.850   7.6020  0.00  0.00     0.000 S
ATOM     18   O  Z9H D   1       7.189  24.362   7.1040  0.00  0.00     0.000 O
ATOM     19   O  Z9H D   1       9.696  24.691   6.6390  0.00  0.00     0.000 O
ATOM     20   O  Z9H D   1       8.808  24.574   8.9860  0.00  0.00     0.000 OA
ATOM     21   O  Z9H D   1       7.998  26.124   7.4830  0.00  0.00     0.000 OA
ENDBRANCH 5 16
BRANCH 1 22
ATOM     22  O4  GU1 D   2       4.933  20.140   5.0140  0.00  0.00     0.000 O
BRANCH 22 26
ATOM     23  C1  GU1 D   2       5.598  16.081   5.2330  0.00  0.00     0.000 C
ATOM     24  C2  GU1 D   2       4.302  16.552   5.8750  0.00  0.00     0.000 C
ATOM     25  C3  GU1 D   2       3.992  17.944   5.4050  0.00  0.00     0.000 C
ATOM     26  C4  GU1 D   2       5.176  18.872   5.6350  0.00  0.00     0.000 C
ATOM     27  C5  GU1 D   2       6.447  18.258   5.0410  0.00  0.00     0.000 C
ATOM     28  O5  GU1 D   2       6.667  16.955   5.5750  0.00  0.00     0.000 O
ATOM     29   O  GU1 D   2       3.204  15.713   5.5370  0.00  0.00     0.000 O
ATOM     30   C  GU1 D   2       2.911  14.727   6.5160  0.00  0.00     0.000 C
ATOM     31   C  GU1 D   2       1.631  18.410   5.4550  0.00  0.00     0.000 C
ATOM     32   O  GU1 D   2       2.874  18.434   6.1520  0.00  0.00     0.000 O
BRANCH 27 33
ATOM     33   C  GU1 D   2       7.660  19.099   5.3590  0.00  0.00     0.000 C
ATOM     34   O  GU1 D   2       8.033  19.164   6.5120  0.00  0.00     0.000 OA
ATOM     35   O  GU1 D   2       8.252  19.695   4.4720  0.00  0.00     0.000 O
ENDBRANCH 27 33
BRANCH 23 36
ATOM     36  O4  GU6 D   3       6.242  14.881   5.7050  0.00  0.00     0.000 O
BRANCH 36 40
ATOM     37  C1  GU6 D   3       8.830  12.036   7.0850  0.00  0.00     0.000 C
ATOM     38  C2  GU6 D   3       8.226  11.715   5.7240  0.00  0.00     0.000 C
ATOM     39  C3  GU6 D   3       7.513  12.929   5.1880  0.00  0.00     0.000 C
ATOM     40  C4  GU6 D   3       7.329  14.066   6.0960  0.00  0.00     0.000 C
ATOM     41  C5  GU6 D   3       7.017  13.541   7.5360  0.00  0.00     0.000 C
ATOM     42  O5  GU6 D   3       7.784  12.411   7.9680  0.00  0.00     0.000 O
BRANCH 38 43
ATOM     43   O  GU6 D   3       9.232  11.305   4.8170  0.00  0.00     0.000 O
ATOM     44   S  GU6 D   3       9.366   9.796   4.6660  0.00  0.00     0.000 S
ATOM     45   O  GU6 D   3      10.176   9.283   5.7840  0.00  0.00     0.000 OA
ATOM     46   O  GU6 D   3       8.021   9.196   4.7200  0.00  0.00     0.000 O
ATOM     47   O  GU6 D   3       9.992   9.506   3.3790  0.00  0.00     0.000 OA
ENDBRANCH 38 43
BRANCH 39 48
ATOM     48   O  GU6 D   3       7.242  13.061   3.8060  0.00  0.00     0.000 O
ATOM     49   S  GU6 D   3       6.066  12.536   2.9830  0.00  0.00     0.000 S
ATOM     50   O  GU6 D   3       4.798  12.998   3.5600  0.00  0.00     0.000 OA
ATOM     51   O  GU6 D   3       6.294  13.130   1.6590  0.00  0.00     0.000 OA
ATOM     52   O  GU6 D   3       6.109  11.057   2.9740  0.00  0.00     0.000 O
ENDBRANCH 39 48
BRANCH 41 53
ATOM     53   C  GU6 D   3       6.031  14.067   8.5440  0.00  0.00     0.000 C
ATOM     54   O  GU6 D   3       6.516  15.383   8.6150  0.00  0.00     0.000 O
ATOM     55   S  GU6 D   3       5.921  16.378   9.6210  0.00  0.00     0.000 S
ATOM     56   O  GU6 D   3       6.268  15.878  10.9720  0.00  0.00     0.000 O
ATOM     57   O  GU6 D   3       6.522  17.699   9.3850  0.00  0.00     0.000 OA
ATOM     58   O  GU6 D   3       4.455  16.385   9.4170  0.00  0.00     0.000 OA
ENDBRANCH 41 53
BRANCH 37 59
ATOM     59  O4  Z9K D   4       9.928  12.946   7.3100  0.00  0.00     0.000 O
BRANCH 59 63
ATOM     60  C1  Z9K D   4      13.203  10.901   6.5770  0.00  0.00     0.000 C
ATOM     61  C2  Z9K D   4      12.959  10.553   8.0710  0.00  0.00     0.000 C
ATOM     62  C3  Z9K D   4      11.540  11.230   8.3110  0.00  0.00     0.000 C
ATOM     63  C4  Z9K D   4      11.285  12.690   7.7740  0.00  0.00     0.000 C
ATOM     64  C5  Z9K D   4      12.132  13.122   6.5670  0.00  0.00     0.000 C
ATOM     65  O5  Z9K D   4      12.323  11.877   5.8450  0.00  0.00     0.000 O
ATOM     66   O  Z9K D   4      11.158  11.275   9.6970  0.00  0.00     0.000 O
ATOM     67   C  Z9K D   4      10.522  10.097  10.1680  0.00  0.00     0.000 C
BRANCH 61 68
ATOM     68   O  Z9K D   4      12.752   9.169   8.1430  0.00  0.00     0.000 O
ATOM     69   O  Z9K D   4      13.883  10.047  10.2640  0.00  0.00     0.000 OA
ATOM     70   S  Z9K D   4      14.095   9.353   9.0300  0.00  0.00     0.000 S
ATOM     71   O  Z9K D   4      15.212   9.529   8.1530  0.00  0.00     0.000 OA
ATOM     72   O  Z9K D   4      13.820   7.960   9.1750  0.00  0.00     0.000 OA
ENDBRANCH 61 68
BRANCH 64 73
ATOM     73   C  Z9K D   4      11.476  14.312   5.8340  0.00  0.00     0.000 C
ATOM     74   O  Z9K D   4      11.567  15.490   6.2850  0.00  0.00     0.000 O
ATOM     75   O  Z9K D   4      10.837  14.158   4.7640  0.00  0.00     0.000 OA
ENDBRANCH 64 73
BRANCH 60 76
ATOM     76  O4  Z9L D   5      14.416  11.349   5.9490  0.00  0.00     0.000 O
BRANCH 76 80
ATOM     77  C1  Z9L D   5      16.851  10.855   2.8190  0.00  0.00     0.000 C
ATOM     78  C2  Z9L D   5      16.199  12.314   2.6810  0.00  0.00     0.000 C
ATOM     79  C3  Z9L D   5      15.553  12.702   4.1950  0.00  0.00     0.000 C
ATOM     80  C4  Z9L D   5      14.857  11.269   4.6180  0.00  0.00     0.000 C
ATOM     81  C5  Z9L D   5      15.422   9.761   4.5450  0.00  0.00     0.000 C
ATOM     82  O5  Z9L D   5      16.123   9.652   3.2970  0.00  0.00     0.000 O
ATOM     83   C  Z9L D   5      18.797   9.741   3.7480  0.00  0.00     0.000 C
ATOM     84   C  Z9L D   5      18.797   9.741   3.7480  0.00  0.00     0.000 C
BRANCH 78 85
ATOM     85   O  Z9L D   5      17.216  13.214   2.3750  0.00  0.00     0.000 O
ATOM     86   O  Z9L D   5      17.414  14.129   0.6910  0.00  0.00     0.000 OA
ATOM     87   S  Z9L D   5      16.304  13.301   1.0550  0.00  0.00     0.000 S
ATOM     88   O  Z9L D   5      15.187  14.206   1.1780  0.00  0.00     0.000 OA
ATOM     89   O  Z9L D   5      16.361  12.189   0.1700  0.00  0.00     0.000 OA
ENDBRANCH 78 85
BRANCH 79 90
ATOM     90   O  Z9L D   5      14.454  13.548   4.0760  0.00  0.00     0.000 O
ATOM     91   S  Z9L D   5      15.401  14.464   4.9710  0.00  0.00     0.000 S
ATOM     92   O  Z9L D   5      16.734  14.823   4.5630  0.00  0.00     0.000 OA
ATOM     93   O  Z9L D   5      15.079  14.269   6.3620  0.00  0.00     0.000 O
ATOM     94   O  Z9L D   5      14.521  15.470   4.4710  0.00  0.00     0.000 OA
ENDBRANCH 79 90
BRANCH 81 95
ATOM     95   C  Z9L D   5      14.375   8.526   4.9840  0.00  0.00     0.000 C
ATOM     96   S  Z9L D   5      13.154   7.109   4.3010  0.00  0.00     0.000 S
ATOM     97   O  Z9L D   5      13.537   8.571   3.8610  0.00  0.00     0.000 O
ATOM     98   O  Z9L D   5      12.339   7.230   5.4820  0.00  0.00     0.000 OA
ATOM     99   O  Z9L D   5      14.198   6.144   4.2170  0.00  0.00     0.000 OA
ATOM    100   O  Z9L D   5      12.299   7.220   3.1440  0.00  0.00     0.000 O
ENDBRANCH 81 95
ENDBRANCH 76 80
ENDBRANCH 60 76
ENDBRANCH 59 63
ENDBRANCH 37 59
ENDBRANCH 36 40
ENDBRANCH 23 36
ENDBRANCH 22 26
ENDBRANCH 1 22
TORSDOF 19
ENDMDL
MODEL 4
REMARK VINA RESULT:      -5.7      8.033     13.677
ROOT
ATOM      1  C1  Z9H D   1       6.900  20.859   6.9050  0.00  0.00     0.000 C
ATOM      2  C2  Z9H D   1       5.886  20.221   5.9260  0.00  0.00     0.000 C
ATOM      3  C3  Z9H D   1       5.722  21.432   4.9570  0.00  0.00     0.000 C
ATOM      4  C4  Z9H D   1       5.410  22.821   5.6520  0.00  0.00     0.000 C
ATOM      5  C5  Z9H D   1       6.217  23.364   6.8980  0.00  0.00     0.000 C
ATOM      6  O5  Z9H D   1       6.602  22.128   7.5510  0.00  0.00     0.000 O
ATOM      7   O  Z9H D   1       4.761  21.161   3.9350  0.00  0.00     0.000 O
ATOM      8   C  Z9H D   1       5.305  20.744   2.6710  0.00  0.00     0.000 C
ATOM      9   O  Z9H D   1       5.517  23.806   4.6180  0.00  0.00     0.000 O
ATOM     10   C  Z9H D   1       4.279  24.234   4.0430  0.00  0.00     0.000 C
ENDROOT
BRANCH 2 11
ATOM     11   O  Z9H D   1       6.689  19.303   5.2320  0.00  0.00     0.000 O
ATOM     12   O  Z9H D   1       6.541  17.430   5.3950  0.00  0.00     0.000 OA
ATOM     13   S  Z9H D   1       5.702  18.371   6.0570  0.00  0.00     0.000 S
ATOM     14   O  Z9H D   1       4.391  18.484   5.4840  0.00  0.00     0.000 OA
ATOM     15   O  Z9H D   1       5.996  18.402   7.4710  0.00  0.00     0.000 O
ENDBRANCH 2 11
BRANCH 5 16
ATOM     16   C  Z9H D   1       5.468  24.599   7.7440  0.00  0.00     0.000 C
ATOM     17   S  Z9H D   1       5.761  26.381   8.6260  0.00  0.00     0.000 S
ATOM     18   O  Z9H D   1       6.256  25.663   7.2670  0.00  0.00     0.000 O
ATOM     19   O  Z9H D   1       6.278  25.805   9.8340  0.00  0.00     0.000 O
ATOM     20   O  Z9H D   1       4.418  26.824   8.4850  0.00  0.00     0.000 OA
ATOM     21   O  Z9H D   1       6.617  27.412   8.1140  0.00  0.00     0.000 OA
ENDBRANCH 5 16
BRANCH 1 22
ATOM     22  O4  GU1 D   2       8.220  21.159   6.3220  0.00  0.00     0.000 O
BRANCH 22 26
ATOM     23  C1  GU1 D   2      12.258  21.488   7.0670  0.00  0.00     0.000 C
ATOM     24  C2  GU1 D   2      11.564  20.346   7.7930  0.00  0.00     0.000 C
ATOM     25  C3  GU1 D   2      10.226  20.095   7.1620  0.00  0.00     0.000 C
ATOM     26  C4  GU1 D   2       9.408  21.376   7.0910  0.00  0.00     0.000 C
ATOM     27  C5  GU1 D   2      10.233  22.489   6.4380  0.00  0.00     0.000 C
ATOM     28  O5  GU1 D   2      11.465  22.669   7.1310  0.00  0.00     0.000 O
ATOM     29   O  GU1 D   2      12.318  19.141   7.7320  0.00  0.00     0.000 O
ATOM     30   C  GU1 D   2      13.122  18.907   8.8800  0.00  0.00     0.000 C
ATOM     31   C  GU1 D   2       9.504  17.816   7.4470  0.00  0.00     0.000 C
ATOM     32   O  GU1 D   2       9.519  19.144   7.9640  0.00  0.00     0.000 O
BRANCH 27 33
ATOM     33   C  GU1 D   2       9.492  23.805   6.4630  0.00  0.00     0.000 C
ATOM     34   O  GU1 D   2       9.423  24.409   7.5140  0.00  0.00     0.000 OA
ATOM     35   O  GU1 D   2       8.980  24.249   5.4470  0.00  0.00     0.000 O
ENDBRANCH 27 33
BRANCH 23 36
ATOM     36  O4  GU6 D   3      13.443  22.086   7.6290  0.00  0.00     0.000 O
BRANCH 36 40
ATOM     37  C1  GU6 D   3      16.070  24.494   9.6270  0.00  0.00     0.000 C
ATOM     38  C2  GU6 D   3      16.668  23.805   8.4070  0.00  0.00     0.000 C
ATOM     39  C3  GU6 D   3      15.569  23.170   7.5960  0.00  0.00     0.000 C
ATOM     40  C4  GU6 D   3      14.228  23.119   8.1890  0.00  0.00     0.000 C
ATOM     41  C5  GU6 D   3      14.344  22.832   9.7220  0.00  0.00     0.000 C
ATOM     42  O5  GU6 D   3      15.393  23.522  10.4090  0.00  0.00     0.000 O
BRANCH 38 43
ATOM     43   O  GU6 D   3      17.381  24.732   7.6110  0.00  0.00     0.000 O
ATOM     44   S  GU6 D   3      18.885  24.740   7.8510  0.00  0.00     0.000 S
ATOM     45   O  GU6 D   3      19.165  25.559   9.0430  0.00  0.00     0.000 OA
ATOM     46   O  GU6 D   3      19.332  23.356   8.0910  0.00  0.00     0.000 O
ATOM     47   O  GU6 D   3      19.547  25.281   6.6670  0.00  0.00     0.000 OA
ENDBRANCH 38 43
BRANCH 39 48
ATOM     48   O  GU6 D   3      15.765  22.848   6.2330  0.00  0.00     0.000 O
ATOM     49   S  GU6 D   3      16.386  21.603   5.5990  0.00  0.00     0.000 S
ATOM     50   O  GU6 D   3      15.697  20.397   6.0720  0.00  0.00     0.000 OA
ATOM     51   O  GU6 D   3      16.160  21.814   4.1620  0.00  0.00     0.000 OA
ATOM     52   O  GU6 D   3      17.819  21.544   5.9620  0.00  0.00     0.000 O
ENDBRANCH 39 48
BRANCH 41 53
ATOM     53   C  GU6 D   3      13.494  21.938  10.5850  0.00  0.00     0.000 C
ATOM     54   O  GU6 D   3      12.274  22.612  10.4140  0.00  0.00     0.000 O
ATOM     55   S  GU6 D   3      11.028  22.174  11.1950  0.00  0.00     0.000 S
ATOM     56   O  GU6 D   3      11.301  22.450  12.6250  0.00  0.00     0.000 O
ATOM     57   O  GU6 D   3       9.879  22.963  10.7240  0.00  0.00     0.000 OA
ATOM     58   O  GU6 D   3      10.847  20.725  10.9570  0.00  0.00     0.000 OA
ENDBRANCH 41 53
BRANCH 37 59
ATOM     59  O4  Z9K D   4      15.236  25.671   9.5880  0.00  0.00     0.000 O
BRANCH 59 63
ATOM     60  C1  Z9K D   4      14.730  29.488  10.3760  0.00  0.00     0.000 C
ATOM     61  C2  Z9K D   4      15.724  29.078  11.4970  0.00  0.00     0.000 C
ATOM     62  C3  Z9K D   4      16.068  27.587  11.0650  0.00  0.00     0.000 C
ATOM     63  C4  Z9K D   4      14.896  26.622  10.6390  0.00  0.00     0.000 C
ATOM     64  C5  Z9K D   4      13.637  27.298  10.0760  0.00  0.00     0.000 C
ATOM     65  O5  Z9K D   4      14.171  28.475   9.4150  0.00  0.00     0.000 O
ATOM     66   O  Z9K D   4      16.800  26.859  12.0680  0.00  0.00     0.000 O
ATOM     67   C  Z9K D   4      18.204  27.049  12.0220  0.00  0.00     0.000 C
BRANCH 61 68
ATOM     68   O  Z9K D   4      16.895  29.824  11.3010  0.00  0.00     0.000 O
ATOM     69   O  Z9K D   4      16.523  29.319  13.7820  0.00  0.00     0.000 OA
ATOM     70   S  Z9K D   4      16.421  30.323  12.7670  0.00  0.00     0.000 S
ATOM     71   O  Z9K D   4      15.344  31.253  12.6170  0.00  0.00     0.000 OA
ATOM     72   O  Z9K D   4      17.663  31.005  12.5970  0.00  0.00     0.000 OA
ENDBRANCH 61 68
BRANCH 64 73
ATOM     73   C  Z9K D   4      12.800  26.298   9.2500  0.00  0.00     0.000 C
ATOM     74   O  Z9K D   4      12.058  25.442   9.8140  0.00  0.00     0.000 O
ATOM     75   O  Z9K D   4      12.816  26.300   7.9950  0.00  0.00     0.000 OA
ENDBRANCH 64 73
BRANCH 60 76
ATOM     76  O4  Z9L D   5      13.499  30.222  10.4960  0.00  0.00     0.000 O
BRANCH 76 80
ATOM     77  C1  Z9L D   5      11.350  33.257   9.0330  0.00  0.00     0.000 C
ATOM     78  C2  Z9L D   5      10.551  31.908   8.6920  0.00  0.00     0.000 C
ATOM     79  C3  Z9L D   5      11.195  30.699   9.6840  0.00  0.00     0.000 C
ATOM     80  C4  Z9L D   5      12.806  31.028   9.5790  0.00  0.00     0.000 C
ATOM     81  C5  Z9L D   5      13.606  32.423   9.6910  0.00  0.00     0.000 C
ATOM     82  O5  Z9L D   5      12.828  33.394   8.9760  0.00  0.00     0.000 O
ATOM     83   C  Z9L D   5      11.504  34.974  10.7410  0.00  0.00     0.000 C
ATOM     84   C  Z9L D   5      11.504  34.974  10.7410  0.00  0.00     0.000 C
BRANCH 78 85
ATOM     85   O  Z9L D   5       9.213  32.104   9.0210  0.00  0.00     0.000 O
ATOM     86   O  Z9L D   5       7.777  32.295   7.7510  0.00  0.00     0.000 OA
ATOM     87   S  Z9L D   5       9.132  31.969   7.4220  0.00  0.00     0.000 S
ATOM     88   O  Z9L D   5       9.085  30.605   6.9550  0.00  0.00     0.000 OA
ATOM     89   O  Z9L D   5       9.610  33.076   6.6680  0.00  0.00     0.000 OA
ENDBRANCH 78 85
BRANCH 79 90
ATOM     90   O  Z9L D   5      11.101  29.447   9.0830  0.00  0.00     0.000 O
ATOM     91   S  Z9L D   5      10.243  29.176  10.3970  0.00  0.00     0.000 S
ATOM     92   O  Z9L D   5       9.103  29.979  10.7510  0.00  0.00     0.000 OA
ATOM     93   O  Z9L D   5      11.093  28.606  11.4130  0.00  0.00     0.000 O
ATOM     94   O  Z9L D   5       9.768  28.098   9.5910  0.00  0.00     0.000 OA
ENDBRANCH 79 90
BRANCH 81 95
ATOM     95   C  Z9L D   5      15.263  32.382   9.4350  0.00  0.00     0.000 C
ATOM     96   S  Z9L D   5      16.799  33.312   8.5740  0.00  0.00     0.000 S
ATOM     97   O  Z9L D   5      15.288  33.062   8.2090  0.00  0.00     0.000 O
ATOM     98   O  Z9L D   5      17.479  32.053   8.4090  0.00  0.00     0.000 OA
ATOM     99   O  Z9L D   5      17.034  34.138   9.7100  0.00  0.00     0.000 OA
ATOM    100   O  Z9L D   5      16.769  33.984   7.2980  0.00  0.00     0.000 O
ENDBRANCH 81 95
ENDBRANCH 76 80
ENDBRANCH 60 76
ENDBRANCH 59 63
ENDBRANCH 37 59
ENDBRANCH 36 40
ENDBRANCH 23 36
ENDBRANCH 22 26
ENDBRANCH 1 22
TORSDOF 19
ENDMDL
MODEL 5
REMARK VINA RESULT:      -5.4      2.841     13.821
ROOT
ATOM      1  C1  Z9H D   1      14.301  41.905   8.7460  0.00  0.00     0.000 C
ATOM      2  C2  Z9H D   1      13.687  43.284   8.4040  0.00  0.00     0.000 C
ATOM      3  C3  Z9H D   1      13.744  43.913   9.8300  0.00  0.00     0.000 C
ATOM      4  C4  Z9H D   1      13.136  43.021  10.9900  0.00  0.00     0.000 C
ATOM      5  C5  Z9H D   1      13.478  41.489  11.1730  0.00  0.00     0.000 C
ATOM      6  O5  Z9H D   1      13.729  41.086   9.8030  0.00  0.00     0.000 O
ATOM      7   O  Z9H D   1      13.167  45.219   9.8520  0.00  0.00     0.000 O
ATOM      8   C  Z9H D   1      14.103  46.308   9.7770  0.00  0.00     0.000 C
ATOM      9   O  Z9H D   1      13.486  43.681  12.2120  0.00  0.00     0.000 O
ATOM     10   C  Z9H D   1      12.458  44.489  12.7930  0.00  0.00     0.000 C
ENDROOT
BRANCH 2 11
ATOM     11   O  Z9H D   1      14.728  43.899   7.6910  0.00  0.00     0.000 O
ATOM     12   O  Z9H D   1      14.652  44.314   5.8530  0.00  0.00     0.000 OA
ATOM     13   S  Z9H D   1      13.587  43.734   6.5990  0.00  0.00     0.000 S
ATOM     14   O  Z9H D   1      12.529  44.653   6.9100  0.00  0.00     0.000 OA
ATOM     15   O  Z9H D   1      13.402  42.352   6.2230  0.00  0.00     0.000 O
ENDBRANCH 2 11
BRANCH 5 16
ATOM     16   C  Z9H D   1      12.419  40.638  12.1510  0.00  0.00     0.000 C
ATOM     17   S  Z9H D   1      11.384  38.924  12.3280  0.00  0.00     0.000 S
ATOM     18   O  Z9H D   1      12.862  39.341  11.8300  0.00  0.00     0.000 O
ATOM     19   O  Z9H D   1      10.315  39.371  11.4810  0.00  0.00     0.000 O
ATOM     20   O  Z9H D   1      11.318  38.952  13.7470  0.00  0.00     0.000 OA
ATOM     21   O  Z9H D   1      11.873  37.634  11.9380  0.00  0.00     0.000 OA
ENDBRANCH 5 16
BRANCH 1 22
ATOM     22  O4  GU1 D   2      15.712  41.945   9.1720  0.00  0.00     0.000 O
BRANCH 22 26
ATOM     23  C1  GU1 D   2      19.332  39.983   9.0390  0.00  0.00     0.000 C
ATOM     24  C2  GU1 D   2      18.497  39.871   7.7720  0.00  0.00     0.000 C
ATOM     25  C3  GU1 D   2      17.416  40.913   7.7950  0.00  0.00     0.000 C
ATOM     26  C4  GU1 D   2      16.610  40.832   9.0830  0.00  0.00     0.000 C
ATOM     27  C5  GU1 D   2      17.549  40.848  10.2920  0.00  0.00     0.000 C
ATOM     28  O5  GU1 D   2      18.513  39.803  10.1880  0.00  0.00     0.000 O
ATOM     29   O  GU1 D   2      19.279  40.068   6.6000  0.00  0.00     0.000 O
ATOM     30   C  GU1 D   2      19.714  38.861   5.9900  0.00  0.00     0.000 C
ATOM     31   C  GU1 D   2      16.728  41.552   5.5790  0.00  0.00     0.000 C
ATOM     32   O  GU1 D   2      16.538  40.679   6.6900  0.00  0.00     0.000 O
BRANCH 27 33
ATOM     33   C  GU1 D   2      16.786  40.647  11.5800  0.00  0.00     0.000 C
ATOM     34   O  GU1 D   2      16.277  39.564  11.7870  0.00  0.00     0.000 OA
ATOM     35   O  GU1 D   2      16.690  41.554  12.3920  0.00  0.00     0.000 O
ENDBRANCH 27 33
BRANCH 23 36
ATOM     36  O4  GU6 D   3      20.274  38.945   9.3750  0.00  0.00     0.000 O
BRANCH 36 40
ATOM     37  C1  GU6 D   3      22.779  35.717   9.3650  0.00  0.00     0.000 C
ATOM     38  C2  GU6 D   3      21.946  35.850  10.6340  0.00  0.00     0.000 C
ATOM     39  C3  GU6 D   3      20.877  36.892  10.4300  0.00  0.00     0.000 C
ATOM     40  C4  GU6 D   3      20.950  37.715   9.2170  0.00  0.00     0.000 C
ATOM     41  C5  GU6 D   3      22.446  38.047   8.9010  0.00  0.00     0.000 C
ATOM     42  O5  GU6 D   3      23.376  36.973   9.0820  0.00  0.00     0.000 O
BRANCH 38 43
ATOM     43   O  GU6 D   3      21.354  34.611  10.9730  0.00  0.00     0.000 O
ATOM     44   S  GU6 D   3      22.060  33.863  12.0970  0.00  0.00     0.000 S
ATOM     45   O  GU6 D   3      23.216  33.148  11.5290  0.00  0.00     0.000 OA
ATOM     46   O  GU6 D   3      22.532  34.844  13.0910  0.00  0.00     0.000 O
ATOM     47   O  GU6 D   3      21.114  32.940  12.7140  0.00  0.00     0.000 OA
ENDBRANCH 38 43
BRANCH 39 48
ATOM     48   O  GU6 D   3      19.723  36.919  11.2480  0.00  0.00     0.000 O
ATOM     49   S  GU6 D   3      18.357  36.268  11.0400  0.00  0.00     0.000 S
ATOM     50   O  GU6 D   3      18.512  34.824  10.8270  0.00  0.00     0.000 OA
ATOM     51   O  GU6 D   3      17.659  36.547  12.3020  0.00  0.00     0.000 OA
ATOM     52   O  GU6 D   3      17.706  36.886   9.8630  0.00  0.00     0.000 O
ENDBRANCH 39 48
BRANCH 41 53
ATOM     53   C  GU6 D   3      23.047  39.338   8.4150  0.00  0.00     0.000 C
ATOM     54   O  GU6 D   3      23.961  38.790   7.5000  0.00  0.00     0.000 O
ATOM     55   S  GU6 D   3      24.961  39.693   6.7640  0.00  0.00     0.000 S
ATOM     56   O  GU6 D   3      25.882  40.235   7.7900  0.00  0.00     0.000 O
ATOM     57   O  GU6 D   3      25.695  38.878   5.7850  0.00  0.00     0.000 OA
ATOM     58   O  GU6 D   3      24.184  40.776   6.1210  0.00  0.00     0.000 OA
ENDBRANCH 41 53
BRANCH 37 59
ATOM     59  O4  Z9K D   4      22.302  35.177   8.1150  0.00  0.00     0.000 O
BRANCH 59 63
ATOM     60  C1  Z9K D   4      24.120  31.709   7.7670  0.00  0.00     0.000 C
ATOM     61  C2  Z9K D   4      25.146  32.657   7.0880  0.00  0.00     0.000 C
ATOM     62  C3  Z9K D   4      24.496  34.075   7.3930  0.00  0.00     0.000 C
ATOM     63  C4  Z9K D   4      22.949  34.275   7.1700  0.00  0.00     0.000 C
ATOM     64  C5  Z9K D   4      22.083  33.010   7.2780  0.00  0.00     0.000 C
ATOM     65  O5  Z9K D   4      22.794  32.217   8.2640  0.00  0.00     0.000 O
ATOM     66   O  Z9K D   4      25.116  35.153   6.6690  0.00  0.00     0.000 O
ATOM     67   C  Z9K D   4      26.265  35.697   7.2980  0.00  0.00     0.000 C
BRANCH 61 68
ATOM     68   O  Z9K D   4      26.326  32.594   7.8420  0.00  0.00     0.000 O
ATOM     69   O  Z9K D   4      26.833  32.924   5.3550  0.00  0.00     0.000 OA
ATOM     70   S  Z9K D   4      26.801  31.971   6.4240  0.00  0.00     0.000 S
ATOM     71   O  Z9K D   4      26.335  30.622   6.3270  0.00  0.00     0.000 OA
ATOM     72   O  Z9K D   4      28.018  32.001   7.1700  0.00  0.00     0.000 OA
ENDBRANCH 61 68
BRANCH 64 73
ATOM     73   C  Z9K D   4      20.607  33.376   7.5440  0.00  0.00     0.000 C
ATOM     74   O  Z9K D   4      20.006  32.967   8.5790  0.00  0.00     0.000 O
ATOM     75   O  Z9K D   4      19.951  34.096   6.7510  0.00  0.00     0.000 OA
ENDBRANCH 64 73
BRANCH 60 76
ATOM     76  O4  Z9L D   5      23.589  30.466   7.2770  0.00  0.00     0.000 O
BRANCH 76 80
ATOM     77  C1  Z9L D   5      22.605  26.733   8.3100  0.00  0.00     0.000 C
ATOM     78  C2  Z9L D   5      21.251  27.469   7.8650  0.00  0.00     0.000 C
ATOM     79  C3  Z9L D   5      21.711  28.854   7.0090  0.00  0.00     0.000 C
ATOM     80  C4  Z9L D   5      22.955  29.402   7.9400  0.00  0.00     0.000 C
ATOM     81  C5  Z9L D   5      24.208  28.622   8.5910  0.00  0.00     0.000 C
ATOM     82  O5  Z9L D   5      23.695  27.377   9.0860  0.00  0.00     0.000 O
ATOM     83   C  Z9L D   5      24.396  25.371   7.3990  0.00  0.00     0.000 C
ATOM     84   C  Z9L D   5      24.396  25.371   7.3990  0.00  0.00     0.000 C
BRANCH 78 85
ATOM     85   O  Z9L D   5      20.556  26.616   7.0130  0.00  0.00     0.000 O
ATOM     86   O  Z9L D   5      18.897  25.735   7.4410  0.00  0.00     0.000 OA
ATOM     87   S  Z9L D   5      19.550  26.708   8.2630  0.00  0.00     0.000 S
ATOM     88   O  Z9L D   5      18.688  27.864   8.2320  0.00  0.00     0.000 OA
ATOM     89   O  Z9L D   5      19.936  26.007   9.4390  0.00  0.00     0.000 OA
ENDBRANCH 78 85
BRANCH 79 90
ATOM     90   O  Z9L D   5      20.766  29.868   7.1400  0.00  0.00     0.000 O
ATOM     91   S  Z9L D   5      20.819  29.755   5.5520  0.00  0.00     0.000 S
ATOM     92   O  Z9L D   5      20.572  28.518   4.8590  0.00  0.00     0.000 OA
ATOM     93   O  Z9L D   5      21.758  30.720   5.0360  0.00  0.00     0.000 O
ATOM     94   O  Z9L D   5      19.564  30.420   5.6900  0.00  0.00     0.000 OA
ENDBRANCH 79 90
BRANCH 81 95
ATOM     95   C  Z9L D   5      25.240  29.509   9.5720  0.00  0.00     0.000 C
ATOM     96   S  Z9L D   5      25.659  30.017  11.4510  0.00  0.00     0.000 S
ATOM     97   O  Z9L D   5      24.346  29.755  10.6230  0.00  0.00     0.000 O
ATOM     98   O  Z9L D   5      26.189  31.278  10.9990  0.00  0.00     0.000 OA
ATOM     99   O  Z9L D   5      26.503  28.887  11.6490  0.00  0.00     0.000 OA
ATOM    100   O  Z9L D   5      24.692  30.276  12.4890  0.00  0.00     0.000 O
ENDBRANCH 81 95
ENDBRANCH 76 80
ENDBRANCH 60 76
ENDBRANCH 59 63
ENDBRANCH 37 59
ENDBRANCH 36 40
ENDBRANCH 23 36
ENDBRANCH 22 26
ENDBRANCH 1 22
TORSDOF 19
ENDMDL
MODEL 6
REMARK VINA RESULT:      -5.3      9.992     18.269
ROOT
ATOM      1  C1  Z9H D   1      13.282  31.789   8.8830  0.00  0.00     0.000 C
ATOM      2  C2  Z9H D   1      13.830  32.960   9.7330  0.00  0.00     0.000 C
ATOM      3  C3  Z9H D   1      12.585  33.170  10.6500  0.00  0.00     0.000 C
ATOM      4  C4  Z9H D   1      11.199  33.299   9.8930  0.00  0.00     0.000 C
ATOM      5  C5  Z9H D   1      10.741  32.304   8.7530  0.00  0.00     0.000 C
ATOM      6  O5  Z9H D   1      12.015  31.919   8.1800  0.00  0.00     0.000 O
ATOM      7   O  Z9H D   1      12.769  34.271  11.5420  0.00  0.00     0.000 O
ATOM      8   C  Z9H D   1      13.184  33.922  12.8730  0.00  0.00     0.000 C
ATOM      9   O  Z9H D   1      10.195  33.263  10.9130  0.00  0.00     0.000 O
ATOM     10   C  Z9H D   1       9.676  34.535  11.3130  0.00  0.00     0.000 C
ENDROOT
BRANCH 2 11
ATOM     11   O  Z9H D   1      14.776  32.315  10.5440  0.00  0.00     0.000 O
ATOM     12   O  Z9H D   1      16.632  32.647  10.4770  0.00  0.00     0.000 OA
ATOM     13   S  Z9H D   1      15.656  33.328   9.6940  0.00  0.00     0.000 S
ATOM     14   O  Z9H D   1      15.375  34.660  10.1480  0.00  0.00     0.000 OA
ATOM     15   O  Z9H D   1      15.748  32.924   8.3100  0.00  0.00     0.000 O
ENDBRANCH 2 11
BRANCH 5 16
ATOM     16   C  Z9H D   1       9.486  32.856   7.7930  0.00  0.00     0.000 C
ATOM     17   S  Z9H D   1       7.794  32.315   6.8530  0.00  0.00     0.000 S
ATOM     18   O  Z9H D   1       8.482  31.998   8.2780  0.00  0.00     0.000 O
ATOM     19   O  Z9H D   1       8.486  31.775   5.7170  0.00  0.00     0.000 O
ATOM     20   O  Z9H D   1       7.211  33.611   6.8670  0.00  0.00     0.000 OA
ATOM     21   O  Z9H D   1       6.829  31.395   7.3790  0.00  0.00     0.000 OA
ENDBRANCH 5 16
BRANCH 1 22
ATOM     22  O4  GU1 D   2      13.048  30.540   9.6280  0.00  0.00     0.000 O
BRANCH 22 26
ATOM     23  C1  GU1 D   2      13.249  26.426   9.5610  0.00  0.00     0.000 C
ATOM     24  C2  GU1 D   2      14.498  27.135   9.0610  0.00  0.00     0.000 C
ATOM     25  C3  GU1 D   2      14.456  28.575   9.4860  0.00  0.00     0.000 C
ATOM     26  C4  GU1 D   2      13.152  29.231   9.0560  0.00  0.00     0.000 C
ATOM     27  C5  GU1 D   2      11.962  28.385   9.5180  0.00  0.00     0.000 C
ATOM     28  O5  GU1 D   2      12.083  27.049   9.0360  0.00  0.00     0.000 O
ATOM     29   O  GU1 D   2      15.686  26.552   9.5840  0.00  0.00     0.000 O
ATOM     30   C  GU1 D   2      16.302  25.619   8.7080  0.00  0.00     0.000 C
ATOM     31   C  GU1 D   2      16.659  29.518   9.7090  0.00  0.00     0.000 C
ATOM     32   O  GU1 D   2      15.543  29.263   8.8600  0.00  0.00     0.000 O
BRANCH 27 33
ATOM     33   C  GU1 D   2      10.659  28.947   9.0020  0.00  0.00     0.000 C
ATOM     34   O  GU1 D   2       9.810  29.271   9.8070  0.00  0.00     0.000 OA
ATOM     35   O  GU1 D   2      10.469  29.074   7.8020  0.00  0.00     0.000 O
ENDBRANCH 27 33
BRANCH 23 36
ATOM     36  O4  GU6 D   3      12.930  25.105   9.0810  0.00  0.00     0.000 O
BRANCH 36 40
ATOM     37  C1  GU6 D   3      10.973  21.526   8.8330  0.00  0.00     0.000 C
ATOM     38  C2  GU6 D   3      10.579  22.365  10.0430  0.00  0.00     0.000 C
ATOM     39  C3  GU6 D   3      11.140  23.755   9.8980  0.00  0.00     0.000 C
ATOM     40  C4  GU6 D   3      12.098  23.994   8.8130  0.00  0.00     0.000 C
ATOM     41  C5  GU6 D   3      13.030  22.747   8.6560  0.00  0.00     0.000 C
ATOM     42  O5  GU6 D   3      12.390  21.471   8.7630  0.00  0.00     0.000 O
BRANCH 38 43
ATOM     43   O  GU6 D   3       9.171  22.422  10.1700  0.00  0.00     0.000 O
ATOM     44   S  GU6 D   3       8.577  21.353  11.0780  0.00  0.00     0.000 S
ATOM     45   O  GU6 D   3       8.449  20.104  10.3080  0.00  0.00     0.000 OA
ATOM     46   O  GU6 D   3       9.493  21.137  12.2130  0.00  0.00     0.000 O
ATOM     47   O  GU6 D   3       7.280  21.815  11.5630  0.00  0.00     0.000 OA
ENDBRANCH 38 43
BRANCH 39 48
ATOM     48   O  GU6 D   3      10.592  24.838  10.6250  0.00  0.00     0.000 O
ATOM     49   S  GU6 D   3      10.722  25.191  12.1060  0.00  0.00     0.000 S
ATOM     50   O  GU6 D   3      12.137  25.294  12.4790  0.00  0.00     0.000 OA
ATOM     51   O  GU6 D   3      10.053  26.496  12.1970  0.00  0.00     0.000 OA
ATOM     52   O  GU6 D   3      10.061  24.139  12.9090  0.00  0.00     0.000 O
ENDBRANCH 39 48
BRANCH 41 53
ATOM     53   C  GU6 D   3      14.511  22.699   8.3900  0.00  0.00     0.000 C
ATOM     54   O  GU6 D   3      14.481  21.813   7.3020  0.00  0.00     0.000 O
ATOM     55   S  GU6 D   3      15.786  21.304   6.6760  0.00  0.00     0.000 S
ATOM     56   O  GU6 D   3      16.453  20.466   7.7000  0.00  0.00     0.000 O
ATOM     57   O  GU6 D   3      15.456  20.506   5.4860  0.00  0.00     0.000 OA
ATOM     58   O  GU6 D   3      16.605  22.491   6.3440  0.00  0.00     0.000 OA
ENDBRANCH 41 53
BRANCH 37 59
ATOM     59  O4  Z9K D   4      10.485  21.729   7.4900  0.00  0.00     0.000 O
BRANCH 59 63
ATOM     60  C1  Z9K D   4       7.029  19.970   6.8480  0.00  0.00     0.000 C
ATOM     61  C2  Z9K D   4       7.998  18.756   6.8010  0.00  0.00     0.000 C
ATOM     62  C3  Z9K D   4       9.363  19.443   7.2420  0.00  0.00     0.000 C
ATOM     63  C4  Z9K D   4       9.772  20.823   6.5990  0.00  0.00     0.000 C
ATOM     64  C5  Z9K D   4       8.616  21.700   6.0940  0.00  0.00     0.000 C
ATOM     65  O5  Z9K D   4       7.540  21.375   7.0120  0.00  0.00     0.000 O
ATOM     66   O  Z9K D   4      10.512  18.595   7.0590  0.00  0.00     0.000 O
ATOM     67   C  Z9K D   4      10.766  17.712   8.1390  0.00  0.00     0.000 C
BRANCH 61 68
ATOM     68   O  Z9K D   4       7.634  17.897   7.8460  0.00  0.00     0.000 O
ATOM     69   O  Z9K D   4       8.578  16.589   5.8600  0.00  0.00     0.000 OA
ATOM     70   S  Z9K D   4       7.378  16.968   6.5450  0.00  0.00     0.000 S
ATOM     71   O  Z9K D   4       6.150  17.361   5.9250  0.00  0.00     0.000 OA
ATOM     72   O  Z9K D   4       7.102  16.072   7.6220  0.00  0.00     0.000 OA
ENDBRANCH 61 68
BRANCH 64 73
ATOM     73   C  Z9K D   4       9.061  23.172   5.9630  0.00  0.00     0.000 C
ATOM     74   O  Z9K D   4       8.589  24.069   6.7200  0.00  0.00     0.000 O
ATOM     75   O  Z9K D   4       9.908  23.533   5.1100  0.00  0.00     0.000 OA
ENDBRANCH 64 73
BRANCH 60 76
ATOM     76  O4  Z9L D   5       6.002  20.331   5.9090  0.00  0.00     0.000 O
BRANCH 76 80
ATOM     77  C1  Z9L D   5       2.245  21.638   5.5210  0.00  0.00     0.000 C
ATOM     78  C2  Z9L D   5       3.205  22.798   4.9690  0.00  0.00     0.000 C
ATOM     79  C3  Z9L D   5       4.718  22.090   4.7030  0.00  0.00     0.000 C
ATOM     80  C4  Z9L D   5       4.866  21.145   6.0450  0.00  0.00     0.000 C
ATOM     81  C5  Z9L D   5       3.818  20.141   6.7470  0.00  0.00     0.000 C
ATOM     82  O5  Z9L D   5       2.542  20.796   6.7090  0.00  0.00     0.000 O
ATOM     83   C  Z9L D   5       1.013  19.690   4.7590  0.00  0.00     0.000 C
ATOM     84   C  Z9L D   5       1.013  19.690   4.7590  0.00  0.00     0.000 C
BRANCH 78 85
ATOM     85   O  Z9L D   5       2.690  23.244   3.7560  0.00  0.00     0.000 O
ATOM     86   O  Z9L D   5       1.877  24.965   3.4640  0.00  0.00     0.000 OA
ATOM     87   S  Z9L D   5       2.519  24.551   4.6740  0.00  0.00     0.000 S
ATOM     88   O  Z9L D   5       3.710  25.360   4.7610  0.00  0.00     0.000 OA
ATOM     89   O  Z9L D   5       1.486  24.508   5.6510  0.00  0.00     0.000 OA
ENDBRANCH 78 85
BRANCH 79 90
ATOM     90   O  Z9L D   5       5.747  23.014   4.8680  0.00  0.00     0.000 O
ATOM     91   S  Z9L D   5       6.010  22.589   3.3560  0.00  0.00     0.000 S
ATOM     92   O  Z9L D   5       4.998  22.695   2.3390  0.00  0.00     0.000 OA
ATOM     93   O  Z9L D   5       6.989  21.531   3.3210  0.00  0.00     0.000 O
ATOM     94   O  Z9L D   5       6.725  23.824   3.3720  0.00  0.00     0.000 OA
ENDBRANCH 79 90
BRANCH 81 95
ATOM     95   C  Z9L D   5       4.297  19.408   8.1780  0.00  0.00     0.000 C
ATOM     96   S  Z9L D   5       4.196  19.499  10.1650  0.00  0.00     0.000 S
ATOM     97   O  Z9L D   5       4.288  20.548   8.9940  0.00  0.00     0.000 O
ATOM     98   O  Z9L D   5       5.492  18.877  10.2660  0.00  0.00     0.000 OA
ATOM     99   O  Z9L D   5       2.999  18.729  10.2150  0.00  0.00     0.000 OA
ATOM    100   O  Z9L D   5       4.207  20.706  10.9540  0.00  0.00     0.000 O
ENDBRANCH 81 95
ENDBRANCH 76 80
ENDBRANCH 60 76
ENDBRANCH 59 63
ENDBRANCH 37 59
ENDBRANCH 36 40
ENDBRANCH 23 36
ENDBRANCH 22 26
ENDBRANCH 1 22
TORSDOF 19
ENDMDL
MODEL 7
REMARK VINA RESULT:      -5.3      3.992      5.901
ROOT
ATOM      1  C1  Z9H D   1      22.783  27.857   5.7680  0.00  0.00     0.000 C
ATOM      2  C2  Z9H D   1      22.177  26.450   5.9800  0.00  0.00     0.000 C
ATOM      3  C3  Z9H D   1      23.348  25.825   6.7990  0.00  0.00     0.000 C
ATOM      4  C4  Z9H D   1      24.789  25.998   6.1630  0.00  0.00     0.000 C
ATOM      5  C5  Z9H D   1      25.329  27.376   5.6080  0.00  0.00     0.000 C
ATOM      6  O5  Z9H D   1      24.101  28.010   5.1710  0.00  0.00     0.000 O
ATOM      7   O  Z9H D   1      23.102  24.451   7.1050  0.00  0.00     0.000 O
ATOM      8   C  Z9H D   1      22.584  24.197   8.4220  0.00  0.00     0.000 C
ATOM      9   O  Z9H D   1      25.711  25.556   7.1650  0.00  0.00     0.000 O
ATOM     10   C  Z9H D   1      26.204  24.222   7.0060  0.00  0.00     0.000 C
ENDROOT
BRANCH 2 11
ATOM     11   O  Z9H D   1      21.168  26.705   6.9210  0.00  0.00     0.000 O
ATOM     12   O  Z9H D   1      19.323  26.527   6.5710  0.00  0.00     0.000 OA
ATOM     13   S  Z9H D   1      20.358  26.226   5.6410  0.00  0.00     0.000 S
ATOM     14   O  Z9H D   1      20.587  24.821   5.4620  0.00  0.00     0.000 OA
ATOM     15   O  Z9H D   1      20.392  27.214   4.5880  0.00  0.00     0.000 O
ENDBRANCH 2 11
BRANCH 5 16
ATOM     16   C  Z9H D   1      26.657  27.261   4.5960  0.00  0.00     0.000 C
ATOM     17   S  Z9H D   1      27.554  28.065   2.9870  0.00  0.00     0.000 S
ATOM     18   O  Z9H D   1      26.783  28.628   4.2880  0.00  0.00     0.000 O
ATOM     19   O  Z9H D   1      26.724  27.359   2.0530  0.00  0.00     0.000 O
ATOM     20   O  Z9H D   1      28.865  27.642   3.3390  0.00  0.00     0.000 OA
ATOM     21   O  Z9H D   1      27.609  29.468   2.7020  0.00  0.00     0.000 OA
ENDBRANCH 5 16
BRANCH 1 22
ATOM     22  O4  GU1 D   2      22.953  28.650   6.9990  0.00  0.00     0.000 O
BRANCH 22 26
ATOM     23  C1  GU1 D   2      22.635  32.402   8.6690  0.00  0.00     0.000 C
ATOM     24  C2  GU1 D   2      21.566  32.068   7.6390  0.00  0.00     0.000 C
ATOM     25  C3  GU1 D   2      21.554  30.586   7.3980  0.00  0.00     0.000 C
ATOM     26  C4  GU1 D   2      22.945  30.082   7.0400  0.00  0.00     0.000 C
ATOM     27  C5  GU1 D   2      23.960  30.559   8.0830  0.00  0.00     0.000 C
ATOM     28  O5  GU1 D   2      23.913  31.978   8.2110  0.00  0.00     0.000 O
ATOM     29   O  GU1 D   2      20.269  32.458   8.0720  0.00  0.00     0.000 O
ATOM     30   C  GU1 D   2      19.850  33.719   7.5690  0.00  0.00     0.000 C
ATOM     31   C  GU1 D   2      19.395  29.804   6.6770  0.00  0.00     0.000 C
ATOM     32   O  GU1 D   2      20.673  30.313   6.3040  0.00  0.00     0.000 O
BRANCH 27 33
ATOM     33   C  GU1 D   2      25.367  30.176   7.6910  0.00  0.00     0.000 C
ATOM     34   O  GU1 D   2      25.825  30.632   6.6630  0.00  0.00     0.000 OA
ATOM     35   O  GU1 D   2      26.027  29.429   8.3960  0.00  0.00     0.000 O
ENDBRANCH 27 33
BRANCH 23 36
ATOM     36  O4  GU6 D   3      23.015  33.774   8.8940  0.00  0.00     0.000 O
BRANCH 36 40
ATOM     37  C1  GU6 D   3      23.237  37.840   9.2300  0.00  0.00     0.000 C
ATOM     38  C2  GU6 D   3      23.837  37.292   7.9410  0.00  0.00     0.000 C
ATOM     39  C3  GU6 D   3      23.466  35.840   7.7890  0.00  0.00     0.000 C
ATOM     40  C4  GU6 D   3      22.833  35.175   8.9330  0.00  0.00     0.000 C
ATOM     41  C5  GU6 D   3      23.481  35.688  10.2610  0.00  0.00     0.000 C
ATOM     42  O5  GU6 D   3      23.751  37.093  10.3210  0.00  0.00     0.000 O
BRANCH 38 43
ATOM     43   O  GU6 D   3      23.376  38.028   6.8250  0.00  0.00     0.000 O
ATOM     44   S  GU6 D   3      24.230  39.239   6.4730  0.00  0.00     0.000 S
ATOM     45   O  GU6 D   3      23.848  40.354   7.3560  0.00  0.00     0.000 OA
ATOM     46   O  GU6 D   3      25.646  38.898   6.6980  0.00  0.00     0.000 O
ATOM     47   O  GU6 D   3      24.013  39.575   5.0690  0.00  0.00     0.000 OA
ENDBRANCH 38 43
BRANCH 39 48
ATOM     48   O  GU6 D   3      23.511  35.208   6.5240  0.00  0.00     0.000 O
ATOM     49   S  GU6 D   3      24.713  34.776   5.6850  0.00  0.00     0.000 S
ATOM     50   O  GU6 D   3      25.585  33.893   6.4680  0.00  0.00     0.000 OA
ATOM     51   O  GU6 D   3      24.095  34.055   4.5640  0.00  0.00     0.000 OA
ATOM     52   O  GU6 D   3      25.461  35.981   5.2630  0.00  0.00     0.000 O
ENDBRANCH 39 48
BRANCH 41 53
ATOM     53   C  GU6 D   3      23.851  34.912  11.4960  0.00  0.00     0.000 C
ATOM     54   O  GU6 D   3      25.224  34.778  11.2340  0.00  0.00     0.000 O
ATOM     55   S  GU6 D   3      26.114  33.937  12.1580  0.00  0.00     0.000 S
ATOM     56   O  GU6 D   3      25.665  32.532  12.0220  0.00  0.00     0.000 O
ATOM     57   O  GU6 D   3      27.510  34.081  11.7220  0.00  0.00     0.000 OA
ATOM     58   O  GU6 D   3      25.905  34.431  13.5380  0.00  0.00     0.000 OA
ENDBRANCH 41 53
BRANCH 37 59
ATOM     59  O4  Z9K D   4      21.827  38.036   9.4690  0.00  0.00     0.000 O
BRANCH 59 63
ATOM     60  C1  Z9K D   4      21.111  41.876   9.9040  0.00  0.00     0.000 C
ATOM     61  C2  Z9K D   4      21.623  41.502  11.3230  0.00  0.00     0.000 C
ATOM     62  C3  Z9K D   4      22.083  39.998  11.0910  0.00  0.00     0.000 C
ATOM     63  C4  Z9K D   4      21.138  39.020  10.2940  0.00  0.00     0.000 C
ATOM     64  C5  Z9K D   4      20.179  39.677   9.2910  0.00  0.00     0.000 C
ATOM     65  O5  Z9K D   4      20.930  40.833   8.8360  0.00  0.00     0.000 O
ATOM     66   O  Z9K D   4      22.390  39.302  12.3120  0.00  0.00     0.000 O
ATOM     67   C  Z9K D   4      23.717  39.492  12.7770  0.00  0.00     0.000 C
BRANCH 61 68
ATOM     68   O  Z9K D   4      22.792  42.242  11.5460  0.00  0.00     0.000 O
ATOM     69   O  Z9K D   4      21.484  41.899  13.7190  0.00  0.00     0.000 OA
ATOM     70   S  Z9K D   4      21.799  42.834  12.6810  0.00  0.00     0.000 S
ATOM     71   O  Z9K D   4      20.881  43.744  12.0680  0.00  0.00     0.000 OA
ATOM     72   O  Z9K D   4      23.024  43.511  12.9600  0.00  0.00     0.000 OA
ENDBRANCH 61 68
BRANCH 64 73
ATOM     73   C  Z9K D   4      19.690  38.651   8.2460  0.00  0.00     0.000 C
ATOM     74   O  Z9K D   4      20.042  38.732   7.0340  0.00  0.00     0.000 O
ATOM     75   O  Z9K D   4      18.933  37.699   8.5580  0.00  0.00     0.000 OA
ENDBRANCH 64 73
BRANCH 60 76
ATOM     76  O4  Z9L D   5      19.929  42.612   9.5450  0.00  0.00     0.000 O
BRANCH 76 80
ATOM     77  C1  Z9L D   5      18.540  45.463   7.1130  0.00  0.00     0.000 C
ATOM     78  C2  Z9L D   5      17.727  44.122   6.7770  0.00  0.00     0.000 C
ATOM     79  C3  Z9L D   5      17.971  43.068   8.0770  0.00  0.00     0.000 C
ATOM     80  C4  Z9L D   5      19.579  43.285   8.3630  0.00  0.00     0.000 C
ATOM     81  C5  Z9L D   5      20.457  44.633   8.4750  0.00  0.00     0.000 C
ATOM     82  O5  Z9L D   5      19.989  45.508   7.4380  0.00  0.00     0.000 O
ATOM     83   C  Z9L D   5      18.417  47.438   8.5200  0.00  0.00     0.000 C
ATOM     84   C  Z9L D   5      18.417  47.438   8.5200  0.00  0.00     0.000 C
BRANCH 78 85
ATOM     85   O  Z9L D   5      16.376  44.444   6.6980  0.00  0.00     0.000 O
ATOM     86   O  Z9L D   5      15.352  44.529   5.0690  0.00  0.00     0.000 OA
ATOM     87   S  Z9L D   5      16.706  44.077   5.1690  0.00  0.00     0.000 S
ATOM     88   O  Z9L D   5      16.651  42.664   4.8850  0.00  0.00     0.000 OA
ATOM     89   O  Z9L D   5      17.473  45.028   4.4400  0.00  0.00     0.000 OA
ENDBRANCH 78 85
BRANCH 79 90
ATOM     90   O  Z9L D   5      17.913  41.738   7.6700  0.00  0.00     0.000 O
ATOM     91   S  Z9L D   5      16.767  41.728   8.7750  0.00  0.00     0.000 S
ATOM     92   O  Z9L D   5      15.644  42.627   8.7280  0.00  0.00     0.000 OA
ATOM     93   O  Z9L D   5      17.322  41.300  10.0350  0.00  0.00     0.000 O
ATOM     94   O  Z9L D   5      16.397  40.552   8.0560  0.00  0.00     0.000 OA
ENDBRANCH 79 90
BRANCH 81 95
ATOM     95   C  Z9L D   5      22.111  44.458   8.6870  0.00  0.00     0.000 C
ATOM     96   S  Z9L D   5      23.867  44.339   7.7530  0.00  0.00     0.000 S
ATOM     97   O  Z9L D   5      22.401  43.844   7.4600  0.00  0.00     0.000 O
ATOM     98   O  Z9L D   5      24.382  43.508   8.8100  0.00  0.00     0.000 OA
ATOM     99   O  Z9L D   5      24.053  45.751   7.7620  0.00  0.00     0.000 OA
ATOM    100   O  Z9L D   5      24.107  43.677   6.4940  0.00  0.00     0.000 O
ENDBRANCH 81 95
ENDBRANCH 76 80
ENDBRANCH 60 76
ENDBRANCH 59 63
ENDBRANCH 37 59
ENDBRANCH 36 40
ENDBRANCH 23 36
ENDBRANCH 22 26
ENDBRANCH 1 22
TORSDOF 19
ENDMDL
MODEL 8
REMARK VINA RESULT:      -5.2      3.348     13.064
ROOT
ATOM      1  C1  Z9H D   1      18.957  38.303   9.9080  0.00  0.00     0.000 C
ATOM      2  C2  Z9H D   1      18.838  39.687   9.2260  0.00  0.00     0.000 C
ATOM      3  C3  Z9H D   1      18.987  39.218   7.7460  0.00  0.00     0.000 C
ATOM      4  C4  Z9H D   1      20.227  38.276   7.4530  0.00  0.00     0.000 C
ATOM      5  C5  Z9H D   1      20.592  37.025   8.3480  0.00  0.00     0.000 C
ATOM      6  O5  Z9H D   1      20.105  37.449   9.6460  0.00  0.00     0.000 O
ATOM      7   O  Z9H D   1      18.978  40.323   6.8400  0.00  0.00     0.000 O
ATOM      8   C  Z9H D   1      17.717  40.588   6.2040  0.00  0.00     0.000 C
ATOM      9   O  Z9H D   1      20.047  37.800   6.1150  0.00  0.00     0.000 O
ATOM     10   C  Z9H D   1      20.798  38.485   5.1090  0.00  0.00     0.000 C
ENDROOT
BRANCH 2 11
ATOM     11   O  Z9H D   1      17.473  39.973   9.3830  0.00  0.00     0.000 O
ATOM     12   O  Z9H D   1      16.798  41.341  10.4930  0.00  0.00     0.000 OA
ATOM     13   S  Z9H D   1      18.181  41.070  10.2880  0.00  0.00     0.000 S
ATOM     14   O  Z9H D   1      18.835  42.013   9.4250  0.00  0.00     0.000 OA
ATOM     15   O  Z9H D   1      18.763  40.488  11.4750  0.00  0.00     0.000 O
ENDBRANCH 2 11
BRANCH 5 16
ATOM     16   C  Z9H D   1      22.148  36.442   8.1500  0.00  0.00     0.000 C
ATOM     17   S  Z9H D   1      23.231  34.842   7.5940  0.00  0.00     0.000 S
ATOM     18   O  Z9H D   1      21.893  35.578   7.0690  0.00  0.00     0.000 O
ATOM     19   O  Z9H D   1      23.100  34.192   8.8670  0.00  0.00     0.000 O
ATOM     20   O  Z9H D   1      24.381  35.584   7.2120  0.00  0.00     0.000 OA
ATOM     21   O  Z9H D   1      22.893  33.968   6.5090  0.00  0.00     0.000 OA
ENDBRANCH 5 16
BRANCH 1 22
ATOM     22  O4  GU1 D   2      17.856  37.370   9.6120  0.00  0.00     0.000 O
BRANCH 22 26
ATOM     23  C1  GU1 D   2      15.638  34.213  11.0560  0.00  0.00     0.000 C
ATOM     24  C2  GU1 D   2      16.082  35.217  12.1080  0.00  0.00     0.000 C
ATOM     25  C3  GU1 D   2      16.530  36.481  11.4330  0.00  0.00     0.000 C
ATOM     26  C4  GU1 D   2      17.579  36.186  10.3700  0.00  0.00     0.000 C
ATOM     27  C5  GU1 D   2      17.075  35.091   9.4250  0.00  0.00     0.000 C
ATOM     28  O5  GU1 D   2      16.707  33.928  10.1620  0.00  0.00     0.000 O
ATOM     29   O  GU1 D   2      15.030  35.544  13.0090  0.00  0.00     0.000 O
ATOM     30   C  GU1 D   2      15.060  34.803  14.2210  0.00  0.00     0.000 C
ATOM     31   C  GU1 D   2      16.266  38.408  12.8500  0.00  0.00     0.000 C
ATOM     32   O  GU1 D   2      17.108  37.341  12.4200  0.00  0.00     0.000 O
BRANCH 27 33
ATOM     33   C  GU1 D   2      18.142  34.693   8.4330  0.00  0.00     0.000 C
ATOM     34   O  GU1 D   2      17.967  34.954   7.2610  0.00  0.00     0.000 OA
ATOM     35   O  GU1 D   2      19.156  34.125   8.8070  0.00  0.00     0.000 O
ENDBRANCH 27 33
BRANCH 23 36
ATOM     36  O4  GU6 D   3      15.395  32.841  11.4250  0.00  0.00     0.000 O
BRANCH 36 40
ATOM     37  C1  GU6 D   3      15.914  28.859  12.1800  0.00  0.00     0.000 C
ATOM     38  C2  GU6 D   3      14.455  29.297  12.1470  0.00  0.00     0.000 C
ATOM     39  C3  GU6 D   3      14.361  30.697  11.5990  0.00  0.00     0.000 C
ATOM     40  C4  GU6 D   3      15.611  31.444  11.4200  0.00  0.00     0.000 C
ATOM     41  C5  GU6 D   3      16.586  31.123  12.6000  0.00  0.00     0.000 C
ATOM     42  O5  GU6 D   3      16.636  29.753  13.0140  0.00  0.00     0.000 O
BRANCH 38 43
ATOM     43   O  GU6 D   3      13.689  28.415  11.3500  0.00  0.00     0.000 O
ATOM     44   S  GU6 D   3      12.595  27.673  12.1070  0.00  0.00     0.000 S
ATOM     45   O  GU6 D   3      13.200  26.518  12.7920  0.00  0.00     0.000 OA
ATOM     46   O  GU6 D   3      12.013  28.586  13.1080  0.00  0.00     0.000 O
ATOM     47   O  GU6 D   3      11.569  27.251  11.1580  0.00  0.00     0.000 OA
ENDBRANCH 38 43
BRANCH 39 48
ATOM     48   O  GU6 D   3      13.148  31.187  11.0610  0.00  0.00     0.000 O
ATOM     49   S  GU6 D   3      12.686  31.281   9.6070  0.00  0.00     0.000 S
ATOM     50   O  GU6 D   3      12.762  29.963   8.9670  0.00  0.00     0.000 OA
ATOM     51   O  GU6 D   3      11.294  31.733   9.7290  0.00  0.00     0.000 OA
ATOM     52   O  GU6 D   3      13.553  32.243   8.8900  0.00  0.00     0.000 O
ENDBRANCH 39 48
BRANCH 41 53
ATOM     53   C  GU6 D   3      17.496  32.053  13.3570  0.00  0.00     0.000 C
ATOM     54   O  GU6 D   3      18.517  32.144  12.3970  0.00  0.00     0.000 O
ATOM     55   S  GU6 D   3      19.808  32.914  12.7050  0.00  0.00     0.000 S
ATOM     56   O  GU6 D   3      20.502  32.171  13.7820  0.00  0.00     0.000 O
ATOM     57   O  GU6 D   3      20.631  32.954  11.4880  0.00  0.00     0.000 OA
ATOM     58   O  GU6 D   3      19.415  34.266  13.1600  0.00  0.00     0.000 OA
ENDBRANCH 41 53
BRANCH 37 59
ATOM     59  O4  Z9K D   4      16.730  28.603  11.0170  0.00  0.00     0.000 O
BRANCH 59 63
ATOM     60  C1  Z9K D   4      19.825  27.158   9.0740  0.00  0.00     0.000 C
ATOM     61  C2  Z9K D   4      20.338  27.105  10.5390  0.00  0.00     0.000 C
ATOM     62  C3  Z9K D   4      19.023  27.514  11.3340  0.00  0.00     0.000 C
ATOM     63  C4  Z9K D   4      18.168  28.737  10.8260  0.00  0.00     0.000 C
ATOM     64  C5  Z9K D   4      18.272  29.056   9.3270  0.00  0.00     0.000 C
ATOM     65  O5  Z9K D   4      18.484  27.749   8.7330  0.00  0.00     0.000 O
ATOM     66   O  Z9K D   4      19.261  27.784  12.7270  0.00  0.00     0.000 O
ATOM     67   C  Z9K D   4      19.240  26.635  13.5580  0.00  0.00     0.000 C
BRANCH 61 68
ATOM     68   O  Z9K D   4      20.578  25.758  10.8430  0.00  0.00     0.000 O
ATOM     69   O  Z9K D   4      22.237  27.289  12.0480  0.00  0.00     0.000 OA
ATOM     70   S  Z9K D   4      22.064  26.394  10.9430  0.00  0.00     0.000 S
ATOM     71   O  Z9K D   4      22.579  26.587   9.6220  0.00  0.00     0.000 OA
ATOM     72   O  Z9K D   4      22.281  25.041  11.3440  0.00  0.00     0.000 OA
ENDBRANCH 61 68
BRANCH 64 73
ATOM     73   C  Z9K D   4      17.065  29.897   8.8590  0.00  0.00     0.000 C
ATOM     74   O  Z9K D   4      17.179  31.135   8.6240  0.00  0.00     0.000 O
ATOM     75   O  Z9K D   4      15.930  29.387   8.6880  0.00  0.00     0.000 OA
ENDBRANCH 64 73
BRANCH 60 76
ATOM     76  O4  Z9L D   5      20.484  27.694   7.9140  0.00  0.00     0.000 O
BRANCH 76 80
ATOM     77  C1  Z9L D   5      20.971  27.182   3.9800  0.00  0.00     0.000 C
ATOM     78  C2  Z9L D   5      20.314  28.631   4.1880  0.00  0.00     0.000 C
ATOM     79  C3  Z9L D   5      20.531  29.034   5.8160  0.00  0.00     0.000 C
ATOM     80  C4  Z9L D   5      20.179  27.599   6.5460  0.00  0.00     0.000 C
ATOM     81  C5  Z9L D   5      20.654  26.097   6.2030  0.00  0.00     0.000 C
ATOM     82  O5  Z9L D   5      20.616  25.978   4.7730  0.00  0.00     0.000 O
ATOM     83   C  Z9L D   5      23.140  26.109   3.7840  0.00  0.00     0.000 C
ATOM     84   C  Z9L D   5      23.140  26.109   3.7840  0.00  0.00     0.000 C
BRANCH 78 85
ATOM     85   O  Z9L D   5      21.011  29.539   3.3960  0.00  0.00     0.000 O
ATOM     86   O  Z9L D   5      20.331  30.357   1.7900  0.00  0.00     0.000 OA
ATOM     87   S  Z9L D   5      19.575  29.522   2.6730  0.00  0.00     0.000 S
ATOM     88   O  Z9L D   5      18.608  30.400   3.2820  0.00  0.00     0.000 OA
ATOM     89   O  Z9L D   5      19.262  28.360   1.9140  0.00  0.00     0.000 OA
ENDBRANCH 78 85
BRANCH 79 90
ATOM     90   O  Z9L D   5      19.511  29.864   6.2730  0.00  0.00     0.000 O
ATOM     91   S  Z9L D   5      20.768  30.796   6.5700  0.00  0.00     0.000 S
ATOM     92   O  Z9L D   5      21.706  31.173   5.5460  0.00  0.00     0.000 OA
ATOM     93   O  Z9L D   5      21.196  30.601   7.9330  0.00  0.00     0.000 O
ATOM     94   O  Z9L D   5      19.741  31.788   6.5890  0.00  0.00     0.000 OA
ENDBRANCH 79 90
BRANCH 81 95
ATOM     95   C  Z9L D   5      20.007  24.856   7.1260  0.00  0.00     0.000 C
ATOM     96   S  Z9L D   5      18.602  23.445   7.1990  0.00  0.00     0.000 S
ATOM     97   O  Z9L D   5      18.694  24.914   6.6380  0.00  0.00     0.000 O
ATOM     98   O  Z9L D   5      18.559  23.552   8.6350  0.00  0.00     0.000 OA
ATOM     99   O  Z9L D   5      19.428  22.483   6.5520  0.00  0.00     0.000 OA
ATOM    100   O  Z9L D   5      17.258  23.570   6.6920  0.00  0.00     0.000 O
ENDBRANCH 81 95
ENDBRANCH 76 80
ENDBRANCH 60 76
ENDBRANCH 59 63
ENDBRANCH 37 59
ENDBRANCH 36 40
ENDBRANCH 23 36
ENDBRANCH 22 26
ENDBRANCH 1 22
TORSDOF 19
ENDMDL
MODEL 9
REMARK VINA RESULT:      -5.1      4.737      8.759
ROOT
ATOM      1  C1  Z9H D   1      27.716  36.515   7.4240  0.00  0.00     0.000 C
ATOM      2  C2  Z9H D   1      29.004  36.667   6.5790  0.00  0.00     0.000 C
ATOM      3  C3  Z9H D   1      28.534  35.883   5.3150  0.00  0.00     0.000 C
ATOM      4  C4  Z9H D   1      27.915  34.452   5.5950  0.00  0.00     0.000 C
ATOM      5  C5  Z9H D   1      26.824  34.185   6.7080  0.00  0.00     0.000 C
ATOM      6  O5  Z9H D   1      27.161  35.197   7.6890  0.00  0.00     0.000 O
ATOM      7   O  Z9H D   1      29.571  35.793   4.3360  0.00  0.00     0.000 O
ATOM      8   C  Z9H D   1      29.496  36.754   3.2700  0.00  0.00     0.000 C
ATOM      9   O  Z9H D   1      27.362  34.016   4.3490  0.00  0.00     0.000 O
ATOM     10   C  Z9H D   1      28.176  33.112   3.5950  0.00  0.00     0.000 C
ENDROOT
BRANCH 2 11
ATOM     11   O  Z9H D   1      28.952  38.020   6.2100  0.00  0.00     0.000 O
ATOM     12   O  Z9H D   1      30.177  39.327   6.8010  0.00  0.00     0.000 OA
ATOM     13   S  Z9H D   1      30.245  37.943   7.1290  0.00  0.00     0.000 S
ATOM     14   O  Z9H D   1      31.264  37.227   6.4160  0.00  0.00     0.000 OA
ATOM     15   O  Z9H D   1      29.902  37.737   8.5180  0.00  0.00     0.000 O
ENDBRANCH 2 11
BRANCH 5 16
ATOM     16   C  Z9H D   1      26.633  32.580   7.1430  0.00  0.00     0.000 C
ATOM     17   S  Z9H D   1      25.280  31.158   7.5750  0.00  0.00     0.000 S
ATOM     18   O  Z9H D   1      25.407  32.349   6.4920  0.00  0.00     0.000 O
ATOM     19   O  Z9H D   1      25.116  31.593   8.9320  0.00  0.00     0.000 O
ATOM     20   O  Z9H D   1      26.108  30.065   7.2010  0.00  0.00     0.000 OA
ATOM     21   O  Z9H D   1      24.021  31.002   6.9060  0.00  0.00     0.000 OA
ENDBRANCH 5 16
BRANCH 1 22
ATOM     22  O4  GU1 D   2      26.532  37.199   6.8760  0.00  0.00     0.000 O
BRANCH 22 26
ATOM     23  C1  GU1 D   2      23.106  39.294   7.7970  0.00  0.00     0.000 C
ATOM     24  C2  GU1 D   2      24.302  39.601   8.6860  0.00  0.00     0.000 C
ATOM     25  C3  GU1 D   2      25.552  39.089   8.0310  0.00  0.00     0.000 C
ATOM     26  C4  GU1 D   2      25.411  37.619   7.6630  0.00  0.00     0.000 C
ATOM     27  C5  GU1 D   2      24.124  37.401   6.8600  0.00  0.00     0.000 C
ATOM     28  O5  GU1 D   2      22.997  37.891   7.5810  0.00  0.00     0.000 O
ATOM     29   O  GU1 D   2      24.456  40.998   8.9060  0.00  0.00     0.000 O
ATOM     30   C  GU1 D   2      23.887  41.453  10.1260  0.00  0.00     0.000 C
ATOM     31   C  GU1 D   2      27.500  40.332   8.7050  0.00  0.00     0.000 C
ATOM     32   O  GU1 D   2      26.635  39.227   8.9560  0.00  0.00     0.000 O
BRANCH 27 33
ATOM     33   C  GU1 D   2      23.895  35.935   6.5830  0.00  0.00     0.000 C
ATOM     34   O  GU1 D   2      23.603  35.210   7.5130  0.00  0.00     0.000 OA
ATOM     35   O  GU1 D   2      23.997  35.493   5.4490  0.00  0.00     0.000 O
ENDBRANCH 27 33
BRANCH 23 36
ATOM     36  O4  GU6 D   3      21.768  39.461   8.3060  0.00  0.00     0.000 O
BRANCH 36 40
ATOM     37  C1  GU6 D   3      18.050  40.835   9.2970  0.00  0.00     0.000 C
ATOM     38  C2  GU6 D   3      18.776  40.136  10.4400  0.00  0.00     0.000 C
ATOM     39  C3  GU6 D   3      20.217  39.915  10.0620  0.00  0.00     0.000 C
ATOM     40  C4  GU6 D   3      20.605  40.175   8.6710  0.00  0.00     0.000 C
ATOM     41  C5  GU6 D   3      19.458  39.711   7.7130  0.00  0.00     0.000 C
ATOM     42  O5  GU6 D   3      18.126  40.012   8.1430  0.00  0.00     0.000 O
BRANCH 38 43
ATOM     43   O  GU6 D   3      18.699  40.907  11.6230  0.00  0.00     0.000 O
ATOM     44   S  GU6 D   3      17.558  40.520  12.5540  0.00  0.00     0.000 S
ATOM     45   O  GU6 D   3      16.321  41.156  12.0690  0.00  0.00     0.000 OA
ATOM     46   O  GU6 D   3      17.401  39.055  12.5220  0.00  0.00     0.000 O
ATOM     47   O  GU6 D   3      17.885  40.958  13.9070  0.00  0.00     0.000 OA
ENDBRANCH 38 43
BRANCH 39 48
ATOM     48   O  GU6 D   3      21.202  39.692  11.0530  0.00  0.00     0.000 O
ATOM     49   S  GU6 D   3      21.607  38.399  11.7600  0.00  0.00     0.000 S
ATOM     50   O  GU6 D   3      21.970  37.376  10.7730  0.00  0.00     0.000 OA
ATOM     51   O  GU6 D   3      22.773  38.807  12.5560  0.00  0.00     0.000 OA
ATOM     52   O  GU6 D   3      20.472  37.928  12.5850  0.00  0.00     0.000 O
ENDBRANCH 39 48
BRANCH 41 53
ATOM     53   C  GU6 D   3      19.559  39.003   6.3890  0.00  0.00     0.000 C
ATOM     54   O  GU6 D   3      19.191  37.722   6.8300  0.00  0.00     0.000 O
ATOM     55   S  GU6 D   3      19.233  36.526   5.8690  0.00  0.00     0.000 S
ATOM     56   O  GU6 D   3      20.657  36.305   5.5240  0.00  0.00     0.000 O
ATOM     57   O  GU6 D   3      18.677  35.352   6.5570  0.00  0.00     0.000 OA
ATOM     58   O  GU6 D   3      18.447  36.897   4.6720  0.00  0.00     0.000 OA
ENDBRANCH 41 53
BRANCH 37 59
ATOM     59  O4  Z9K D   4      18.287  42.194   8.8720  0.00  0.00     0.000 O
BRANCH 59 63
ATOM     60  C1  Z9K D   4      14.629  43.628   8.7850  0.00  0.00     0.000 C
ATOM     61  C2  Z9K D   4      14.830  43.225   7.2970  0.00  0.00     0.000 C
ATOM     62  C3  Z9K D   4      16.233  42.480   7.3740  0.00  0.00     0.000 C
ATOM     63  C4  Z9K D   4      17.408  43.137   8.1940  0.00  0.00     0.000 C
ATOM     64  C5  Z9K D   4      16.990  44.076   9.3370  0.00  0.00     0.000 C
ATOM     65  O5  Z9K D   4      15.739  43.495   9.7900  0.00  0.00     0.000 O
ATOM     66   O  Z9K D   4      16.798  42.198   6.0810  0.00  0.00     0.000 O
ATOM     67   C  Z9K D   4      16.344  40.989   5.4940  0.00  0.00     0.000 C
BRANCH 61 68
ATOM     68   O  Z9K D   4      13.877  42.240   7.0050  0.00  0.00     0.000 O
ATOM     69   O  Z9K D   4      14.350  43.706   4.9620  0.00  0.00     0.000 OA
ATOM     70   S  Z9K D   4      13.424  43.446   6.0230  0.00  0.00     0.000 S
ATOM     71   O  Z9K D   4      12.731  44.436   6.7890  0.00  0.00     0.000 OA
ATOM     72   O  Z9K D   4      12.519  42.402   5.6650  0.00  0.00     0.000 OA
ENDBRANCH 61 68
BRANCH 64 73
ATOM     73   C  Z9K D   4      18.139  44.250  10.3520  0.00  0.00     0.000 C
ATOM     74   O  Z9K D   4      19.301  44.581   9.9770  0.00  0.00     0.000 O
ATOM     75   O  Z9K D   4      17.965  44.077  11.5830  0.00  0.00     0.000 OA
ENDBRANCH 64 73
BRANCH 60 76
ATOM     76  O4  Z9L D   5      14.142  44.872   9.3160  0.00  0.00     0.000 O
BRANCH 76 80
ATOM     77  C1  Z9L D   5      12.375  46.521  12.4990  0.00  0.00     0.000 C
ATOM     78  C2  Z9L D   5      13.798  47.240  12.3270  0.00  0.00     0.000 C
ATOM     79  C3  Z9L D   5      14.332  46.891  10.7600  0.00  0.00     0.000 C
ATOM     80  C4  Z9L D   5      13.932  45.297  10.6380  0.00  0.00     0.000 C
ATOM     81  C5  Z9L D   5      12.575  44.518  11.0260  0.00  0.00     0.000 C
ATOM     82  O5  Z9L D   5      12.134  45.072  12.2750  0.00  0.00     0.000 O
ATOM     83   C  Z9L D   5      10.052  46.757  11.8340  0.00  0.00     0.000 C
ATOM     84   C  Z9L D   5      10.052  46.757  11.8340  0.00  0.00     0.000 C
BRANCH 78 85
ATOM     85   O  Z9L D   5      13.605  48.613  12.4470  0.00  0.00     0.000 O
ATOM     86   O  Z9L D   5      14.223  49.692  13.9180  0.00  0.00     0.000 OA
ATOM     87   S  Z9L D   5      14.526  48.307  13.7280  0.00  0.00     0.000 S
ATOM     88   O  Z9L D   5      15.937  48.270  13.4330  0.00  0.00     0.000 OA
ATOM     89   O  Z9L D   5      13.899  47.634  14.8130  0.00  0.00     0.000 OA
ENDBRANCH 78 85
BRANCH 79 90
ATOM     90   O  Z9L D   5      15.722  46.860  10.6940  0.00  0.00     0.000 O
ATOM     91   S  Z9L D   5      15.424  47.934   9.5560  0.00  0.00     0.000 S
ATOM     92   O  Z9L D   5      14.663  49.130   9.8060  0.00  0.00     0.000 OA
ATOM     93   O  Z9L D   5      15.366  47.271   8.2770  0.00  0.00     0.000 O
ATOM     94   O  Z9L D   5      16.795  48.245   9.8080  0.00  0.00     0.000 OA
ENDBRANCH 79 90
BRANCH 81 95
ATOM     95   C  Z9L D   5      12.566  42.851  10.8450  0.00  0.00     0.000 C
ATOM     96   S  Z9L D   5      12.457  41.111  11.8070  0.00  0.00     0.000 S
ATOM     97   O  Z9L D   5      13.108  42.516  12.0940  0.00  0.00     0.000 O
ATOM     98   O  Z9L D   5      13.254  40.486  10.7830  0.00  0.00     0.000 OA
ATOM     99   O  Z9L D   5      11.034  41.086  11.7570  0.00  0.00     0.000 OA
ATOM    100   O  Z9L D   5      13.051  40.819  13.0890  0.00  0.00     0.000 O
ENDBRANCH 81 95
ENDBRANCH 76 80
ENDBRANCH 60 76
ENDBRANCH 59 63
ENDBRANCH 37 59
ENDBRANCH 36 40
ENDBRANCH 23 36
ENDBRANCH 22 26
ENDBRANCH 1 22
TORSDOF 19
ENDMDL
MODEL 10
REMARK VINA RESULT:      -5.1     10.068     17.498
ROOT
ATOM      1  C1  Z9H D   1      19.600  26.102   7.0860  0.00  0.00     0.000 C
ATOM      2  C2  Z9H D   1      21.080  25.717   7.3210  0.00  0.00     0.000 C
ATOM      3  C3  Z9H D   1      21.302  26.493   8.6550  0.00  0.00     0.000 C
ATOM      4  C4  Z9H D   1      20.855  28.013   8.6390  0.00  0.00     0.000 C
ATOM      5  C5  Z9H D   1      19.459  28.498   8.0770  0.00  0.00     0.000 C
ATOM      6  O5  Z9H D   1      19.198  27.500   7.0580  0.00  0.00     0.000 O
ATOM      7   O  Z9H D   1      22.651  26.377   9.1140  0.00  0.00     0.000 O
ATOM      8   C  Z9H D   1      22.873  25.382  10.1280  0.00  0.00     0.000 C
ATOM      9   O  Z9H D   1      20.941  28.459   9.9970  0.00  0.00     0.000 O
ATOM     10   C  Z9H D   1      22.124  29.191  10.3320  0.00  0.00     0.000 C
ENDROOT
BRANCH 2 11
ATOM     11   O  Z9H D   1      20.974  24.368   7.6960  0.00  0.00     0.000 O
ATOM     12   O  Z9H D   1      21.667  22.931   6.6900  0.00  0.00     0.000 OA
ATOM     13   S  Z9H D   1      21.808  24.306   6.3460  0.00  0.00     0.000 S
ATOM     14   O  Z9H D   1      23.118  24.836   6.5990  0.00  0.00     0.000 OA
ATOM     15   O  Z9H D   1      20.990  24.625   5.1980  0.00  0.00     0.000 O
ENDBRANCH 2 11
BRANCH 5 16
ATOM     16   C  Z9H D   1      19.360  30.134   7.7400  0.00  0.00     0.000 C
ATOM     17   S  Z9H D   1      20.417  31.750   7.1820  0.00  0.00     0.000 S
ATOM     18   O  Z9H D   1      20.374  30.191   6.7650  0.00  0.00     0.000 O
ATOM     19   O  Z9H D   1      20.905  32.006   8.5070  0.00  0.00     0.000 O
ATOM     20   O  Z9H D   1      19.315  32.441   6.6100  0.00  0.00     0.000 OA
ATOM     21   O  Z9H D   1      21.475  31.736   6.2140  0.00  0.00     0.000 OA
ENDBRANCH 5 16
BRANCH 1 22
ATOM     22  O4  GU1 D   2      18.656  25.572   8.0850  0.00  0.00     0.000 O
BRANCH 22 26
ATOM     23  C1  GU1 D   2      14.924  23.931   8.6800  0.00  0.00     0.000 C
ATOM     24  C2  GU1 D   2      15.629  23.474   7.4110  0.00  0.00     0.000 C
ATOM     25  C3  GU1 D   2      17.087  23.823   7.5000  0.00  0.00     0.000 C
ATOM     26  C4  GU1 D   2      17.275  25.298   7.8210  0.00  0.00     0.000 C
ATOM     27  C5  GU1 D   2      16.443  25.678   9.0500  0.00  0.00     0.000 C
ATOM     28  O5  GU1 D   2      15.074  25.335   8.8510  0.00  0.00     0.000 O
ATOM     29   O  GU1 D   2      15.520  22.069   7.2180  0.00  0.00     0.000 O
ATOM     30   C  GU1 D   2      14.468  21.690   6.3410  0.00  0.00     0.000 C
ATOM     31   C  GU1 D   2      18.453  22.343   6.1820  0.00  0.00     0.000 C
ATOM     32   O  GU1 D   2      17.695  23.549   6.2330  0.00  0.00     0.000 O
BRANCH 27 33
ATOM     33   C  GU1 D   2      16.514  27.162   9.3210  0.00  0.00     0.000 C
ATOM     34   O  GU1 D   2      16.024  27.921   8.5110  0.00  0.00     0.000 OA
ATOM     35   O  GU1 D   2      17.050  27.583  10.3340  0.00  0.00     0.000 O
ENDBRANCH 27 33
BRANCH 23 36
ATOM     36  O4  GU6 D   3      13.484  23.935   8.7420  0.00  0.00     0.000 O
BRANCH 36 40
ATOM     37  C1  GU6 D   3       9.516  23.189   8.1160  0.00  0.00     0.000 C
ATOM     38  C2  GU6 D   3       9.807  24.588   8.6450  0.00  0.00     0.000 C
ATOM     39  C3  GU6 D   3      11.288  24.854   8.5820  0.00  0.00     0.000 C
ATOM     40  C4  GU6 D   3      12.170  23.725   8.2660  0.00  0.00     0.000 C
ATOM     41  C5  GU6 D   3      11.630  22.430   8.9580  0.00  0.00     0.000 C
ATOM     42  O5  GU6 D   3      10.210  22.248   8.9200  0.00  0.00     0.000 O
BRANCH 38 43
ATOM     43   O  GU6 D   3       9.109  25.560   7.8900  0.00  0.00     0.000 O
ATOM     44   S  GU6 D   3       7.813  26.042   8.5280  0.00  0.00     0.000 S
ATOM     45   O  GU6 D   3       6.753  25.062   8.2330  0.00  0.00     0.000 OA
ATOM     46   O  GU6 D   3       8.009  26.125   9.9870  0.00  0.00     0.000 O
ATOM     47   O  GU6 D   3       7.485  27.358   7.9920  0.00  0.00     0.000 OA
ENDBRANCH 38 43
BRANCH 39 48
ATOM     48   O  GU6 D   3      11.790  26.177   8.5950  0.00  0.00     0.000 O
ATOM     49   S  GU6 D   3      12.015  27.129   9.7690  0.00  0.00     0.000 S
ATOM     50   O  GU6 D   3      12.876  26.496  10.7750  0.00  0.00     0.000 OA
ATOM     51   O  GU6 D   3      12.686  28.277   9.1420  0.00  0.00     0.000 OA
ATOM     52   O  GU6 D   3      10.706  27.473  10.3660  0.00  0.00     0.000 O
ENDBRANCH 39 48
BRANCH 41 53
ATOM     53   C  GU6 D   3      12.397  21.335   9.6480  0.00  0.00     0.000 C
ATOM     54   O  GU6 D   3      11.412  20.969  10.5790  0.00  0.00     0.000 O
ATOM     55   S  GU6 D   3      11.712  19.922  11.6590  0.00  0.00     0.000 S
ATOM     56   O  GU6 D   3      12.736  20.511  12.5530  0.00  0.00     0.000 O
ATOM     57   O  GU6 D   3      10.473  19.645  12.4000  0.00  0.00     0.000 OA
ATOM     58   O  GU6 D   3      12.234  18.719  10.9720  0.00  0.00     0.000 OA
ENDBRANCH 41 53
BRANCH 37 59
ATOM     59  O4  Z9K D   4       9.669  22.774   6.7420  0.00  0.00     0.000 O
BRANCH 59 63
ATOM     60  C1  Z9K D   4       6.392  20.620   6.4810  0.00  0.00     0.000 C
ATOM     61  C2  Z9K D   4       7.478  19.510   6.5450  0.00  0.00     0.000 C
ATOM     62  C3  Z9K D   4       8.779  20.378   6.8350  0.00  0.00     0.000 C
ATOM     63  C4  Z9K D   4       9.024  21.695   6.0050  0.00  0.00     0.000 C
ATOM     64  C5  Z9K D   4       7.770  22.383   5.4450  0.00  0.00     0.000 C
ATOM     65  O5  Z9K D   4       6.762  22.078   6.4440  0.00  0.00     0.000 O
ATOM     66   O  Z9K D   4      10.001  19.629   6.7090  0.00  0.00     0.000 O
ATOM     67   C  Z9K D   4      10.378  18.922   7.8800  0.00  0.00     0.000 C
BRANCH 61 68
ATOM     68   O  Z9K D   4       7.235  18.764   7.7060  0.00  0.00     0.000 O
ATOM     69   O  Z9K D   4       8.242  17.305   5.8600  0.00  0.00     0.000 OA
ATOM     70   S  Z9K D   4       7.033  17.653   6.5450  0.00  0.00     0.000 S
ATOM     71   O  Z9K D   4       5.752  17.843   5.9360  0.00  0.00     0.000 OA
ATOM     72   O  Z9K D   4       6.883  16.882   7.7370  0.00  0.00     0.000 OA
ENDBRANCH 61 68
BRANCH 64 73
ATOM     73   C  Z9K D   4       8.058  23.862   5.1090  0.00  0.00     0.000 C
ATOM     74   O  Z9K D   4       9.204  24.235   4.7240  0.00  0.00     0.000 O
ATOM     75   O  Z9K D   4       7.171  24.745   5.1990  0.00  0.00     0.000 OA
ENDBRANCH 64 73
BRANCH 60 76
ATOM     76  O4  Z9L D   5       5.304  20.755   5.5510  0.00  0.00     0.000 O
BRANCH 76 80
ATOM     77  C1  Z9L D   5       1.361  21.358   5.3070  0.00  0.00     0.000 C
ATOM     78  C2  Z9L D   5       2.070  22.565   4.5240  0.00  0.00     0.000 C
ATOM     79  C3  Z9L D   5       3.664  22.082   4.2300  0.00  0.00     0.000 C
ATOM     80  C4  Z9L D   5       4.054  21.384   5.6700  0.00  0.00     0.000 C
ATOM     81  C5  Z9L D   5       3.241  20.336   6.5880  0.00  0.00     0.000 C
ATOM     82  O5  Z9L D   5       1.870  20.761   6.5680  0.00  0.00     0.000 O
ATOM     83   C  Z9L D   5       0.443  19.144   4.9210  0.00  0.00     0.000 C
ATOM     84   C  Z9L D   5       0.443  19.144   4.9210  0.00  0.00     0.000 C
BRANCH 78 85
ATOM     85   O  Z9L D   5       1.414  22.736   3.3090  0.00  0.00     0.000 O
ATOM     86   O  Z9L D   5       0.291  24.236   2.8590  0.00  0.00     0.000 OA
ATOM     87   S  Z9L D   5       1.066  24.116   4.0560  0.00  0.00     0.000 S
ATOM     88   O  Z9L D   5       2.097  25.117   3.9360  0.00  0.00     0.000 OA
ATOM     89   O  Z9L D   5       0.116  24.043   5.1120  0.00  0.00     0.000 OA
ENDBRANCH 78 85
BRANCH 79 90
ATOM     90   O  Z9L D   5       4.524  23.176   4.1820  0.00  0.00     0.000 O
ATOM     91   S  Z9L D   5       4.756  22.590   2.7190  0.00  0.00     0.000 S
ATOM     92   O  Z9L D   5       3.675  22.382   1.7920  0.00  0.00     0.000 OA
ATOM     93   O  Z9L D   5       5.900  21.712   2.7330  0.00  0.00     0.000 O
ATOM     94   O  Z9L D   5       5.243  23.915   2.5110  0.00  0.00     0.000 OA
ENDBRANCH 79 90
BRANCH 81 95
ATOM     95   C  Z9L D   5       3.925  19.911   8.0590  0.00  0.00     0.000 C
ATOM     96   S  Z9L D   5       3.889  20.237  10.0240  0.00  0.00     0.000 S
ATOM     97   O  Z9L D   5       3.705  21.120   8.7340  0.00  0.00     0.000 O
ATOM     98   O  Z9L D   5       5.291  19.915  10.1090  0.00  0.00     0.000 OA
ATOM     99   O  Z9L D   5       2.888  19.249  10.2460  0.00  0.00     0.000 OA
ATOM    100   O  Z9L D   5       3.674  21.512  10.6620  0.00  0.00     0.000 O
ENDBRANCH 81 95
ENDBRANCH 76 80
ENDBRANCH 60 76
ENDBRANCH 59 63
ENDBRANCH 37 59
ENDBRANCH 36 40
ENDBRANCH 23 36
ENDBRANCH 22 26
ENDBRANCH 1 22
TORSDOF 19
ENDMDL
MODEL 11
REMARK VINA RESULT:      -5.0      5.468      9.498
ROOT
ATOM      1  C1  Z9H D   1      28.131  36.152   6.3250  0.00  0.00     0.000 C
ATOM      2  C2  Z9H D   1      29.270  36.040   5.2830  0.00  0.00     0.000 C
ATOM      3  C3  Z9H D   1      28.603  34.996   4.3360  0.00  0.00     0.000 C
ATOM      4  C4  Z9H D   1      28.028  33.703   5.0480  0.00  0.00     0.000 C
ATOM      5  C5  Z9H D   1      27.124  33.759   6.3440  0.00  0.00     0.000 C
ATOM      6  O5  Z9H D   1      27.617  34.962   6.9850  0.00  0.00     0.000 O
ATOM      7   O  Z9H D   1      29.472  34.628   3.2630  0.00  0.00     0.000 O
ATOM      8   C  Z9H D   1      29.235  35.306   2.0180  0.00  0.00     0.000 C
ATOM      9   O  Z9H D   1      27.283  33.005   4.0440  0.00  0.00     0.000 O
ATOM     10   C  Z9H D   1      27.963  31.911   3.4210  0.00  0.00     0.000 C
ENDROOT
BRANCH 2 11
ATOM     11   O  Z9H D   1      29.168  37.266   4.6070  0.00  0.00     0.000 O
ATOM     12   O  Z9H D   1      30.495  38.606   4.6380  0.00  0.00     0.000 OA
ATOM     13   S  Z9H D   1      30.605  37.340   5.2800  0.00  0.00     0.000 S
ATOM     14   O  Z9H D   1      31.470  36.418   4.6000  0.00  0.00     0.000 OA
ATOM     15   O  Z9H D   1      30.515  37.493   6.7140  0.00  0.00     0.000 O
ENDBRANCH 2 11
BRANCH 5 16
ATOM     16   C  Z9H D   1      26.996  32.316   7.1820  0.00  0.00     0.000 C
ATOM     17   S  Z9H D   1      27.677  30.428   7.2900  0.00  0.00     0.000 S
ATOM     18   O  Z9H D   1      28.325  31.882   7.0220  0.00  0.00     0.000 O
ATOM     19   O  Z9H D   1      26.810  29.954   6.2500  0.00  0.00     0.000 O
ATOM     20   O  Z9H D   1      27.398  30.263   8.6740  0.00  0.00     0.000 OA
ATOM     21   O  Z9H D   1      29.040  30.041   7.0700  0.00  0.00     0.000 OA
ENDBRANCH 5 16
BRANCH 1 22
ATOM     22  O4  GU1 D   2      26.878  36.735   5.8120  0.00  0.00     0.000 O
BRANCH 22 26
ATOM     23  C1  GU1 D   2      23.717  39.215   6.7220  0.00  0.00     0.000 C
ATOM     24  C2  GU1 D   2      25.035  39.589   7.3840  0.00  0.00     0.000 C
ATOM     25  C3  GU1 D   2      26.159  38.873   6.6930  0.00  0.00     0.000 C
ATOM     26  C4  GU1 D   2      25.895  37.376   6.6330  0.00  0.00     0.000 C
ATOM     27  C5  GU1 D   2      24.504  37.112   6.0490  0.00  0.00     0.000 C
ATOM     28  O5  GU1 D   2      23.509  37.809   6.7940  0.00  0.00     0.000 O
ATOM     29   O  GU1 D   2      25.288  40.987   7.3130  0.00  0.00     0.000 O
ATOM     30   C  GU1 D   2      24.911  41.700   8.4820  0.00  0.00     0.000 C
ATOM     31   C  GU1 D   2      28.240  40.068   6.8760  0.00  0.00     0.000 C
ATOM     32   O  GU1 D   2      27.361  39.096   7.4370  0.00  0.00     0.000 O
BRANCH 27 33
ATOM     33   C  GU1 D   2      24.165  35.641   6.0880  0.00  0.00     0.000 C
ATOM     34   O  GU1 D   2      24.071  35.041   5.0370  0.00  0.00     0.000 OA
ATOM     35   O  GU1 D   2      23.994  35.071   7.1550  0.00  0.00     0.000 O
ENDBRANCH 27 33
BRANCH 23 36
ATOM     36  O4  GU6 D   3      22.469  39.573   7.3480  0.00  0.00     0.000 O
BRANCH 36 40
ATOM     37  C1  GU6 D   3      18.996  41.377   8.5220  0.00  0.00     0.000 C
ATOM     38  C2  GU6 D   3      19.867  40.901   9.6780  0.00  0.00     0.000 C
ATOM     39  C3  GU6 D   3      21.225  40.506   9.1570  0.00  0.00     0.000 C
ATOM     40  C4  GU6 D   3      21.400  40.427   7.7030  0.00  0.00     0.000 C
ATOM     41  C5  GU6 D   3      20.105  39.840   7.0510  0.00  0.00     0.000 C
ATOM     42  O5  GU6 D   3      18.865  40.317   7.5870  0.00  0.00     0.000 O
BRANCH 38 43
ATOM     43   O  GU6 D   3      20.001  41.919  10.6520  0.00  0.00     0.000 O
ATOM     44   S  GU6 D   3      18.975  41.851  11.7760  0.00  0.00     0.000 S
ATOM     45   O  GU6 D   3      17.725  42.474  11.3070  0.00  0.00     0.000 OA
ATOM     46   O  GU6 D   3      18.725  40.435  12.1010  0.00  0.00     0.000 O
ATOM     47   O  GU6 D   3      19.510  42.546  12.9430  0.00  0.00     0.000 OA
ENDBRANCH 38 43
BRANCH 39 48
ATOM     48   O  GU6 D   3      22.343  40.443  10.0210  0.00  0.00     0.000 O
ATOM     49   S  GU6 D   3      22.797  39.325  10.9590  0.00  0.00     0.000 S
ATOM     50   O  GU6 D   3      22.951  38.071  10.2120  0.00  0.00     0.000 OA
ATOM     51   O  GU6 D   3      24.091  39.810  11.4550  0.00  0.00     0.000 OA
ATOM     52   O  GU6 D   3      21.787  39.156  12.0280  0.00  0.00     0.000 O
ENDBRANCH 39 48
BRANCH 41 53
ATOM     53   C  GU6 D   3      19.975  38.852   5.9240  0.00  0.00     0.000 C
ATOM     54   O  GU6 D   3      19.545  37.752   6.6830  0.00  0.00     0.000 O
ATOM     55   S  GU6 D   3      19.357  36.378   6.0260  0.00  0.00     0.000 S
ATOM     56   O  GU6 D   3      20.700  35.918   5.6040  0.00  0.00     0.000 O
ATOM     57   O  GU6 D   3      18.780  35.459   7.0180  0.00  0.00     0.000 OA
ATOM     58   O  GU6 D   3      18.468  36.569   4.8570  0.00  0.00     0.000 OA
ENDBRANCH 41 53
BRANCH 37 59
ATOM     59  O4  Z9K D   4      19.209  42.590   7.7680  0.00  0.00     0.000 O
BRANCH 59 63
ATOM     60  C1  Z9K D   4      16.084  44.895   8.3720  0.00  0.00     0.000 C
ATOM     61  C2  Z9K D   4      15.575  43.996   7.2120  0.00  0.00     0.000 C
ATOM     62  C3  Z9K D   4      16.767  42.949   7.0960  0.00  0.00     0.000 C
ATOM     63  C4  Z9K D   4      18.253  43.474   7.1130  0.00  0.00     0.000 C
ATOM     64  C5  Z9K D   4      18.489  44.808   7.8380  0.00  0.00     0.000 C
ATOM     65  O5  Z9K D   4      17.491  44.783   8.8920  0.00  0.00     0.000 O
ATOM     66   O  Z9K D   4      16.682  42.117   5.9250  0.00  0.00     0.000 O
ATOM     67   C  Z9K D   4      15.869  40.966   6.0820  0.00  0.00     0.000 C
BRANCH 61 68
ATOM     68   O  Z9K D   4      14.471  43.283   7.6980  0.00  0.00     0.000 O
ATOM     69   O  Z9K D   4      14.207  43.811   5.2080  0.00  0.00     0.000 OA
ATOM     70   S  Z9K D   4      13.800  44.182   6.5300  0.00  0.00     0.000 S
ATOM     71   O  Z9K D   4      13.634  45.520   7.0100  0.00  0.00     0.000 OA
ATOM     72   O  Z9K D   4      12.703  43.381   6.9690  0.00  0.00     0.000 OA
ENDBRANCH 61 68
BRANCH 64 73
ATOM     73   C  Z9K D   4      19.975  44.966   8.2260  0.00  0.00     0.000 C
ATOM     74   O  Z9K D   4      20.351  44.868   9.4300  0.00  0.00     0.000 O
ATOM     75   O  Z9K D   4      20.863  45.189   7.3680  0.00  0.00     0.000 OA
ENDBRANCH 64 73
BRANCH 60 76
ATOM     76  O4  Z9L D   5      16.036  46.328   8.4800  0.00  0.00     0.000 O
BRANCH 76 80
ATOM     77  C1  Z9L D   5      15.283  49.363  10.9690  0.00  0.00     0.000 C
ATOM     78  C2  Z9L D   5      16.829  49.465  10.5580  0.00  0.00     0.000 C
ATOM     79  C3  Z9L D   5      17.033  48.497   9.1860  0.00  0.00     0.000 C
ATOM     80  C4  Z9L D   5      16.133  47.179   9.5930  0.00  0.00     0.000 C
ATOM     81  C5  Z9L D   5      14.654  47.066  10.2260  0.00  0.00     0.000 C
ATOM     82  O5  Z9L D   5      14.566  48.088  11.2300  0.00  0.00     0.000 O
ATOM     83   C  Z9L D   5      13.095  50.164  10.2850  0.00  0.00     0.000 C
ATOM     84   C  Z9L D   5      13.095  50.164  10.2850  0.00  0.00     0.000 C
BRANCH 78 85
ATOM     85   O  Z9L D   5      17.102  50.789  10.2270  0.00  0.00     0.000 O
ATOM     86   O  Z9L D   5      18.200  51.985  11.2620  0.00  0.00     0.000 OA
ATOM     87   S  Z9L D   5      18.020  50.591  11.5310  0.00  0.00     0.000 S
ATOM     88   O  Z9L D   5      19.300  49.988  11.2550  0.00  0.00     0.000 OA
ATOM     89   O  Z9L D   5      17.342  50.536  12.7800  0.00  0.00     0.000 OA
ENDBRANCH 78 85
BRANCH 79 90
ATOM     90   O  Z9L D   5      18.321  47.975   9.1200  0.00  0.00     0.000 O
ATOM     91   S  Z9L D   5      18.269  48.735   7.7210  0.00  0.00     0.000 S
ATOM     92   O  Z9L D   5      17.970  50.139   7.6180  0.00  0.00     0.000 OA
ATOM     93   O  Z9L D   5      17.861  47.812   6.6910  0.00  0.00     0.000 O
ATOM     94   O  Z9L D   5      19.685  48.613   7.8600  0.00  0.00     0.000 OA
ENDBRANCH 79 90
BRANCH 81 95
ATOM     95   C  Z9L D   5      14.091  45.531  10.5980  0.00  0.00     0.000 C
ATOM     96   S  Z9L D   5      12.526  44.486  11.2510  0.00  0.00     0.000 S
ATOM     97   O  Z9L D   5      13.147  45.898  11.5680  0.00  0.00     0.000 O
ATOM     98   O  Z9L D   5      13.411  43.506  11.8250  0.00  0.00     0.000 OA
ATOM     99   O  Z9L D   5      11.991  44.325   9.9410  0.00  0.00     0.000 OA
ATOM    100   O  Z9L D   5      11.595  44.911  12.2670  0.00  0.00     0.000 O
ENDBRANCH 81 95
ENDBRANCH 76 80
ENDBRANCH 60 76
ENDBRANCH 59 63
ENDBRANCH 37 59
ENDBRANCH 36 40
ENDBRANCH 23 36
ENDBRANCH 22 26
ENDBRANCH 1 22
TORSDOF 19
ENDMDL
MODEL 12
REMARK VINA RESULT:      -5.0      6.804     17.546
ROOT
ATOM      1  C1  Z9H D   1      22.408  32.847   6.3730  0.00  0.00     0.000 C
ATOM      2  C2  Z9H D   1      21.498  33.954   6.9560  0.00  0.00     0.000 C
ATOM      3  C3  Z9H D   1      20.678  33.070   7.9450  0.00  0.00     0.000 C
ATOM      4  C4  Z9H D   1      20.052  31.755   7.3200  0.00  0.00     0.000 C
ATOM      5  C5  Z9H D   1      20.872  30.753   6.4140  0.00  0.00     0.000 C
ATOM      6  O5  Z9H D   1      21.826  31.648   5.7880  0.00  0.00     0.000 O
ATOM      7   O  Z9H D   1      19.671  33.829   8.6180  0.00  0.00     0.000 O
ATOM      8   C  Z9H D   1      20.016  34.274   9.9400  0.00  0.00     0.000 C
ATOM      9   O  Z9H D   1      19.543  31.004   8.4270  0.00  0.00     0.000 O
ATOM     10   C  Z9H D   1      18.136  31.122   8.6590  0.00  0.00     0.000 C
ENDROOT
BRANCH 2 11
ATOM     11   O  Z9H D   1      22.394  34.672   7.7640  0.00  0.00     0.000 O
ATOM     12   O  Z9H D   1      22.918  36.455   7.4410  0.00  0.00     0.000 OA
ATOM     13   S  Z9H D   1      21.975  35.731   6.6570  0.00  0.00     0.000 S
ATOM     14   O  Z9H D   1      20.611  36.113   6.8920  0.00  0.00     0.000 OA
ATOM     15   O  Z9H D   1      22.536  35.405   5.3670  0.00  0.00     0.000 O
ENDBRANCH 2 11
BRANCH 5 16
ATOM     16   C  Z9H D   1      19.945  29.697   5.5060  0.00  0.00     0.000 C
ATOM     17   S  Z9H D   1      19.700  28.902   3.6760  0.00  0.00     0.000 S
ATOM     18   O  Z9H D   1      20.954  29.262   4.6270  0.00  0.00     0.000 O
ATOM     19   O  Z9H D   1      18.979  30.037   3.1760  0.00  0.00     0.000 O
ATOM     20   O  Z9H D   1      19.067  27.713   4.1290  0.00  0.00     0.000 OA
ATOM     21   O  Z9H D   1      20.773  28.522   2.8040  0.00  0.00     0.000 OA
ENDBRANCH 5 16
BRANCH 1 22
ATOM     22  O4  GU1 D   2      23.347  32.246   7.3360  0.00  0.00     0.000 O
BRANCH 22 26
ATOM     23  C1  GU1 D   2      27.147  30.743   7.8610  0.00  0.00     0.000 C
ATOM     24  C2  GU1 D   2      27.055  31.937   6.9240  0.00  0.00     0.000 C
ATOM     25  C3  GU1 D   2      25.730  32.616   7.1120  0.00  0.00     0.000 C
ATOM     26  C4  GU1 D   2      24.585  31.624   6.9700  0.00  0.00     0.000 C
ATOM     27  C5  GU1 D   2      24.825  30.413   7.8780  0.00  0.00     0.000 C
ATOM     28  O5  GU1 D   2      26.092  29.824   7.5970  0.00  0.00     0.000 O
ATOM     29   O  GU1 D   2      28.082  32.889   7.1730  0.00  0.00     0.000 O
ATOM     30   C  GU1 D   2      29.208  32.758   6.3170  0.00  0.00     0.000 C
ATOM     31   C  GU1 D   2      25.825  34.955   6.5500  0.00  0.00     0.000 C
ATOM     32   O  GU1 D   2      25.591  33.622   6.1030  0.00  0.00     0.000 O
BRANCH 27 33
ATOM     33   C  GU1 D   2      23.767  29.356   7.6700  0.00  0.00     0.000 C
ATOM     34   O  GU1 D   2      23.000  29.120   8.5800  0.00  0.00     0.000 OA
ATOM     35   O  GU1 D   2      23.687  28.758   6.6080  0.00  0.00     0.000 O
ENDBRANCH 27 33
BRANCH 23 36
ATOM     36  O4  GU6 D   3      28.210  29.783   7.7050  0.00  0.00     0.000 O
BRANCH 36 40
ATOM     37  C1  GU6 D   3      30.467  26.451   6.9950  0.00  0.00     0.000 C
ATOM     38  C2  GU6 D   3      30.851  27.199   8.2660  0.00  0.00     0.000 C
ATOM     39  C3  GU6 D   3      29.802  28.234   8.5790  0.00  0.00     0.000 C
ATOM     40  C4  GU6 D   3      28.779  28.497   7.5610  0.00  0.00     0.000 C
ATOM     41  C5  GU6 D   3      29.429  28.437   6.1390  0.00  0.00     0.000 C
ATOM     42  O5  GU6 D   3      30.378  27.385   5.9300  0.00  0.00     0.000 O
BRANCH 38 43
ATOM     43   O  GU6 D   3      30.981  26.301   9.3510  0.00  0.00     0.000 O
ATOM     44   S  GU6 D   3      32.394  25.774   9.5650  0.00  0.00     0.000 S
ATOM     45   O  GU6 D   3      32.626  24.662   8.6270  0.00  0.00     0.000 OA
ATOM     46   O  GU6 D   3      33.350  26.860   9.2830  0.00  0.00     0.000 O
ATOM     47   O  GU6 D   3      32.528  25.337  10.9510  0.00  0.00     0.000 OA
ENDBRANCH 38 43
BRANCH 39 48
ATOM     48   O  GU6 D   3      29.669  28.762   9.8850  0.00  0.00     0.000 O
ATOM     49   S  GU6 D   3      30.447  29.882  10.5740  0.00  0.00     0.000 S
ATOM     50   O  GU6 D   3      30.386  31.109   9.7710  0.00  0.00     0.000 OA
ATOM     51   O  GU6 D   3      29.736  30.045  11.8490  0.00  0.00     0.000 OA
ATOM     52   O  GU6 D   3      31.855  29.455  10.7410  0.00  0.00     0.000 O
ENDBRANCH 39 48
BRANCH 41 53
ATOM     53   C  GU6 D   3      29.184  29.323   4.9470  0.00  0.00     0.000 C
ATOM     54   O  GU6 D   3      28.538  28.377   4.1350  0.00  0.00     0.000 O
ATOM     55   S  GU6 D   3      28.149  28.727   2.6920  0.00  0.00     0.000 S
ATOM     56   O  GU6 D   3      29.412  28.922   1.9440  0.00  0.00     0.000 O
ATOM     57   O  GU6 D   3      27.379  27.607   2.1310  0.00  0.00     0.000 OA
ATOM     58   O  GU6 D   3      27.361  29.978   2.7420  0.00  0.00     0.000 OA
ENDBRANCH 41 53
BRANCH 37 59
ATOM     59  O4  Z9K D   4      29.347  25.550   6.8700  0.00  0.00     0.000 O
BRANCH 59 63
ATOM     60  C1  Z9K D   4      26.539  22.855   7.4210  0.00  0.00     0.000 C
ATOM     61  C2  Z9K D   4      26.602  23.516   8.8260  0.00  0.00     0.000 C
ATOM     62  C3  Z9K D   4      27.602  24.721   8.5480  0.00  0.00     0.000 C
ATOM     63  C4  Z9K D   4      28.920  24.451   7.7270  0.00  0.00     0.000 C
ATOM     64  C5  Z9K D   4      28.875  23.269   6.7470  0.00  0.00     0.000 C
ATOM     65  O5  Z9K D   4      27.487  23.255   6.3230  0.00  0.00     0.000 O
ATOM     66   O  Z9K D   4      28.042  25.383   9.7470  0.00  0.00     0.000 O
ATOM     67   C  Z9K D   4      27.166  26.397  10.2110  0.00  0.00     0.000 C
BRANCH 61 68
ATOM     68   O  Z9K D   4      25.348  24.092   9.0650  0.00  0.00     0.000 O
ATOM     69   O  Z9K D   4      26.399  23.229  11.2330  0.00  0.00     0.000 OA
ATOM     70   S  Z9K D   4      25.422  22.960  10.2210  0.00  0.00     0.000 S
ATOM     71   O  Z9K D   4      25.152  21.681   9.6380  0.00  0.00     0.000 OA
ATOM     72   O  Z9K D   4      24.190  23.618  10.5150  0.00  0.00     0.000 OA
ENDBRANCH 61 68
BRANCH 64 73
ATOM     73   C  Z9K D   4      29.977  23.402   5.6750  0.00  0.00     0.000 C
ATOM     74   O  Z9K D   4      29.713  23.825   4.5120  0.00  0.00     0.000 O
ATOM     75   O  Z9K D   4      31.173  23.103   5.9150  0.00  0.00     0.000 OA
ENDBRANCH 64 73
BRANCH 60 76
ATOM     76  O4  Z9L D   5      26.564  21.456   7.0880  0.00  0.00     0.000 O
BRANCH 76 80
ATOM     77  C1  Z9L D   5      24.376  18.902   4.9300  0.00  0.00     0.000 C
ATOM     78  C2  Z9L D   5      25.916  18.552   4.6520  0.00  0.00     0.000 C
ATOM     79  C3  Z9L D   5      26.812  19.294   5.8800  0.00  0.00     0.000 C
ATOM     80  C4  Z9L D   5      26.062  20.758   5.9780  0.00  0.00     0.000 C
ATOM     81  C5  Z9L D   5      24.495  21.138   6.0270  0.00  0.00     0.000 C
ATOM     82  O5  Z9L D   5      23.842  20.279   5.0810  0.00  0.00     0.000 O
ATOM     83   C  Z9L D   5      22.543  18.296   6.4020  0.00  0.00     0.000 C
ATOM     84   C  Z9L D   5      22.543  18.296   6.4020  0.00  0.00     0.000 C
BRANCH 78 85
ATOM     85   O  Z9L D   5      26.070  17.172   4.7450  0.00  0.00     0.000 O
ATOM     86   O  Z9L D   5      26.399  15.992   3.2580  0.00  0.00     0.000 OA
ATOM     87   S  Z9L D   5      26.366  17.421   3.1850  0.00  0.00     0.000 S
ATOM     88   O  Z9L D   5      27.725  17.813   2.9070  0.00  0.00     0.000 OA
ATOM     89   O  Z9L D   5      25.242  17.728   2.3680  0.00  0.00     0.000 OA
ENDBRANCH 78 85
BRANCH 79 90
ATOM     90   O  Z9L D   5      28.088  19.637   5.4410  0.00  0.00     0.000 O
ATOM     91   S  Z9L D   5      28.471  18.736   6.6970  0.00  0.00     0.000 S
ATOM     92   O  Z9L D   5      28.013  17.379   6.8400  0.00  0.00     0.000 OA
ATOM     93   O  Z9L D   5      28.659  19.580   7.8500  0.00  0.00     0.000 O
ATOM     94   O  Z9L D   5      29.715  18.691   5.9990  0.00  0.00     0.000 OA
ENDBRANCH 79 90
BRANCH 81 95
ATOM     95   C  Z9L D   5      24.100  22.768   6.0330  0.00  0.00     0.000 C
ATOM     96   S  Z9L D   5      23.400  24.276   4.9360  0.00  0.00     0.000 S
ATOM     97   O  Z9L D   5      24.325  23.029   4.6730  0.00  0.00     0.000 O
ATOM     98   O  Z9L D   5      24.174  25.210   5.7130  0.00  0.00     0.000 OA
ATOM     99   O  Z9L D   5      22.045  23.984   5.2620  0.00  0.00     0.000 OA
ATOM    100   O  Z9L D   5      23.681  24.502   3.5390  0.00  0.00     0.000 O
ENDBRANCH 81 95
ENDBRANCH 76 80
ENDBRANCH 60 76
ENDBRANCH 59 63
ENDBRANCH 37 59
ENDBRANCH 36 40
ENDBRANCH 23 36
ENDBRANCH 22 26
ENDBRANCH 1 22
TORSDOF 19
ENDMDL
MODEL 13
REMARK VINA RESULT:      -4.8      3.586     14.009
ROOT
ATOM      1  C1  Z9H D   1      18.720  37.100   9.7830  0.00  0.00     0.000 C
ATOM      2  C2  Z9H D   1      18.877  38.603   9.4510  0.00  0.00     0.000 C
ATOM      3  C3  Z9H D   1      19.015  38.475   7.9020  0.00  0.00     0.000 C
ATOM      4  C4  Z9H D   1      20.085  37.419   7.4010  0.00  0.00     0.000 C
ATOM      5  C5  Z9H D   1      20.183  35.949   7.9730  0.00  0.00     0.000 C
ATOM      6  O5  Z9H D   1      19.713  36.138   9.3320  0.00  0.00     0.000 O
ATOM      7   O  Z9H D   1      19.243  39.745   7.2880  0.00  0.00     0.000 O
ATOM      8   C  Z9H D   1      18.080  40.374   6.7250  0.00  0.00     0.000 C
ATOM      9   O  Z9H D   1      19.891  37.311   5.9870  0.00  0.00     0.000 O
ATOM     10   C  Z9H D   1      20.799  38.065   5.1790  0.00  0.00     0.000 C
ENDROOT
BRANCH 2 11
ATOM     11   O  Z9H D   1      17.577  39.087   9.6630  0.00  0.00     0.000 O
ATOM     12   O  Z9H D   1      17.112  40.322  11.0110  0.00  0.00     0.000 OA
ATOM     13   S  Z9H D   1      18.435  39.860  10.7540  0.00  0.00     0.000 S
ATOM     14   O  Z9H D   1      19.263  40.818  10.0790  0.00  0.00     0.000 OA
ATOM     15   O  Z9H D   1      18.875  38.978  11.8100  0.00  0.00     0.000 O
ENDBRANCH 2 11
BRANCH 5 16
ATOM     16   C  Z9H D   1      21.621  35.157   7.6510  0.00  0.00     0.000 C
ATOM     17   S  Z9H D   1      23.436  35.352   6.8090  0.00  0.00     0.000 S
ATOM     18   O  Z9H D   1      22.475  36.274   7.7210  0.00  0.00     0.000 O
ATOM     19   O  Z9H D   1      22.950  35.106   5.4810  0.00  0.00     0.000 O
ATOM     20   O  Z9H D   1      24.062  34.357   7.6060  0.00  0.00     0.000 OA
ATOM     21   O  Z9H D   1      24.241  36.536   6.8740  0.00  0.00     0.000 OA
ENDBRANCH 5 16
BRANCH 1 22
ATOM     22  O4  GU1 D   2      17.489  36.477   9.2650  0.00  0.00     0.000 O
BRANCH 22 26
ATOM     23  C1  GU1 D   2      14.446  33.797   9.9880  0.00  0.00     0.000 C
ATOM     24  C2  GU1 D   2      14.747  34.747  11.1370  0.00  0.00     0.000 C
ATOM     25  C3  GU1 D   2      15.577  35.891  10.6300  0.00  0.00     0.000 C
ATOM     26  C4  GU1 D   2      16.812  35.386   9.8990  0.00  0.00     0.000 C
ATOM     27  C5  GU1 D   2      16.409  34.359   8.8370  0.00  0.00     0.000 C
ATOM     28  O5  GU1 D   2      15.655  33.302   9.4250  0.00  0.00     0.000 O
ATOM     29   O  GU1 D   2      13.560  35.280  11.7120  0.00  0.00     0.000 O
ATOM     30   C  GU1 D   2      13.123  34.588  12.8730  0.00  0.00     0.000 C
ATOM     31   C  GU1 D   2      15.267  37.884  11.9440  0.00  0.00     0.000 C
ATOM     32   O  GU1 D   2      15.997  36.675  11.7510  0.00  0.00     0.000 O
BRANCH 27 33
ATOM     33   C  GU1 D   2      17.623  33.750   8.1770  0.00  0.00     0.000 C
ATOM     34   O  GU1 D   2      17.802  33.956   6.9940  0.00  0.00     0.000 OA
ATOM     35   O  GU1 D   2      18.406  33.071   8.8230  0.00  0.00     0.000 O
ENDBRANCH 27 33
BRANCH 23 36
ATOM     36  O4  GU6 D   3      13.876  32.500  10.2560  0.00  0.00     0.000 O
BRANCH 36 40
ATOM     37  C1  GU6 D   3      13.292  28.513  10.9310  0.00  0.00     0.000 C
ATOM     38  C2  GU6 D   3      12.128  29.198  10.2260  0.00  0.00     0.000 C
ATOM     39  C3  GU6 D   3      12.546  30.576   9.7840  0.00  0.00     0.000 C
ATOM     40  C4  GU6 D   3      13.831  31.087  10.2730  0.00  0.00     0.000 C
ATOM     41  C5  GU6 D   3      14.044  30.636  11.7550  0.00  0.00     0.000 C
ATOM     42  O5  GU6 D   3      13.658  29.291  12.0600  0.00  0.00     0.000 O
BRANCH 38 43
ATOM     43   O  GU6 D   3      11.707  28.440   9.1080  0.00  0.00     0.000 O
ATOM     44   S  GU6 D   3      10.504  27.543   9.3730  0.00  0.00     0.000 S
ATOM     45   O  GU6 D   3      10.975  26.309  10.0240  0.00  0.00     0.000 OA
ATOM     46   O  GU6 D   3       9.579  28.251  10.2760  0.00  0.00     0.000 O
ATOM     47   O  GU6 D   3       9.843  27.256   8.1040  0.00  0.00     0.000 OA
ENDBRANCH 38 43
BRANCH 39 48
ATOM     48   O  GU6 D   3      11.845  31.254   8.7590  0.00  0.00     0.000 O
ATOM     49   S  GU6 D   3      10.582  32.111   8.8360  0.00  0.00     0.000 S
ATOM     50   O  GU6 D   3      10.764  33.193   9.8110  0.00  0.00     0.000 OA
ATOM     51   O  GU6 D   3      10.456  32.641   7.4710  0.00  0.00     0.000 OA
ATOM     52   O  GU6 D   3       9.444  31.254   9.2370  0.00  0.00     0.000 O
ENDBRANCH 39 48
BRANCH 41 53
ATOM     53   C  GU6 D   3      14.615  31.414  12.9100  0.00  0.00     0.000 C
ATOM     54   O  GU6 D   3      15.896  31.634  12.3770  0.00  0.00     0.000 O
ATOM     55   S  GU6 D   3      16.982  32.317  13.2190  0.00  0.00     0.000 S
ATOM     56   O  GU6 D   3      17.298  31.398  14.3370  0.00  0.00     0.000 O
ATOM     57   O  GU6 D   3      18.164  32.532  12.3720  0.00  0.00     0.000 OA
ATOM     58   O  GU6 D   3      16.414  33.589  13.7190  0.00  0.00     0.000 OA
ENDBRANCH 41 53
BRANCH 37 59
ATOM     59  O4  Z9K D   4      14.512  28.084  10.2910  0.00  0.00     0.000 O
BRANCH 59 63
ATOM     60  C1  Z9K D   4      16.799  25.131   9.0690  0.00  0.00     0.000 C
ATOM     61  C2  Z9K D   4      16.094  24.480  10.2910  0.00  0.00     0.000 C
ATOM     62  C3  Z9K D   4      15.040  25.609  10.6670  0.00  0.00     0.000 C
ATOM     63  C4  Z9K D   4      15.511  27.113  10.7180  0.00  0.00     0.000 C
ATOM     64  C5  Z9K D   4      16.717  27.472   9.8380  0.00  0.00     0.000 C
ATOM     65  O5  Z9K D   4      16.570  26.573   8.7070  0.00  0.00     0.000 O
ATOM     66   O  Z9K D   4      14.391  25.382  11.9310  0.00  0.00     0.000 O
ATOM     67   C  Z9K D   4      13.254  24.536  11.8620  0.00  0.00     0.000 C
BRANCH 61 68
ATOM     68   O  Z9K D   4      15.352  23.394   9.8070  0.00  0.00     0.000 O
ATOM     69   O  Z9K D   4      16.213  22.945  12.1750  0.00  0.00     0.000 OA
ATOM     70   S  Z9K D   4      16.416  22.663  10.7850  0.00  0.00     0.000 S
ATOM     71   O  Z9K D   4      17.682  22.588  10.1240  0.00  0.00     0.000 OA
ATOM     72   O  Z9K D   4      15.593  21.577  10.3610  0.00  0.00     0.000 OA
ENDBRANCH 61 68
BRANCH 64 73
ATOM     73   C  Z9K D   4      16.771  28.992   9.5750  0.00  0.00     0.000 C
ATOM     74   O  Z9K D   4      17.206  29.794  10.4520  0.00  0.00     0.000 O
ATOM     75   O  Z9K D   4      16.395  29.488   8.4850  0.00  0.00     0.000 OA
ENDBRANCH 64 73
BRANCH 60 76
ATOM     76  O4  Z9L D   5      18.202  25.156   8.7540  0.00  0.00     0.000 O
BRANCH 76 80
ATOM     77  C1  Z9L D   5      20.916  24.862   5.8360  0.00  0.00     0.000 C
ATOM     78  C2  Z9L D   5      20.941  26.381   6.3480  0.00  0.00     0.000 C
ATOM     79  C3  Z9L D   5      20.159  26.401   7.8480  0.00  0.00     0.000 C
ATOM     80  C4  Z9L D   5      18.879  25.407   7.5490  0.00  0.00     0.000 C
ATOM     81  C5  Z9L D   5      18.808  23.969   6.8230  0.00  0.00     0.000 C
ATOM     82  O5  Z9L D   5      19.685  24.045   5.6890  0.00  0.00     0.000 O
ATOM     83   C  Z9L D   5      21.990  22.722   6.2350  0.00  0.00     0.000 C
ATOM     84   C  Z9L D   5      21.990  22.722   6.2350  0.00  0.00     0.000 C
BRANCH 78 85
ATOM     85   O  Z9L D   5      22.269  26.757   6.5220  0.00  0.00     0.000 O
ATOM     86   O  Z9L D   5      23.193  28.077   5.4660  0.00  0.00     0.000 OA
ATOM     87   S  Z9L D   5      21.797  27.778   5.3740  0.00  0.00     0.000 S
ATOM     88   O  Z9L D   5      21.129  28.952   5.8800  0.00  0.00     0.000 OA
ATOM     89   O  Z9L D   5      21.616  27.230   4.0740  0.00  0.00     0.000 OA
ENDBRANCH 78 85
BRANCH 79 90
ATOM     90   O  Z9L D   5      19.541  27.626   8.0820  0.00  0.00     0.000 O
ATOM     91   S  Z9L D   5      20.539  27.588   9.3230  0.00  0.00     0.000 S
ATOM     92   O  Z9L D   5      21.961  27.427   9.1640  0.00  0.00     0.000 OA
ATOM     93   O  Z9L D   5      19.855  27.044  10.4690  0.00  0.00     0.000 O
ATOM     94   O  Z9L D   5      20.267  28.989   9.2950  0.00  0.00     0.000 OA
ENDBRANCH 79 90
BRANCH 81 95
ATOM     95   C  Z9L D   5      17.290  23.286   6.6150  0.00  0.00     0.000 C
ATOM     96   S  Z9L D   5      16.306  21.661   6.0190  0.00  0.00     0.000 S
ATOM     97   O  Z9L D   5      17.610  22.416   5.5630  0.00  0.00     0.000 O
ATOM     98   O  Z9L D   5      15.190  22.476   5.6120  0.00  0.00     0.000 OA
ATOM     99   O  Z9L D   5      16.355  21.065   7.3120  0.00  0.00     0.000 OA
ATOM    100   O  Z9L D   5      16.675  20.810   4.9150  0.00  0.00     0.000 O
ENDBRANCH 81 95
ENDBRANCH 76 80
ENDBRANCH 60 76
ENDBRANCH 59 63
ENDBRANCH 37 59
ENDBRANCH 36 40
ENDBRANCH 23 36
ENDBRANCH 22 26
ENDBRANCH 1 22
TORSDOF 19
ENDMDL
MODEL 14
REMARK VINA RESULT:      -4.7      6.774     17.082
ROOT
ATOM      1  C1  Z9H D   1      21.784  32.851   6.7270  0.00  0.00     0.000 C
ATOM      2  C2  Z9H D   1      20.409  33.366   7.2160  0.00  0.00     0.000 C
ATOM      3  C3  Z9H D   1      19.865  32.026   7.8010  0.00  0.00     0.000 C
ATOM      4  C4  Z9H D   1      19.963  30.774   6.8340  0.00  0.00     0.000 C
ATOM      5  C5  Z9H D   1      21.272  30.402   6.0310  0.00  0.00     0.000 C
ATOM      6  O5  Z9H D   1      21.866  31.709   5.8290  0.00  0.00     0.000 O
ATOM      7   O  Z9H D   1      18.532  32.170   8.2940  0.00  0.00     0.000 O
ATOM      8   C  Z9H D   1      18.419  32.366   9.7140  0.00  0.00     0.000 C
ATOM      9   O  Z9H D   1      19.621  29.638   7.6350  0.00  0.00     0.000 O
ATOM     10   C  Z9H D   1      18.275  29.172   7.5030  0.00  0.00     0.000 C
ENDROOT
BRANCH 2 11
ATOM     11   O  Z9H D   1      20.767  34.135   8.3340  0.00  0.00     0.000 O
ATOM     12   O  Z9H D   1      20.639  36.015   8.4120  0.00  0.00     0.000 OA
ATOM     13   S  Z9H D   1      20.235  35.219   7.3020  0.00  0.00     0.000 S
ATOM     14   O  Z9H D   1      18.813  35.069   7.1830  0.00  0.00     0.000 OA
ATOM     15   O  Z9H D   1      21.148  35.397   6.1970  0.00  0.00     0.000 O
ENDBRANCH 2 11
BRANCH 5 16
ATOM     16   C  Z9H D   1      21.045  29.342   4.7570  0.00  0.00     0.000 C
ATOM     17   S  Z9H D   1      19.661  28.476   3.5840  0.00  0.00     0.000 S
ATOM     18   O  Z9H D   1      19.900  29.947   4.2060  0.00  0.00     0.000 O
ATOM     19   O  Z9H D   1      19.344  27.460   4.5450  0.00  0.00     0.000 O
ATOM     20   O  Z9H D   1      20.533  28.263   2.4820  0.00  0.00     0.000 OA
ATOM     21   O  Z9H D   1      18.486  29.133   3.0910  0.00  0.00     0.000 OA
ENDBRANCH 5 16
BRANCH 1 22
ATOM     22  O4  GU1 D   2      22.698  32.415   7.7970  0.00  0.00     0.000 O
BRANCH 22 26
ATOM     23  C1  GU1 D   2      26.661  31.833   8.7610  0.00  0.00     0.000 C
ATOM     24  C2  GU1 D   2      26.407  32.922   7.7300  0.00  0.00     0.000 C
ATOM     25  C3  GU1 D   2      24.953  33.297   7.7500  0.00  0.00     0.000 C
ATOM     26  C4  GU1 D   2      24.072  32.067   7.5880  0.00  0.00     0.000 C
ATOM     27  C5  GU1 D   2      24.478  30.994   8.6030  0.00  0.00     0.000 C
ATOM     28  O5  GU1 D   2      25.864  30.689   8.4790  0.00  0.00     0.000 O
ATOM     29   O  GU1 D   2      27.171  34.093   7.9930  0.00  0.00     0.000 O
ATOM     30   C  GU1 D   2      28.379  34.169   7.2480  0.00  0.00     0.000 C
ATOM     31   C  GU1 D   2      24.593  35.562   7.0200  0.00  0.00     0.000 C
ATOM     32   O  GU1 D   2      24.701  34.187   6.6590  0.00  0.00     0.000 O
BRANCH 27 33
ATOM     33   C  GU1 D   2      23.702  29.716   8.3880  0.00  0.00     0.000 C
ATOM     34   O  GU1 D   2      24.057  28.967   7.5010  0.00  0.00     0.000 OA
ATOM     35   O  GU1 D   2      22.743  29.446   9.0940  0.00  0.00     0.000 O
ENDBRANCH 27 33
BRANCH 23 36
ATOM     36  O4  GU6 D   3      27.919  31.129   8.7710  0.00  0.00     0.000 O
BRANCH 36 40
ATOM     37  C1  GU6 D   3      30.938  28.401   8.4050  0.00  0.00     0.000 C
ATOM     38  C2  GU6 D   3      30.886  29.087   9.7640  0.00  0.00     0.000 C
ATOM     39  C3  GU6 D   3      29.597  29.857   9.8920  0.00  0.00     0.000 C
ATOM     40  C4  GU6 D   3      28.769  30.003   8.6900  0.00  0.00     0.000 C
ATOM     41  C5  GU6 D   3      29.690  30.210   7.4430  0.00  0.00     0.000 C
ATOM     42  O5  GU6 D   3      30.867  29.395   7.3940  0.00  0.00     0.000 O
BRANCH 38 43
ATOM     43   O  GU6 D   3      30.986  28.136  10.8060  0.00  0.00     0.000 O
ATOM     44   S  GU6 D   3      32.203  28.311  11.7050  0.00  0.00     0.000 S
ATOM     45   O  GU6 D   3      33.367  27.698  11.0420  0.00  0.00     0.000 OA
ATOM     46   O  GU6 D   3      32.448  29.753  11.8890  0.00  0.00     0.000 O
ATOM     47   O  GU6 D   3      31.931  27.682  12.9930  0.00  0.00     0.000 OA
ENDBRANCH 38 43
BRANCH 39 48
ATOM     48   O  GU6 D   3      29.092  30.221  11.1630  0.00  0.00     0.000 O
ATOM     49   S  GU6 D   3      28.067  29.515  12.0490  0.00  0.00     0.000 S
ATOM     50   O  GU6 D   3      28.486  28.132  12.3030  0.00  0.00     0.000 OA
ATOM     51   O  GU6 D   3      28.090  30.312  13.2840  0.00  0.00     0.000 OA
ATOM     52   O  GU6 D   3      26.753  29.529  11.3690  0.00  0.00     0.000 O
ENDBRANCH 39 48
BRANCH 41 53
ATOM     53   C  GU6 D   3      29.506  31.137   6.2720  0.00  0.00     0.000 C
ATOM     54   O  GU6 D   3      28.701  30.296   5.4870  0.00  0.00     0.000 O
ATOM     55   S  GU6 D   3      28.290  30.714   4.0690  0.00  0.00     0.000 S
ATOM     56   O  GU6 D   3      29.529  30.753   3.2580  0.00  0.00     0.000 O
ATOM     57   O  GU6 D   3      27.353  29.714   3.5390  0.00  0.00     0.000 OA
ATOM     58   O  GU6 D   3      27.677  32.058   4.1680  0.00  0.00     0.000 OA
ENDBRANCH 41 53
BRANCH 37 59
ATOM     59  O4  Z9K D   4      30.089  27.309   7.9950  0.00  0.00     0.000 O
BRANCH 59 63
ATOM     60  C1  Z9K D   4      29.610  23.707   6.4980  0.00  0.00     0.000 C
ATOM     61  C2  Z9K D   4      30.964  24.121   5.8590  0.00  0.00     0.000 C
ATOM     62  C3  Z9K D   4      31.243  25.495   6.6080  0.00  0.00     0.000 C
ATOM     63  C4  Z9K D   4      30.073  26.540   6.7570  0.00  0.00     0.000 C
ATOM     64  C5  Z9K D   4      28.649  25.964   6.7460  0.00  0.00     0.000 C
ATOM     65  O5  Z9K D   4      28.824  24.659   7.3570  0.00  0.00     0.000 O
ATOM     66   O  Z9K D   4      32.335  26.241   6.0400  0.00  0.00     0.000 O
ATOM     67   C  Z9K D   4      33.614  25.873   6.5290  0.00  0.00     0.000 C
BRANCH 61 68
ATOM     68   O  Z9K D   4      31.930  23.217   6.3220  0.00  0.00     0.000 O
ATOM     69   O  Z9K D   4      32.484  24.037   3.9610  0.00  0.00     0.000 OA
ATOM     70   S  Z9K D   4      31.956  22.947   4.7250  0.00  0.00     0.000 S
ATOM     71   O  Z9K D   4      30.823  22.148   4.3690  0.00  0.00     0.000 OA
ATOM     72   O  Z9K D   4      33.004  22.100   5.1970  0.00  0.00     0.000 OA
ENDBRANCH 61 68
BRANCH 64 73
ATOM     73   C  Z9K D   4      27.651  26.954   7.3840  0.00  0.00     0.000 C
ATOM     74   O  Z9K D   4      27.124  27.883   6.7040  0.00  0.00     0.000 O
ATOM     75   O  Z9K D   4      27.320  26.874   8.5920  0.00  0.00     0.000 OA
ENDBRANCH 64 73
BRANCH 60 76
ATOM     76  O4  Z9L D   5      28.450  23.152   5.8540  0.00  0.00     0.000 O
BRANCH 76 80
ATOM     77  C1  Z9L D   5      25.628  20.331   6.0770  0.00  0.00     0.000 C
ATOM     78  C2  Z9L D   5      24.893  21.746   6.2540  0.00  0.00     0.000 C
ATOM     79  C3  Z9L D   5      25.975  22.927   5.7090  0.00  0.00     0.000 C
ATOM     80  C4  Z9L D   5      27.388  22.382   6.3570  0.00  0.00     0.000 C
ATOM     81  C5  Z9L D   5      28.035  20.905   6.3870  0.00  0.00     0.000 C
ATOM     82  O5  Z9L D   5      26.955  19.997   6.6530  0.00  0.00     0.000 O
ATOM     83   C  Z9L D   5      26.247  18.732   4.3600  0.00  0.00     0.000 C
ATOM     84   C  Z9L D   5      26.247  18.732   4.3600  0.00  0.00     0.000 C
BRANCH 78 85
ATOM     85   O  Z9L D   5      23.764  21.751   5.4390  0.00  0.00     0.000 O
ATOM     86   O  Z9L D   5      21.944  21.711   6.0700  0.00  0.00     0.000 OA
ATOM     87   S  Z9L D   5      23.103  21.833   6.9020  0.00  0.00     0.000 S
ATOM     88   O  Z9L D   5      23.040  23.170   7.4370  0.00  0.00     0.000 OA
ATOM     89   O  Z9L D   5      23.132  20.641   7.6780  0.00  0.00     0.000 OA
ENDBRANCH 78 85
BRANCH 79 90
ATOM     90   O  Z9L D   5      25.783  24.135   6.3730  0.00  0.00     0.000 O
ATOM     91   S  Z9L D   5      25.495  24.603   4.8790  0.00  0.00     0.000 S
ATOM     92   O  Z9L D   5      24.494  23.977   4.0550  0.00  0.00     0.000 OA
ATOM     93   O  Z9L D   5      26.706  25.132   4.3020  0.00  0.00     0.000 O
ATOM     94   O  Z9L D   5      24.859  25.673   5.5770  0.00  0.00     0.000 OA
ENDBRANCH 79 90
BRANCH 81 95
ATOM     95   C  Z9L D   5      29.470  20.710   7.2330  0.00  0.00     0.000 C
ATOM     96   S  Z9L D   5      30.274  20.114   8.9550  0.00  0.00     0.000 S
ATOM     97   O  Z9L D   5      28.954  20.859   8.5290  0.00  0.00     0.000 O
ATOM     98   O  Z9L D   5      31.354  21.053   8.7840  0.00  0.00     0.000 OA
ATOM     99   O  Z9L D   5      30.391  18.764   8.5200  0.00  0.00     0.000 OA
ATOM    100   O  Z9L D   5      29.703  20.312  10.2640  0.00  0.00     0.000 O
ENDBRANCH 81 95
ENDBRANCH 76 80
ENDBRANCH 60 76
ENDBRANCH 59 63
ENDBRANCH 37 59
ENDBRANCH 36 40
ENDBRANCH 23 36
ENDBRANCH 22 26
ENDBRANCH 1 22
TORSDOF 19
ENDMDL
MODEL 15
REMARK VINA RESULT:      -4.7      5.322     14.829
ROOT
ATOM      1  C1  Z9H D   1      14.374  41.612   8.5700  0.00  0.00     0.000 C
ATOM      2  C2  Z9H D   1      13.818  43.037   8.3350  0.00  0.00     0.000 C
ATOM      3  C3  Z9H D   1      14.003  43.589   9.7820  0.00  0.00     0.000 C
ATOM      4  C4  Z9H D   1      13.421  42.675  10.9370  0.00  0.00     0.000 C
ATOM      5  C5  Z9H D   1      13.686  41.119  11.0240  0.00  0.00     0.000 C
ATOM      6  O5  Z9H D   1      13.825  40.772   9.6230  0.00  0.00     0.000 O
ATOM      7   O  Z9H D   1      13.504  44.923   9.9040  0.00  0.00     0.000 O
ATOM      8   C  Z9H D   1      14.494  45.961   9.8170  0.00  0.00     0.000 C
ATOM      9   O  Z9H D   1      13.887  43.252  12.1620  0.00  0.00     0.000 O
ATOM     10   C  Z9H D   1      12.947  44.084  12.8490  0.00  0.00     0.000 C
ENDROOT
BRANCH 2 11
ATOM     11   O  Z9H D   1      14.844  43.630   7.5830  0.00  0.00     0.000 O
ATOM     12   O  Z9H D   1      14.674  44.143   5.7760  0.00  0.00     0.000 OA
ATOM     13   S  Z9H D   1      13.627  43.584   6.5640  0.00  0.00     0.000 S
ATOM     14   O  Z9H D   1      12.646  44.542   6.9890  0.00  0.00     0.000 OA
ATOM     15   O  Z9H D   1      13.339  42.235   6.1360  0.00  0.00     0.000 O
ENDBRANCH 2 11
BRANCH 5 16
ATOM     16   C  Z9H D   1      12.646  40.278  12.0300  0.00  0.00     0.000 C
ATOM     17   S  Z9H D   1      10.908  40.384  13.0330  0.00  0.00     0.000 S
ATOM     18   O  Z9H D   1      11.441  40.851  11.5820  0.00  0.00     0.000 O
ATOM     19   O  Z9H D   1      11.481  41.092  14.1420  0.00  0.00     0.000 O
ATOM     20   O  Z9H D   1      10.670  38.983  13.0410  0.00  0.00     0.000 OA
ATOM     21   O  Z9H D   1       9.723  41.026  12.5420  0.00  0.00     0.000 OA
ENDBRANCH 5 16
BRANCH 1 22
ATOM     22  O4  GU1 D   2      15.808  41.554   8.9010  0.00  0.00     0.000 O
BRANCH 22 26
ATOM     23  C1  GU1 D   2      19.336  39.496   8.3620  0.00  0.00     0.000 C
ATOM     24  C2  GU1 D   2      18.472  39.621   7.1160  0.00  0.00     0.000 C
ATOM     25  C3  GU1 D   2      17.439  40.688   7.3330  0.00  0.00     0.000 C
ATOM     26  C4  GU1 D   2      16.655  40.435   8.6130  0.00  0.00     0.000 C
ATOM     27  C5  GU1 D   2      17.618  40.220   9.7840  0.00  0.00     0.000 C
ATOM     28  O5  GU1 D   2      18.533  39.167   9.4900  0.00  0.00     0.000 O
ATOM     29   O  GU1 D   2      19.238  39.970   5.9700  0.00  0.00     0.000 O
ATOM     30   C  GU1 D   2      19.608  38.860   5.1650  0.00  0.00     0.000 C
ATOM     31   C  GU1 D   2      16.735  41.699   5.2660  0.00  0.00     0.000 C
ATOM     32   O  GU1 D   2      16.529  40.668   6.2280  0.00  0.00     0.000 O
BRANCH 27 33
ATOM     33   C  GU1 D   2      16.873  39.847  11.0430  0.00  0.00     0.000 C
ATOM     34   O  GU1 D   2      16.206  38.833  11.0410  0.00  0.00     0.000 OA
ATOM     35   O  GU1 D   2      16.946  40.549  12.0390  0.00  0.00     0.000 O
ENDBRANCH 27 33
BRANCH 23 36
ATOM     36  O4  GU6 D   3      20.239  38.381   8.5040  0.00  0.00     0.000 O
BRANCH 36 40
ATOM     37  C1  GU6 D   3      23.539  35.993   8.8190  0.00  0.00     0.000 C
ATOM     38  C2  GU6 D   3      22.355  35.324   8.1330  0.00  0.00     0.000 C
ATOM     39  C3  GU6 D   3      21.301  36.355   7.8240  0.00  0.00     0.000 C
ATOM     40  C4  GU6 D   3      21.470  37.694   8.3990  0.00  0.00     0.000 C
ATOM     41  C5  GU6 D   3      22.054  37.573   9.8450  0.00  0.00     0.000 C
ATOM     42  O5  GU6 D   3      23.085  36.594  10.0220  0.00  0.00     0.000 O
BRANCH 38 43
ATOM     43   O  GU6 D   3      22.767  34.683   6.9410  0.00  0.00     0.000 O
ATOM     44   S  GU6 D   3      23.241  33.248   7.1300  0.00  0.00     0.000 S
ATOM     45   O  GU6 D   3      24.639  33.273   7.5910  0.00  0.00     0.000 OA
ATOM     46   O  GU6 D   3      22.398  32.605   8.1540  0.00  0.00     0.000 O
ATOM     47   O  GU6 D   3      23.112  32.540   5.8600  0.00  0.00     0.000 OA
ENDBRANCH 38 43
BRANCH 39 48
ATOM     48   O  GU6 D   3      20.318  36.116   6.8360  0.00  0.00     0.000 O
ATOM     49   S  GU6 D   3      19.078  35.225   6.8820  0.00  0.00     0.000 S
ATOM     50   O  GU6 D   3      18.236  35.587   8.0280  0.00  0.00     0.000 OA
ATOM     51   O  GU6 D   3      18.404  35.526   5.6120  0.00  0.00     0.000 OA
ATOM     52   O  GU6 D   3      19.506  33.812   6.9940  0.00  0.00     0.000 O
ENDBRANCH 39 48
BRANCH 41 53
ATOM     53   C  GU6 D   3      21.696  38.353  11.0810  0.00  0.00     0.000 C
ATOM     54   O  GU6 D   3      22.948  38.295  11.7130  0.00  0.00     0.000 O
ATOM     55   S  GU6 D   3      23.133  38.863  13.1270  0.00  0.00     0.000 S
ATOM     56   O  GU6 D   3      22.322  38.020  14.0360  0.00  0.00     0.000 O
ATOM     57   O  GU6 D   3      24.558  38.785  13.4800  0.00  0.00     0.000 OA
ATOM     58   O  GU6 D   3      22.636  40.257  13.1090  0.00  0.00     0.000 OA
ENDBRANCH 41 53
BRANCH 37 59
ATOM     59  O4  Z9K D   4      24.444  36.924   8.1880  0.00  0.00     0.000 O
BRANCH 59 63
ATOM     60  C1  Z9K D   4      28.131  35.607   7.8420  0.00  0.00     0.000 C
ATOM     61  C2  Z9K D   4      28.064  35.918   9.3630  0.00  0.00     0.000 C
ATOM     62  C3  Z9K D   4      26.523  36.273   9.5300  0.00  0.00     0.000 C
ATOM     63  C4  Z9K D   4      25.838  37.232   8.4830  0.00  0.00     0.000 C
ATOM     64  C5  Z9K D   4      26.470  37.265   7.0840  0.00  0.00     0.000 C
ATOM     65  O5  Z9K D   4      26.976  35.913   6.9270  0.00  0.00     0.000 O
ATOM     66   O  Z9K D   4      26.206  36.842  10.8140  0.00  0.00     0.000 O
ATOM     67   C  Z9K D   4      25.956  35.886  11.8320  0.00  0.00     0.000 C
BRANCH 61 68
ATOM     68   O  Z9K D   4      28.264  34.707  10.0390  0.00  0.00     0.000 O
ATOM     69   O  Z9K D   4      29.240  36.675  11.3530  0.00  0.00     0.000 OA
ATOM     70   S  Z9K D   4      29.556  35.568  10.5020  0.00  0.00     0.000 S
ATOM     71   O  Z9K D   4      30.515  35.577   9.4400  0.00  0.00     0.000 OA
ATOM     72   O  Z9K D   4      29.699  34.367  11.2600  0.00  0.00     0.000 OA
ENDBRANCH 61 68
BRANCH 64 73
ATOM     73   C  Z9K D   4      25.470  37.808   6.0420  0.00  0.00     0.000 C
ATOM     74   O  Z9K D   4      25.346  39.050   5.8370  0.00  0.00     0.000 O
ATOM     75   O  Z9K D   4      24.749  37.043   5.3550  0.00  0.00     0.000 OA
ENDBRANCH 64 73
BRANCH 60 76
ATOM     76  O4  Z9L D   5      29.136  36.000   6.8920  0.00  0.00     0.000 O
BRANCH 76 80
ATOM     77  C1  Z9L D   5      31.375  34.617   3.8840  0.00  0.00     0.000 C
ATOM     78  C2  Z9L D   5      30.523  35.847   3.3080  0.00  0.00     0.000 C
ATOM     79  C3  Z9L D   5      29.944  36.706   4.6460  0.00  0.00     0.000 C
ATOM     80  C4  Z9L D   5      29.483  35.473   5.6370  0.00  0.00     0.000 C
ATOM     81  C5  Z9L D   5      30.240  34.110   6.0470  0.00  0.00     0.000 C
ATOM     82  O5  Z9L D   5      30.855  33.614   4.8480  0.00  0.00     0.000 O
ATOM     83   C  Z9L D   5      33.518  34.128   4.9130  0.00  0.00     0.000 C
ATOM     84   C  Z9L D   5      33.518  34.128   4.9130  0.00  0.00     0.000 C
BRANCH 78 85
ATOM     85   O  Z9L D   5      31.382  36.664   2.5790  0.00  0.00     0.000 O
ATOM     86   O  Z9L D   5      31.384  36.834   0.6600  0.00  0.00     0.000 OA
ATOM     87   S  Z9L D   5      30.424  36.094   1.4210  0.00  0.00     0.000 S
ATOM     88   O  Z9L D   5      29.189  36.825   1.2760  0.00  0.00     0.000 OA
ATOM     89   O  Z9L D   5      30.618  34.735   1.0500  0.00  0.00     0.000 OA
ENDBRANCH 78 85
BRANCH 79 90
ATOM     90   O  Z9L D   5      28.735  37.334   4.3610  0.00  0.00     0.000 O
ATOM     91   S  Z9L D   5      29.594  38.599   4.8070  0.00  0.00     0.000 S
ATOM     92   O  Z9L D   5      30.841  38.944   4.1760  0.00  0.00     0.000 OA
ATOM     93   O  Z9L D   5      29.377  38.854   6.2090  0.00  0.00     0.000 O
ATOM     94   O  Z9L D   5      28.558  39.270   4.0910  0.00  0.00     0.000 OA
ENDBRANCH 79 90
BRANCH 81 95
ATOM     95   C  Z9L D   5      29.407  33.031   7.0240  0.00  0.00     0.000 C
ATOM     96   S  Z9L D   5      28.262  31.402   7.0390  0.00  0.00     0.000 S
ATOM     97   O  Z9L D   5      28.417  32.658   6.1030  0.00  0.00     0.000 O
ATOM     98   O  Z9L D   5      27.616  31.859   8.2420  0.00  0.00     0.000 OA
ATOM     99   O  Z9L D   5      29.381  30.523   7.0870  0.00  0.00     0.000 OA
ATOM    100   O  Z9L D   5      27.244  31.079   6.0690  0.00  0.00     0.000 O
ENDBRANCH 81 95
ENDBRANCH 76 80
ENDBRANCH 60 76
ENDBRANCH 59 63
ENDBRANCH 37 59
ENDBRANCH 36 40
ENDBRANCH 23 36
ENDBRANCH 22 26
ENDBRANCH 1 22
TORSDOF 19
ENDMDL
MODEL 16
REMARK VINA RESULT:      -4.5      4.741     14.582
ROOT
ATOM      1  C1  Z9H D   1      15.097  36.945  11.8430  0.00  0.00     0.000 C
ATOM      2  C2  Z9H D   1      15.420  38.447  11.6610  0.00  0.00     0.000 C
ATOM      3  C3  Z9H D   1      16.352  38.324  10.4160  0.00  0.00     0.000 C
ATOM      4  C4  Z9H D   1      17.515  37.256  10.5420  0.00  0.00     0.000 C
ATOM      5  C5  Z9H D   1      17.283  35.781  11.0630  0.00  0.00     0.000 C
ATOM      6  O5  Z9H D   1      16.169  35.971  11.9720  0.00  0.00     0.000 O
ATOM      7   O  Z9H D   1      16.882  39.593  10.0290  0.00  0.00     0.000 O
ATOM      8   C  Z9H D   1      16.196  40.242   8.9450  0.00  0.00     0.000 C
ATOM      9   O  Z9H D   1      18.095  37.156   9.2370  0.00  0.00     0.000 O
ATOM     10   C  Z9H D   1      19.300  37.902   9.0380  0.00  0.00     0.000 C
ENDROOT
BRANCH 2 11
ATOM     11   O  Z9H D   1      14.207  38.948  11.1610  0.00  0.00     0.000 O
ATOM     12   O  Z9H D   1      13.101  40.163  12.0870  0.00  0.00     0.000 OA
ATOM     13   S  Z9H D   1      14.356  39.684  12.5610  0.00  0.00     0.000 S
ATOM     14   O  Z9H D   1      15.420  40.641  12.4560  0.00  0.00     0.000 OA
ATOM     15   O  Z9H D   1      14.163  38.773  13.6660  0.00  0.00     0.000 O
ENDBRANCH 2 11
BRANCH 5 16
ATOM     16   C  Z9H D   1      18.667  34.971  11.5380  0.00  0.00     0.000 C
ATOM     17   S  Z9H D   1      19.598  33.189  11.5260  0.00  0.00     0.000 S
ATOM     18   O  Z9H D   1      18.725  34.050  10.4760  0.00  0.00     0.000 O
ATOM     19   O  Z9H D   1      18.864  32.691  12.6540  0.00  0.00     0.000 O
ATOM     20   O  Z9H D   1      20.912  33.723  11.6250  0.00  0.00     0.000 OA
ATOM     21   O  Z9H D   1      19.581  32.269  10.4270  0.00  0.00     0.000 OA
ENDBRANCH 5 16
BRANCH 1 22
ATOM     22  O4  GU1 D   2      14.318  36.341  10.7470  0.00  0.00     0.000 O
BRANCH 22 26
ATOM     23  C1  GU1 D   2      11.337  33.667   9.7800  0.00  0.00     0.000 C
ATOM     24  C2  GU1 D   2      11.087  34.473  11.0460  0.00  0.00     0.000 C
ATOM     25  C3  GU1 D   2      12.022  35.648  11.0800  0.00  0.00     0.000 C
ATOM     26  C4  GU1 D   2      13.465  35.201  10.9000  0.00  0.00     0.000 C
ATOM     27  C5  GU1 D   2      13.588  34.312   9.6580  0.00  0.00     0.000 C
ATOM     28  O5  GU1 D   2      12.685  33.213   9.7410  0.00  0.00     0.000 O
ATOM     29   O  GU1 D   2       9.754  34.964  11.1100  0.00  0.00     0.000 O
ATOM     30   C  GU1 D   2       8.880  34.154  11.8830  0.00  0.00     0.000 C
ATOM     31   C  GU1 D   2      11.121  37.485  12.3480  0.00  0.00     0.000 C
ATOM     32   O  GU1 D   2      11.896  36.289  12.3530  0.00  0.00     0.000 O
BRANCH 27 33
ATOM     33   C  GU1 D   2      14.984  33.754   9.5220  0.00  0.00     0.000 C
ATOM     34   O  GU1 D   2      15.643  34.077   8.5540  0.00  0.00     0.000 OA
ATOM     35   O  GU1 D   2      15.438  33.001  10.3690  0.00  0.00     0.000 O
ENDBRANCH 27 33
BRANCH 23 36
ATOM     36  O4  GU6 D   3      10.745  32.362   9.6290  0.00  0.00     0.000 O
BRANCH 36 40
ATOM     37  C1  GU6 D   3      10.087  28.380  10.2670  0.00  0.00     0.000 C
ATOM     38  C2  GU6 D   3       9.042  29.046   9.3800  0.00  0.00     0.000 C
ATOM     39  C3  GU6 D   3       9.514  30.421   8.9870  0.00  0.00     0.000 C
ATOM     40  C4  GU6 D   3      10.706  30.950   9.6600  0.00  0.00     0.000 C
ATOM     41  C5  GU6 D   3      10.690  30.522  11.1640  0.00  0.00     0.000 C
ATOM     42  O5  GU6 D   3      10.270  29.178  11.4270  0.00  0.00     0.000 O
BRANCH 38 43
ATOM     43   O  GU6 D   3       8.803  28.268   8.2230  0.00  0.00     0.000 O
ATOM     44   S  GU6 D   3       7.649  27.282   8.3550  0.00  0.00     0.000 S
ATOM     45   O  GU6 D   3       8.136  26.081   9.0530  0.00  0.00     0.000 OA
ATOM     46   O  GU6 D   3       6.580  27.913   9.1510  0.00  0.00     0.000 O
ATOM     47   O  GU6 D   3       7.154  26.958   7.0210  0.00  0.00     0.000 OA
ENDBRANCH 38 43
BRANCH 39 48
ATOM     48   O  GU6 D   3       8.976  31.078   7.8560  0.00  0.00     0.000 O
ATOM     49   S  GU6 D   3       7.716  31.932   7.7250  0.00  0.00     0.000 S
ATOM     50   O  GU6 D   3       7.747  33.031   8.6960  0.00  0.00     0.000 OA
ATOM     51   O  GU6 D   3       7.797  32.437   6.3480  0.00  0.00     0.000 OA
ATOM     52   O  GU6 D   3       6.531  31.078   7.9650  0.00  0.00     0.000 O
ENDBRANCH 39 48
BRANCH 41 53
ATOM     53   C  GU6 D   3      11.072  31.321  12.3810  0.00  0.00     0.000 C
ATOM     54   O  GU6 D   3      12.452  31.064  12.3540  0.00  0.00     0.000 O
ATOM     55   S  GU6 D   3      13.360  31.568  13.4830  0.00  0.00     0.000 S
ATOM     56   O  GU6 D   3      12.963  30.838  14.7100  0.00  0.00     0.000 O
ATOM     57   O  GU6 D   3      14.755  31.271  13.1300  0.00  0.00     0.000 OA
ATOM     58   O  GU6 D   3      13.116  33.021  13.6270  0.00  0.00     0.000 OA
ENDBRANCH 41 53
BRANCH 37 59
ATOM     59  O4  Z9K D   4      11.394  27.953   9.8300  0.00  0.00     0.000 O
BRANCH 59 63
ATOM     60  C1  Z9K D   4      14.195  25.219   9.4700  0.00  0.00     0.000 C
ATOM     61  C2  Z9K D   4      13.418  24.693  10.7090  0.00  0.00     0.000 C
ATOM     62  C3  Z9K D   4      12.183  25.695  10.7380  0.00  0.00     0.000 C
ATOM     63  C4  Z9K D   4      12.442  27.238  10.5470  0.00  0.00     0.000 C
ATOM     64  C5  Z9K D   4      13.701  27.618   9.7540  0.00  0.00     0.000 C
ATOM     65  O5  Z9K D   4      13.832  26.522   8.8120  0.00  0.00     0.000 O
ATOM     66   O  Z9K D   4      11.400  25.597  11.9410  0.00  0.00     0.000 O
ATOM     67   C  Z9K D   4      10.404  24.587  11.9110  0.00  0.00     0.000 C
BRANCH 61 68
ATOM     68   O  Z9K D   4      12.899  23.438  10.3650  0.00  0.00     0.000 O
ATOM     69   O  Z9K D   4      13.518  23.537  12.8460  0.00  0.00     0.000 OA
ATOM     70   S  Z9K D   4      13.926  23.060  11.5590  0.00  0.00     0.000 S
ATOM     71   O  Z9K D   4      15.262  23.076  11.0470  0.00  0.00     0.000 OA
ATOM     72   O  Z9K D   4      13.320  21.802  11.2660  0.00  0.00     0.000 OA
ENDBRANCH 61 68
BRANCH 64 73
ATOM     73   C  Z9K D   4      13.593  29.058   9.2080  0.00  0.00     0.000 C
ATOM     74   O  Z9K D   4      14.067  30.040   9.8500  0.00  0.00     0.000 O
ATOM     75   O  Z9K D   4      13.039  29.308   8.1100  0.00  0.00     0.000 OA
ENDBRANCH 64 73
BRANCH 60 76
ATOM     76  O4  Z9L D   5      15.612  25.405   9.3160  0.00  0.00     0.000 O
BRANCH 76 80
ATOM     77  C1  Z9L D   5      18.692  24.855   6.8290  0.00  0.00     0.000 C
ATOM     78  C2  Z9L D   5      18.536  26.437   7.0400  0.00  0.00     0.000 C
ATOM     79  C3  Z9L D   5      17.569  26.650   8.4120  0.00  0.00     0.000 C
ATOM     80  C4  Z9L D   5      16.417  25.498   8.1680  0.00  0.00     0.000 C
ATOM     81  C5  Z9L D   5      16.548  23.953   7.7280  0.00  0.00     0.000 C
ATOM     82  O5  Z9L D   5      17.554  23.908   6.7050  0.00  0.00     0.000 O
ATOM     83   C  Z9L D   5      19.864  22.937   7.7470  0.00  0.00     0.000 C
ATOM     84   C  Z9L D   5      19.864  22.937   7.7470  0.00  0.00     0.000 C
BRANCH 78 85
ATOM     85   O  Z9L D   5      19.800  26.966   7.2860  0.00  0.00     0.000 O
ATOM     86   O  Z9L D   5      20.768  28.121   6.0870  0.00  0.00     0.000 OA
ATOM     87   S  Z9L D   5      19.421  27.677   5.8960  0.00  0.00     0.000 S
ATOM     88   O  Z9L D   5      18.611  28.861   6.0500  0.00  0.00     0.000 OA
ATOM     89   O  Z9L D   5      19.458  26.858   4.7340  0.00  0.00     0.000 OA
ENDBRANCH 78 85
BRANCH 79 90
ATOM     90   O  Z9L D   5      16.837  27.832   8.3370  0.00  0.00     0.000 O
ATOM     91   S  Z9L D   5      17.649  28.106   9.6790  0.00  0.00     0.000 S
ATOM     92   O  Z9L D   5      19.087  28.059   9.7320  0.00  0.00     0.000 OA
ATOM     93   O  Z9L D   5      16.852  27.703  10.8100  0.00  0.00     0.000 O
ATOM     94   O  Z9L D   5      17.281  29.447   9.3600  0.00  0.00     0.000 OA
ENDBRANCH 79 90
BRANCH 81 95
ATOM     95   C  Z9L D   5      15.124  23.099   7.4860  0.00  0.00     0.000 C
ATOM     96   S  Z9L D   5      14.351  21.354   6.9150  0.00  0.00     0.000 S
ATOM     97   O  Z9L D   5      15.583  22.235   6.4820  0.00  0.00     0.000 O
ATOM     98   O  Z9L D   5      13.172  22.026   6.4330  0.00  0.00     0.000 OA
ATOM     99   O  Z9L D   5      14.410  20.812   8.2300  0.00  0.00     0.000 OA
ATOM    100   O  Z9L D   5      14.860  20.514   5.8590  0.00  0.00     0.000 O
ENDBRANCH 81 95
ENDBRANCH 76 80
ENDBRANCH 60 76
ENDBRANCH 59 63
ENDBRANCH 37 59
ENDBRANCH 36 40
ENDBRANCH 23 36
ENDBRANCH 22 26
ENDBRANCH 1 22
TORSDOF 19
ENDMDL
MODEL 17
REMARK VINA RESULT:      -4.3      3.697     14.021
ROOT
ATOM      1  C1  Z9H D   1      15.427  38.453  11.7370  0.00  0.00     0.000 C
ATOM      2  C2  Z9H D   1      15.396  39.904  11.2000  0.00  0.00     0.000 C
ATOM      3  C3  Z9H D   1      16.356  39.712   9.9860  0.00  0.00     0.000 C
ATOM      4  C4  Z9H D   1      17.734  39.000  10.3150  0.00  0.00     0.000 C
ATOM      5  C5  Z9H D   1      17.839  37.676  11.1720  0.00  0.00     0.000 C
ATOM      6  O5  Z9H D   1      16.694  37.810  12.0510  0.00  0.00     0.000 O
ATOM      7   O  Z9H D   1      16.585  40.942   9.2960  0.00  0.00     0.000 O
ATOM      8   C  Z9H D   1      15.789  41.143   8.1160  0.00  0.00     0.000 C
ATOM      9   O  Z9H D   1      18.346  38.735   9.0490  0.00  0.00     0.000 O
ATOM     10   C  Z9H D   1      19.349  39.670   8.6400  0.00  0.00     0.000 C
ENDROOT
BRANCH 2 11
ATOM     11   O  Z9H D   1      14.111  39.981  10.6420  0.00  0.00     0.000 O
ATOM     12   O  Z9H D   1      12.737  41.095  11.2960  0.00  0.00     0.000 OA
ATOM     13   S  Z9H D   1      14.059  41.042  11.8230  0.00  0.00     0.000 S
ATOM     14   O  Z9H D   1      14.874  42.165  11.4570  0.00  0.00     0.000 OA
ATOM     15   O  Z9H D   1      14.060  40.400  13.1170  0.00  0.00     0.000 O
ENDBRANCH 2 11
BRANCH 5 16
ATOM     16   C  Z9H D   1      19.364  37.340  11.7730  0.00  0.00     0.000 C
ATOM     17   S  Z9H D   1      20.681  35.869  12.1490  0.00  0.00     0.000 S
ATOM     18   O  Z9H D   1      19.652  36.230  10.9580  0.00  0.00     0.000 O
ATOM     19   O  Z9H D   1      20.061  35.501  13.3900  0.00  0.00     0.000 O
ATOM     20   O  Z9H D   1      21.834  36.695  12.0680  0.00  0.00     0.000 OA
ATOM     21   O  Z9H D   1      20.896  34.733  11.3000  0.00  0.00     0.000 OA
ENDBRANCH 5 16
BRANCH 1 22
ATOM     22  O4  GU1 D   2      14.832  37.448  10.8400  0.00  0.00     0.000 O
BRANCH 22 26
ATOM     23  C1  GU1 D   2      12.585  34.002  10.6290  0.00  0.00     0.000 C
ATOM     24  C2  GU1 D   2      12.135  34.995  11.6900  0.00  0.00     0.000 C
ATOM     25  C3  GU1 D   2      12.763  36.331  11.4180  0.00  0.00     0.000 C
ATOM     26  C4  GU1 D   2      14.273  36.205  11.2820  0.00  0.00     0.000 C
ATOM     27  C5  GU1 D   2      14.619  35.110  10.2690  0.00  0.00     0.000 C
ATOM     28  O5  GU1 D   2      14.002  33.879  10.6350  0.00  0.00     0.000 O
ATOM     29   O  GU1 D   2      10.722  35.161  11.6990  0.00  0.00     0.000 O
ATOM     30   C  GU1 D   2      10.056  34.368  12.6720  0.00  0.00     0.000 C
ATOM     31   C  GU1 D   2      11.436  38.146  12.2770  0.00  0.00     0.000 C
ATOM     32   O  GU1 D   2      12.473  37.199  12.5190  0.00  0.00     0.000 O
BRANCH 27 33
ATOM     33   C  GU1 D   2      16.110  34.879  10.2010  0.00  0.00     0.000 C
ATOM     34   O  GU1 D   2      16.673  34.453  11.1880  0.00  0.00     0.000 OA
ATOM     35   O  GU1 D   2      16.728  35.112   9.1740  0.00  0.00     0.000 O
ENDBRANCH 27 33
BRANCH 23 36
ATOM     36  O4  GU6 D   3      12.321  32.595  10.8010  0.00  0.00     0.000 O
BRANCH 36 40
ATOM     37  C1  GU6 D   3      12.675  28.550  11.2540  0.00  0.00     0.000 C
ATOM     38  C2  GU6 D   3      11.382  28.986  10.5770  0.00  0.00     0.000 C
ATOM     39  C3  GU6 D   3      11.469  30.445  10.2140  0.00  0.00     0.000 C
ATOM     40  C4  GU6 D   3      12.604  31.212  10.7400  0.00  0.00     0.000 C
ATOM     41  C5  GU6 D   3      12.921  30.741  12.1980  0.00  0.00     0.000 C
ATOM     42  O5  GU6 D   3      12.857  29.329  12.4260  0.00  0.00     0.000 O
BRANCH 38 43
ATOM     43   O  GU6 D   3      11.143  28.213   9.4170  0.00  0.00     0.000 O
ATOM     44   S  GU6 D   3       9.876  27.368   9.4730  0.00  0.00     0.000 S
ATOM     45   O  GU6 D   3      10.169  26.136  10.2250  0.00  0.00     0.000 OA
ATOM     46   O  GU6 D   3       8.831  28.134  10.1750  0.00  0.00     0.000 O
ATOM     47   O  GU6 D   3       9.449  27.071   8.1100  0.00  0.00     0.000 OA
ENDBRANCH 38 43
BRANCH 39 48
ATOM     48   O  GU6 D   3      10.626  30.998   9.2210  0.00  0.00     0.000 O
ATOM     49   S  GU6 D   3      10.921  31.330   7.7590  0.00  0.00     0.000 S
ATOM     50   O  GU6 D   3      11.428  30.142   7.0630  0.00  0.00     0.000 OA
ATOM     51   O  GU6 D   3       9.607  31.731   7.2380  0.00  0.00     0.000 OA
ATOM     52   O  GU6 D   3      11.925  32.416   7.7070  0.00  0.00     0.000 O
ENDBRANCH 39 48
BRANCH 41 53
ATOM     53   C  GU6 D   3      13.302  31.566  13.3980  0.00  0.00     0.000 C
ATOM     54   O  GU6 D   3      14.689  31.590  13.1810  0.00  0.00     0.000 O
ATOM     55   S  GU6 D   3      15.627  32.233  14.2110  0.00  0.00     0.000 S
ATOM     56   O  GU6 D   3      15.550  31.404  15.4360  0.00  0.00     0.000 O
ATOM     57   O  GU6 D   3      16.993  32.230  13.6670  0.00  0.00     0.000 OA
ATOM     58   O  GU6 D   3      15.128  33.603  14.4630  0.00  0.00     0.000 OA
ENDBRANCH 41 53
BRANCH 37 59
ATOM     59  O4  Z9K D   4      13.959  28.450  10.6020  0.00  0.00     0.000 O
BRANCH 59 63
ATOM     60  C1  Z9K D   4      17.044  26.283   9.4900  0.00  0.00     0.000 C
ATOM     61  C2  Z9K D   4      16.570  25.508  10.7510  0.00  0.00     0.000 C
ATOM     62  C3  Z9K D   4      15.220  26.277  11.0880  0.00  0.00     0.000 C
ATOM     63  C4  Z9K D   4      15.206  27.853  11.0620  0.00  0.00     0.000 C
ATOM     64  C5  Z9K D   4      16.246  28.521  10.1500  0.00  0.00     0.000 C
ATOM     65  O5  Z9K D   4      16.384  27.566   9.0650  0.00  0.00     0.000 O
ATOM     66   O  Z9K D   4      14.668  25.924  12.3690  0.00  0.00     0.000 O
ATOM     67   C  Z9K D   4      13.846  24.769  12.3550  0.00  0.00     0.000 C
BRANCH 61 68
ATOM     68   O  Z9K D   4      16.197  24.225  10.3280  0.00  0.00     0.000 O
ATOM     69   O  Z9K D   4      17.142  24.179  12.7070  0.00  0.00     0.000 OA
ATOM     70   S  Z9K D   4      17.428  23.903  11.3310  0.00  0.00     0.000 S
ATOM     71   O  Z9K D   4      18.661  24.184  10.6610  0.00  0.00     0.000 OA
ATOM     72   O  Z9K D   4      16.978  22.598  10.9690  0.00  0.00     0.000 OA
ENDBRANCH 61 68
BRANCH 64 73
ATOM     73   C  Z9K D   4      15.833  29.970   9.8150  0.00  0.00     0.000 C
ATOM     74   O  Z9K D   4      15.113  30.230   8.8070  0.00  0.00     0.000 O
ATOM     75   O  Z9K D   4      16.186  30.940  10.5280  0.00  0.00     0.000 OA
ENDBRANCH 64 73
BRANCH 60 76
ATOM     76  O4  Z9L D   5      18.372  26.721   9.1570  0.00  0.00     0.000 O
BRANCH 76 80
ATOM     77  C1  Z9L D   5      21.073  26.997   6.2240  0.00  0.00     0.000 C
ATOM     78  C2  Z9L D   5      20.655  28.494   6.6200  0.00  0.00     0.000 C
ATOM     79  C3  Z9L D   5      19.892  28.402   8.1260  0.00  0.00     0.000 C
ATOM     80  C4  Z9L D   5      18.955  27.062   7.9250  0.00  0.00     0.000 C
ATOM     81  C5  Z9L D   5      19.306  25.613   7.3110  0.00  0.00     0.000 C
ATOM     82  O5  Z9L D   5      20.130  25.851   6.1600  0.00  0.00     0.000 O
ATOM     83   C  Z9L D   5      22.716  25.294   6.7660  0.00  0.00     0.000 C
ATOM     84   C  Z9L D   5      22.716  25.294   6.7660  0.00  0.00     0.000 C
BRANCH 78 85
ATOM     85   O  Z9L D   5      21.818  29.248   6.7420  0.00  0.00     0.000 O
ATOM     86   O  Z9L D   5      22.359  30.651   5.5380  0.00  0.00     0.000 OA
ATOM     87   S  Z9L D   5      21.107  29.959   5.4880  0.00  0.00     0.000 S
ATOM     88   O  Z9L D   5      20.121  30.943   5.8600  0.00  0.00     0.000 OA
ATOM     89   O  Z9L D   5      21.125  29.241   4.2600  0.00  0.00     0.000 OA
ENDBRANCH 78 85
BRANCH 79 90
ATOM     90   O  Z9L D   5      18.946  29.413   8.2780  0.00  0.00     0.000 O
ATOM     91   S  Z9L D   5      19.903  29.758   9.5030  0.00  0.00     0.000 S
ATOM     92   O  Z9L D   5      21.312  30.001   9.3350  0.00  0.00     0.000 OA
ATOM     93   O  Z9L D   5      19.397  29.128  10.6970  0.00  0.00     0.000 O
ATOM     94   O  Z9L D   5      19.239  31.014   9.3740  0.00  0.00     0.000 OA
ENDBRANCH 79 90
BRANCH 81 95
ATOM     95   C  Z9L D   5      18.050  24.508   7.1810  0.00  0.00     0.000 C
ATOM     96   S  Z9L D   5      17.561  22.662   6.6160  0.00  0.00     0.000 S
ATOM     97   O  Z9L D   5      18.550  23.772   6.0970  0.00  0.00     0.000 O
ATOM     98   O  Z9L D   5      16.230  23.107   6.2890  0.00  0.00     0.000 OA
ATOM     99   O  Z9L D   5      17.865  22.110   7.8920  0.00  0.00     0.000 OA
ATOM    100   O  Z9L D   5      18.099  21.960   5.4770  0.00  0.00     0.000 O
ENDBRANCH 81 95
ENDBRANCH 76 80
ENDBRANCH 60 76
ENDBRANCH 59 63
ENDBRANCH 37 59
ENDBRANCH 36 40
ENDBRANCH 23 36
ENDBRANCH 22 26
ENDBRANCH 1 22
TORSDOF 19
ENDMDL
MODEL 18
REMARK VINA RESULT:      -4.3      8.330     19.265
ROOT
ATOM      1  C1  Z9H D   1      22.283  32.082   6.4960  0.00  0.00     0.000 C
ATOM      2  C2  Z9H D   1      21.305  32.949   7.3250  0.00  0.00     0.000 C
ATOM      3  C3  Z9H D   1      20.442  31.797   7.9260  0.00  0.00     0.000 C
ATOM      4  C4  Z9H D   1      19.897  30.740   6.8790  0.00  0.00     0.000 C
ATOM      5  C5  Z9H D   1      20.806  30.074   5.7710  0.00  0.00     0.000 C
ATOM      6  O5  Z9H D   1      21.777  31.123   5.5270  0.00  0.00     0.000 O
ATOM      7   O  Z9H D   1      19.370  32.304   8.7230  0.00  0.00     0.000 O
ATOM      8   C  Z9H D   1      19.609  32.317  10.1410  0.00  0.00     0.000 C
ATOM      9   O  Z9H D   1      19.333  29.678   7.6560  0.00  0.00     0.000 O
ATOM     10   C  Z9H D   1      17.911  29.712   7.8070  0.00  0.00     0.000 C
ENDROOT
BRANCH 2 11
ATOM     11   O  Z9H D   1      22.121  33.383   8.3810  0.00  0.00     0.000 O
ATOM     12   O  Z9H D   1      22.608  35.182   8.6740  0.00  0.00     0.000 OA
ATOM     13   S  Z9H D   1      21.742  34.734   7.6360  0.00  0.00     0.000 S
ATOM     14   O  Z9H D   1      20.354  35.008   7.8790  0.00  0.00     0.000 OA
ATOM     15   O  Z9H D   1      22.397  34.838   6.3520  0.00  0.00     0.000 O
ENDBRANCH 2 11
BRANCH 5 16
ATOM     16   C  Z9H D   1      19.974  29.348   4.5130  0.00  0.00     0.000 C
ATOM     17   S  Z9H D   1      19.511  29.501   2.5630  0.00  0.00     0.000 S
ATOM     18   O  Z9H D   1      20.827  29.743   3.4650  0.00  0.00     0.000 O
ATOM     19   O  Z9H D   1      18.444  30.432   2.7920  0.00  0.00     0.000 O
ATOM     20   O  Z9H D   1      19.301  28.109   2.3650  0.00  0.00     0.000 OA
ATOM     21   O  Z9H D   1      20.412  29.956   1.5450  0.00  0.00     0.000 OA
ENDBRANCH 5 16
BRANCH 1 22
ATOM     22  O4  GU1 D   2      23.169  31.216   7.2930  0.00  0.00     0.000 O
BRANCH 22 26
ATOM     23  C1  GU1 D   2      26.984  29.696   7.6220  0.00  0.00     0.000 C
ATOM     24  C2  GU1 D   2      26.904  31.109   7.0640  0.00  0.00     0.000 C
ATOM     25  C3  GU1 D   2      25.545  31.680   7.3490  0.00  0.00     0.000 C
ATOM     26  C4  GU1 D   2      24.449  30.750   6.8490  0.00  0.00     0.000 C
ATOM     27  C5  GU1 D   2      24.680  29.333   7.3830  0.00  0.00     0.000 C
ATOM     28  O5  GU1 D   2      25.983  28.874   7.0320  0.00  0.00     0.000 O
ATOM     29   O  GU1 D   2      27.878  31.966   7.6480  0.00  0.00     0.000 O
ATOM     30   C  GU1 D   2      29.057  32.111   6.8690  0.00  0.00     0.000 C
ATOM     31   C  GU1 D   2      25.585  34.082   7.4940  0.00  0.00     0.000 C
ATOM     32   O  GU1 D   2      25.429  32.932   6.6660  0.00  0.00     0.000 O
BRANCH 27 33
ATOM     33   C  GU1 D   2      23.677  28.362   6.8070  0.00  0.00     0.000 C
ATOM     34   O  GU1 D   2      22.871  27.851   7.5570  0.00  0.00     0.000 OA
ATOM     35   O  GU1 D   2      23.677  28.103   5.6130  0.00  0.00     0.000 O
ENDBRANCH 27 33
BRANCH 23 36
ATOM     36  O4  GU6 D   3      28.090  28.842   7.2680  0.00  0.00     0.000 O
BRANCH 36 40
ATOM     37  C1  GU6 D   3      30.540  25.794   6.0850  0.00  0.00     0.000 C
ATOM     38  C2  GU6 D   3      30.793  26.273   7.5090  0.00  0.00     0.000 C
ATOM     39  C3  GU6 D   3      29.678  27.192   7.9380  0.00  0.00     0.000 C
ATOM     40  C4  GU6 D   3      28.725  27.631   6.9120  0.00  0.00     0.000 C
ATOM     41  C5  GU6 D   3      29.483  27.884   5.5680  0.00  0.00     0.000 C
ATOM     42  O5  GU6 D   3      30.492  26.926   5.2290  0.00  0.00     0.000 O
BRANCH 38 43
ATOM     43   O  GU6 D   3      30.880  25.174   8.3960  0.00  0.00     0.000 O
ATOM     44   S  GU6 D   3      32.301  24.702   8.6740  0.00  0.00     0.000 S
ATOM     45   O  GU6 D   3      32.731  23.833   7.5650  0.00  0.00     0.000 OA
ATOM     46   O  GU6 D   3      33.184  25.880   8.7430  0.00  0.00     0.000 O
ATOM     47   O  GU6 D   3      32.318  23.988   9.9470  0.00  0.00     0.000 OA
ENDBRANCH 38 43
BRANCH 39 48
ATOM     48   O  GU6 D   3      29.422  27.434   9.3080  0.00  0.00     0.000 O
ATOM     49   S  GU6 D   3      30.075  28.429  10.2660  0.00  0.00     0.000 S
ATOM     50   O  GU6 D   3      29.984  29.789   9.7230  0.00  0.00     0.000 OA
ATOM     51   O  GU6 D   3      29.271  28.291  11.4880  0.00  0.00     0.000 OA
ATOM     52   O  GU6 D   3      31.494  28.054  10.4560  0.00  0.00     0.000 O
ENDBRANCH 39 48
BRANCH 41 53
ATOM     53   C  GU6 D   3      29.291  28.991   4.5660  0.00  0.00     0.000 C
ATOM     54   O  GU6 D   3      28.472  28.292   3.6640  0.00  0.00     0.000 O
ATOM     55   S  GU6 D   3      28.047  28.937   2.3390  0.00  0.00     0.000 S
ATOM     56   O  GU6 D   3      29.277  29.101   1.5290  0.00  0.00     0.000 O
ATOM     57   O  GU6 D   3      27.098  28.040   1.6640  0.00  0.00     0.000 OA
ATOM     58   O  GU6 D   3      27.444  30.249   2.6620  0.00  0.00     0.000 OA
ENDBRANCH 41 53
BRANCH 37 59
ATOM     59  O4  Z9K D   4      29.474  24.908   5.6850  0.00  0.00     0.000 O
BRANCH 59 63
ATOM     60  C1  Z9K D   4      30.737  21.215   6.1490  0.00  0.00     0.000 C
ATOM     61  C2  Z9K D   4      31.323  21.560   4.7520  0.00  0.00     0.000 C
ATOM     62  C3  Z9K D   4      30.969  23.107   4.6500  0.00  0.00     0.000 C
ATOM     63  C4  Z9K D   4      29.526  23.593   5.0590  0.00  0.00     0.000 C
ATOM     64  C5  Z9K D   4      28.781  22.714   6.0760  0.00  0.00     0.000 C
ATOM     65  O5  Z9K D   4      29.858  22.183   6.8920  0.00  0.00     0.000 O
ATOM     66   O  Z9K D   4      31.185  23.655   3.3380  0.00  0.00     0.000 O
ATOM     67   C  Z9K D   4      32.515  24.085   3.0940  0.00  0.00     0.000 C
BRANCH 61 68
ATOM     68   O  Z9K D   4      32.718  21.482   4.8600  0.00  0.00     0.000 O
ATOM     69   O  Z9K D   4      31.931  20.803   2.5210  0.00  0.00     0.000 OA
ATOM     70   S  Z9K D   4      32.400  20.315   3.7830  0.00  0.00     0.000 S
ATOM     71   O  Z9K D   4      31.897  19.168   4.4750  0.00  0.00     0.000 OA
ATOM     72   O  Z9K D   4      33.826  20.309   3.8300  0.00  0.00     0.000 OA
ENDBRANCH 61 68
BRANCH 64 73
ATOM     73   C  Z9K D   4      27.652  23.509   6.7650  0.00  0.00     0.000 C
ATOM     74   O  Z9K D   4      27.767  23.912   7.9590  0.00  0.00     0.000 O
ATOM     75   O  Z9K D   4      26.583  23.791   6.1690  0.00  0.00     0.000 OA
ENDBRANCH 64 73
BRANCH 60 76
ATOM     76  O4  Z9L D   5      29.985  20.054   6.5410  0.00  0.00     0.000 O
BRANCH 76 80
ATOM     77  C1  Z9L D   5      29.533  17.236   9.3380  0.00  0.00     0.000 C
ATOM     78  C2  Z9L D   5      28.225  18.162   9.3890  0.00  0.00     0.000 C
ATOM     79  C3  Z9L D   5      28.196  19.041   7.9440  0.00  0.00     0.000 C
ATOM     80  C4  Z9L D   5      29.782  19.460   7.7970  0.00  0.00     0.000 C
ATOM     81  C5  Z9L D   5      31.125  18.584   7.9720  0.00  0.00     0.000 C
ATOM     82  O5  Z9L D   5      30.911  17.742   9.1140  0.00  0.00     0.000 O
ATOM     83   C  Z9L D   5      30.370  15.214   8.2880  0.00  0.00     0.000 C
ATOM     84   C  Z9L D   5      30.370  15.214   8.2880  0.00  0.00     0.000 C
BRANCH 78 85
ATOM     85   O  Z9L D   5      27.109  17.331   9.4400  0.00  0.00     0.000 O
ATOM     86   O  Z9L D   5      25.953  17.124  10.9670  0.00  0.00     0.000 OA
ATOM     87   S  Z9L D   5      27.024  18.068  10.8660  0.00  0.00     0.000 S
ATOM     88   O  Z9L D   5      26.382  19.359  10.8160  0.00  0.00     0.000 OA
ATOM     89   O  Z9L D   5      27.973  17.664  11.8460  0.00  0.00     0.000 OA
ENDBRANCH 78 85
BRANCH 79 90
ATOM     90   O  Z9L D   5      27.571  20.273   8.1130  0.00  0.00     0.000 O
ATOM     91   S  Z9L D   5      26.619  19.641   7.0030  0.00  0.00     0.000 S
ATOM     92   O  Z9L D   5      25.955  18.378   7.1870  0.00  0.00     0.000 OA
ATOM     93   O  Z9L D   5      27.062  20.063   5.6980  0.00  0.00     0.000 O
ATOM     94   O  Z9L D   5      25.745  20.654   7.5000  0.00  0.00     0.000 OA
ENDBRANCH 79 90
BRANCH 81 95
ATOM     95   C  Z9L D   5      32.590  19.388   7.8340  0.00  0.00     0.000 C
ATOM     96   S  Z9L D   5      34.060  20.275   8.8450  0.00  0.00     0.000 S
ATOM     97   O  Z9L D   5      32.496  20.166   8.9970  0.00  0.00     0.000 O
ATOM     98   O  Z9L D   5      34.307  21.152   7.7290  0.00  0.00     0.000 OA
ATOM     99   O  Z9L D   5      34.784  19.059   9.0060  0.00  0.00     0.000 OA
ATOM    100   O  Z9L D   5      33.900  21.080  10.0300  0.00  0.00     0.000 O
ENDBRANCH 81 95
ENDBRANCH 76 80
ENDBRANCH 60 76
ENDBRANCH 59 63
ENDBRANCH 37 59
ENDBRANCH 36 40
ENDBRANCH 23 36
ENDBRANCH 22 26
ENDBRANCH 1 22
TORSDOF 19
ENDMDL
MODEL 19
REMARK VINA RESULT:      -3.7      7.809     11.578
ROOT
ATOM      1  C1  Z9H D   1      22.524  36.061   6.3300  0.00  0.00     0.000 C
ATOM      2  C2  Z9H D   1      21.490  35.007   6.7910  0.00  0.00     0.000 C
ATOM      3  C3  Z9H D   1      22.461  34.067   7.5680  0.00  0.00     0.000 C
ATOM      4  C4  Z9H D   1      23.763  33.630   6.7760  0.00  0.00     0.000 C
ATOM      5  C5  Z9H D   1      24.677  34.651   5.9870  0.00  0.00     0.000 C
ATOM      6  O5  Z9H D   1      23.710  35.656   5.5910  0.00  0.00     0.000 O
ATOM      7   O  Z9H D   1      21.784  32.918   8.0820  0.00  0.00     0.000 O
ATOM      8   C  Z9H D   1      21.401  32.997   9.4650  0.00  0.00     0.000 C
ATOM      9   O  Z9H D   1      24.596  32.969   7.7330  0.00  0.00     0.000 O
ATOM     10   C  Z9H D   1      24.548  31.539   7.7100  0.00  0.00     0.000 C
ENDROOT
BRANCH 2 11
ATOM     11   O  Z9H D   1      20.784  35.705   7.7830  0.00  0.00     0.000 O
ATOM     12   O  Z9H D   1      18.983  36.244   7.6230  0.00  0.00     0.000 OA
ATOM     13   S  Z9H D   1      19.697  35.494   6.6440  0.00  0.00     0.000 S
ATOM     14   O  Z9H D   1      19.345  34.103   6.6090  0.00  0.00     0.000 OA
ATOM     15   O  Z9H D   1      19.972  36.311   5.4850  0.00  0.00     0.000 O
ENDBRANCH 2 11
BRANCH 5 16
ATOM     16   C  Z9H D   1      25.717  33.957   4.8750  0.00  0.00     0.000 C
ATOM     17   S  Z9H D   1      27.624  33.416   4.5440  0.00  0.00     0.000 S
ATOM     18   O  Z9H D   1      26.599  33.350   5.7890  0.00  0.00     0.000 O
ATOM     19   O  Z9H D   1      28.034  34.739   4.1700  0.00  0.00     0.000 O
ATOM     20   O  Z9H D   1      27.314  32.400   3.5990  0.00  0.00     0.000 OA
ATOM     21   O  Z9H D   1      28.492  32.845   5.5320  0.00  0.00     0.000 OA
ENDBRANCH 5 16
BRANCH 1 22
ATOM     22  O4  GU1 D   2      23.141  36.840   7.4180  0.00  0.00     0.000 O
BRANCH 22 26
ATOM     23  C1  GU1 D   2      24.648  40.514   8.5160  0.00  0.00     0.000 C
ATOM     24  C2  GU1 D   2      23.425  40.568   7.6130  0.00  0.00     0.000 C
ATOM     25  C3  GU1 D   2      22.756  39.224   7.6010  0.00  0.00     0.000 C
ATOM     26  C4  GU1 D   2      23.747  38.126   7.2430  0.00  0.00     0.000 C
ATOM     27  C5  GU1 D   2      24.985  38.224   8.1390  0.00  0.00     0.000 C
ATOM     28  O5  GU1 D   2      25.561  39.525   8.0530  0.00  0.00     0.000 O
ATOM     29   O  GU1 D   2      22.478  41.532   8.0580  0.00  0.00     0.000 O
ATOM     30   C  GU1 D   2      22.578  42.785   7.3950  0.00  0.00     0.000 C
ATOM     31   C  GU1 D   2      20.400  39.391   7.1360  0.00  0.00     0.000 C
ATOM     32   O  GU1 D   2      21.719  39.245   6.6150  0.00  0.00     0.000 O
BRANCH 27 33
ATOM     33   C  GU1 D   2      26.038  37.224   7.7270  0.00  0.00     0.000 C
ATOM     34   O  GU1 D   2      26.268  36.289   8.4670  0.00  0.00     0.000 OA
ATOM     35   O  GU1 D   2      26.639  37.353   6.6720  0.00  0.00     0.000 O
ENDBRANCH 27 33
BRANCH 23 36
ATOM     36  O4  GU6 D   3      25.599  41.597   8.5070  0.00  0.00     0.000 O
BRANCH 36 40
ATOM     37  C1  GU6 D   3      27.617  45.105   7.9460  0.00  0.00     0.000 C
ATOM     38  C2  GU6 D   3      28.411  43.866   7.5550  0.00  0.00     0.000 C
ATOM     39  C3  GU6 D   3      27.500  42.666   7.5390  0.00  0.00     0.000 C
ATOM     40  C4  GU6 D   3      26.149  42.829   8.0880  0.00  0.00     0.000 C
ATOM     41  C5  GU6 D   3      26.204  43.761   9.3430  0.00  0.00     0.000 C
ATOM     42  O5  GU6 D   3      27.066  44.900   9.2380  0.00  0.00     0.000 O
BRANCH 38 43
ATOM     43   O  GU6 D   3      29.006  44.037   6.2830  0.00  0.00     0.000 O
ATOM     44   S  GU6 D   3      30.515  43.824   6.2610  0.00  0.00     0.000 S
ATOM     45   O  GU6 D   3      31.169  45.059   6.7250  0.00  0.00     0.000 OA
ATOM     46   O  GU6 D   3      30.848  42.719   7.1770  0.00  0.00     0.000 O
ATOM     47   O  GU6 D   3      30.921  43.486   4.9000  0.00  0.00     0.000 OA
ENDBRANCH 38 43
BRANCH 39 48
ATOM     48   O  GU6 D   3      27.846  41.501   6.8150  0.00  0.00     0.000 O
ATOM     49   S  GU6 D   3      27.480  41.086   5.3910  0.00  0.00     0.000 S
ATOM     50   O  GU6 D   3      27.880  42.131   4.4410  0.00  0.00     0.000 OA
ATOM     51   O  GU6 D   3      28.263  39.859   5.1900  0.00  0.00     0.000 OA
ATOM     52   O  GU6 D   3      26.019  40.865   5.3160  0.00  0.00     0.000 O
ENDBRANCH 39 48
BRANCH 41 53
ATOM     53   C  GU6 D   3      25.464  43.637  10.6480  0.00  0.00     0.000 C
ATOM     54   O  GU6 D   3      24.197  44.030  10.1870  0.00  0.00     0.000 O
ATOM     55   S  GU6 D   3      23.029  44.197  11.1680  0.00  0.00     0.000 S
ATOM     56   O  GU6 D   3      23.371  45.337  12.0490  0.00  0.00     0.000 O
ATOM     57   O  GU6 D   3      21.809  44.481  10.3990  0.00  0.00     0.000 OA
ATOM     58   O  GU6 D   3      22.922  42.939  11.9410  0.00  0.00     0.000 OA
ENDBRANCH 41 53
BRANCH 37 59
ATOM     59  O4  Z9K D   4      26.595  45.724   7.1370  0.00  0.00     0.000 O
BRANCH 59 63
ATOM     60  C1  Z9K D   4      25.023  47.841   4.2220  0.00  0.00     0.000 C
ATOM     61  C2  Z9K D   4      26.532  48.170   4.0530  0.00  0.00     0.000 C
ATOM     62  C3  Z9K D   4      27.178  47.173   5.1100  0.00  0.00     0.000 C
ATOM     63  C4  Z9K D   4      26.537  47.055   6.5460  0.00  0.00     0.000 C
ATOM     64  C5  Z9K D   4      25.042  47.395   6.6470  0.00  0.00     0.000 C
ATOM     65  O5  Z9K D   4      24.529  46.981   5.3540  0.00  0.00     0.000 O
ATOM     66   O  Z9K D   4      28.575  47.424   5.3490  0.00  0.00     0.000 O
ATOM     67   C  Z9K D   4      29.449  46.795   4.4270  0.00  0.00     0.000 C
BRANCH 61 68
ATOM     68   O  Z9K D   4      26.915  47.705   2.7880  0.00  0.00     0.000 O
ATOM     69   O  Z9K D   4      28.196  49.828   3.4210  0.00  0.00     0.000 OA
ATOM     70   S  Z9K D   4      27.121  49.304   2.6340  0.00  0.00     0.000 S
ATOM     71   O  Z9K D   4      25.844  49.922   2.4440  0.00  0.00     0.000 OA
ATOM     72   O  Z9K D   4      27.600  48.810   1.3830  0.00  0.00     0.000 OA
ENDBRANCH 61 68
BRANCH 64 73
ATOM     73   C  Z9K D   4      24.425  46.781   7.9210  0.00  0.00     0.000 C
ATOM     74   O  Z9K D   4      23.536  45.883   7.8520  0.00  0.00     0.000 O
ATOM     75   O  Z9K D   4      24.782  47.142   9.0700  0.00  0.00     0.000 OA
ENDBRANCH 64 73
BRANCH 60 76
ATOM     76  O4  Z9L D   5      23.909  48.749   4.2750  0.00  0.00     0.000 O
BRANCH 76 80
ATOM     77  C1  Z9L D   5      20.092  49.249   3.2050  0.00  0.00     0.000 C
ATOM     78  C2  Z9L D   5      20.134  49.249   4.8080  0.00  0.00     0.000 C
ATOM     79  C3  Z9L D   5      21.746  49.501   5.2520  0.00  0.00     0.000 C
ATOM     80  C4  Z9L D   5      22.526  48.529   4.1740  0.00  0.00     0.000 C
ATOM     81  C5  Z9L D   5      22.333  48.351   2.5830  0.00  0.00     0.000 C
ATOM     82  O5  Z9L D   5      20.918  48.366   2.3430  0.00  0.00     0.000 O
ATOM     83   C  Z9L D   5      20.197  50.773   1.3180  0.00  0.00     0.000 C
ATOM     84   C  Z9L D   5      20.197  50.773   1.3180  0.00  0.00     0.000 C
BRANCH 78 85
ATOM     85   O  Z9L D   5      19.364  50.317   5.2610  0.00  0.00     0.000 O
ATOM     86   O  Z9L D   5      17.734  50.154   6.2750  0.00  0.00     0.000 OA
ATOM     87   S  Z9L D   5      18.594  49.068   5.9160  0.00  0.00     0.000 S
ATOM     88   O  Z9L D   5      19.168  48.619   7.1600  0.00  0.00     0.000 OA
ATOM     89   O  Z9L D   5      17.827  48.261   5.0300  0.00  0.00     0.000 OA
ENDBRANCH 78 85
BRANCH 79 90
ATOM     90   O  Z9L D   5      22.038  48.896   6.4710  0.00  0.00     0.000 O
ATOM     91   S  Z9L D   5      22.440  50.398   6.8150  0.00  0.00     0.000 S
ATOM     92   O  Z9L D   5      21.521  51.495   6.6680  0.00  0.00     0.000 OA
ATOM     93   O  Z9L D   5      23.852  50.578   6.5870  0.00  0.00     0.000 O
ATOM     94   O  Z9L D   5      22.289  49.895   8.1420  0.00  0.00     0.000 OA
ENDBRANCH 79 90
BRANCH 81 95
ATOM     95   C  Z9L D   5      23.261  47.179   1.8220  0.00  0.00     0.000 C
ATOM     96   S  Z9L D   5      23.307  45.282   1.2180  0.00  0.00     0.000 S
ATOM     97   O  Z9L D   5      22.709  46.054   2.4520  0.00  0.00     0.000 O
ATOM     98   O  Z9L D   5      24.736  45.251   1.4010  0.00  0.00     0.000 OA
ATOM     99   O  Z9L D   5      22.729  45.591  -0.0460  0.00  0.00     0.000 OA
ATOM    100   O  Z9L D   5      22.734  44.160   1.9200  0.00  0.00     0.000 O
ENDBRANCH 81 95
ENDBRANCH 76 80
ENDBRANCH 60 76
ENDBRANCH 59 63
ENDBRANCH 37 59
ENDBRANCH 36 40
ENDBRANCH 23 36
ENDBRANCH 22 26
ENDBRANCH 1 22
TORSDOF 19
ENDMDL
MODEL 20
REMARK VINA RESULT:      -3.7      6.082     11.348
ROOT
ATOM      1  C1  Z9H D   1      28.823  36.824   5.9500  0.00  0.00     0.000 C
ATOM      2  C2  Z9H D   1      29.669  37.637   4.9410  0.00  0.00     0.000 C
ATOM      3  C3  Z9H D   1      29.631  36.627   3.7540  0.00  0.00     0.000 C
ATOM      4  C4  Z9H D   1      30.020  35.134   4.1190  0.00  0.00     0.000 C
ATOM      5  C5  Z9H D   1      29.427  34.367   5.3670  0.00  0.00     0.000 C
ATOM      6  O5  Z9H D   1      29.194  35.460   6.2910  0.00  0.00     0.000 O
ATOM      7   O  Z9H D   1      30.409  37.086   2.6460  0.00  0.00     0.000 O
ATOM      8   C  Z9H D   1      29.665  37.725   1.5950  0.00  0.00     0.000 C
ATOM      9   O  Z9H D   1      29.710  34.356   2.9580  0.00  0.00     0.000 O
ATOM     10   C  Z9H D   1      30.818  34.048   2.1070  0.00  0.00     0.000 C
ENDROOT
BRANCH 2 11
ATOM     11   O  Z9H D   1      28.784  38.663   4.5770  0.00  0.00     0.000 O
ATOM     12   O  Z9H D   1      29.074  40.492   4.9380  0.00  0.00     0.000 OA
ATOM     13   S  Z9H D   1      29.986  39.446   5.2590  0.00  0.00     0.000 S
ATOM     14   O  Z9H D   1      31.122  39.378   4.3850  0.00  0.00     0.000 OA
ATOM     15   O  Z9H D   1      30.022  39.229   6.6870  0.00  0.00     0.000 O
ENDBRANCH 2 11
BRANCH 5 16
ATOM     16   C  Z9H D   1      30.276  33.002   5.8300  0.00  0.00     0.000 C
ATOM     17   S  Z9H D   1      31.933  31.917   5.4820  0.00  0.00     0.000 S
ATOM     18   O  Z9H D   1      31.573  33.488   5.5780  0.00  0.00     0.000 O
ATOM     19   O  Z9H D   1      31.366  31.238   4.3530  0.00  0.00     0.000 O
ATOM     20   O  Z9H D   1      31.997  31.348   6.7830  0.00  0.00     0.000 OA
ATOM     21   O  Z9H D   1      33.221  32.472   5.1830  0.00  0.00     0.000 OA
ENDBRANCH 5 16
BRANCH 1 22
ATOM     22  O4  GU1 D   2      27.415  36.630   5.5610  0.00  0.00     0.000 O
BRANCH 22 26
ATOM     23  C1  GU1 D   2      23.533  36.581   6.9380  0.00  0.00     0.000 C
ATOM     24  C2  GU1 D   2      24.456  37.550   7.6610  0.00  0.00     0.000 C
ATOM     25  C3  GU1 D   2      25.698  37.757   6.8440  0.00  0.00     0.000 C
ATOM     26  C4  GU1 D   2      26.345  36.425   6.4910  0.00  0.00     0.000 C
ATOM     27  C5  GU1 D   2      25.308  35.488   5.8650  0.00  0.00     0.000 C
ATOM     28  O5  GU1 D   2      24.187  35.334   6.7320  0.00  0.00     0.000 O
ATOM     29   O  GU1 D   2      23.842  38.817   7.8660  0.00  0.00     0.000 O
ATOM     30   C  GU1 D   2      23.260  38.973   9.1520  0.00  0.00     0.000 C
ATOM     31   C  GU1 D   2      26.707  39.902   7.2590  0.00  0.00     0.000 C
ATOM     32   O  GU1 D   2      26.625  38.525   7.6180  0.00  0.00     0.000 O
BRANCH 27 33
ATOM     33   C  GU1 D   2      25.891  34.117   5.6150  0.00  0.00     0.000 C
ATOM     34   O  GU1 D   2      25.977  33.727   4.4690  0.00  0.00     0.000 OA
ATOM     35   O  GU1 D   2      26.268  33.424   6.5460  0.00  0.00     0.000 O
ENDBRANCH 27 33
BRANCH 23 36
ATOM     36  O4  GU6 D   3      22.390  36.027   7.6210  0.00  0.00     0.000 O
BRANCH 36 40
ATOM     37  C1  GU6 D   3      19.418  35.172  10.2900  0.00  0.00     0.000 C
ATOM     38  C2  GU6 D   3      19.948  33.954   9.5440  0.00  0.00     0.000 C
ATOM     39  C3  GU6 D   3      21.204  34.326   8.8000  0.00  0.00     0.000 C
ATOM     40  C4  GU6 D   3      21.559  35.747   8.7290  0.00  0.00     0.000 C
ATOM     41  C5  GU6 D   3      20.260  36.602   8.5580  0.00  0.00     0.000 C
ATOM     42  O5  GU6 D   3      19.136  36.194   9.3460  0.00  0.00     0.000 O
BRANCH 38 43
ATOM     43   O  GU6 D   3      20.215  32.896  10.4450  0.00  0.00     0.000 O
ATOM     44   S  GU6 D   3      19.073  31.901  10.6020  0.00  0.00     0.000 S
ATOM     45   O  GU6 D   3      18.096  32.455  11.5540  0.00  0.00     0.000 OA
ATOM     46   O  GU6 D   3      18.427  31.714   9.2890  0.00  0.00     0.000 O
ATOM     47   O  GU6 D   3      19.617  30.632  11.0760  0.00  0.00     0.000 OA
ENDBRANCH 38 43
BRANCH 39 48
ATOM     48   O  GU6 D   3      22.126  33.333   8.3910  0.00  0.00     0.000 O
ATOM     49   S  GU6 D   3      22.098  32.413   7.1710  0.00  0.00     0.000 S
ATOM     50   O  GU6 D   3      21.978  33.205   5.9420  0.00  0.00     0.000 OA
ATOM     51   O  GU6 D   3      23.398  31.731   7.2390  0.00  0.00     0.000 OA
ATOM     52   O  GU6 D   3      20.948  31.490   7.2930  0.00  0.00     0.000 O
ENDBRANCH 39 48
BRANCH 41 53
ATOM     53   C  GU6 D   3      20.027  37.809   7.6900  0.00  0.00     0.000 C
ATOM     54   O  GU6 D   3      19.512  37.140   6.5670  0.00  0.00     0.000 O
ATOM     55   S  GU6 D   3      19.193  37.911   5.2800  0.00  0.00     0.000 S
ATOM     56   O  GU6 D   3      20.485  38.402   4.7450  0.00  0.00     0.000 O
ATOM     57   O  GU6 D   3      18.553  36.991   4.3290  0.00  0.00     0.000 OA
ATOM     58   O  GU6 D   3      18.308  39.038   5.6510  0.00  0.00     0.000 OA
ENDBRANCH 41 53
BRANCH 37 59
ATOM     59  O4  Z9K D   4      20.062  35.798  11.4200  0.00  0.00     0.000 O
BRANCH 59 63
ATOM     60  C1  Z9K D   4      18.661  34.067  14.6590  0.00  0.00     0.000 C
ATOM     61  C2  Z9K D   4      17.572  35.144  14.3970  0.00  0.00     0.000 C
ATOM     62  C3  Z9K D   4      18.044  35.716  12.9910  0.00  0.00     0.000 C
ATOM     63  C4  Z9K D   4      19.570  36.045  12.7690  0.00  0.00     0.000 C
ATOM     64  C5  Z9K D   4      20.564  35.254  13.6320  0.00  0.00     0.000 C
ATOM     65  O5  Z9K D   4      19.895  33.976  13.8030  0.00  0.00     0.000 O
ATOM     66   O  Z9K D   4      17.347  36.912  12.6000  0.00  0.00     0.000 O
ATOM     67   C  Z9K D   4      16.114  36.682  11.9370  0.00  0.00     0.000 C
BRANCH 61 68
ATOM     68   O  Z9K D   4      16.369  34.465  14.1620  0.00  0.00     0.000 O
ATOM     69   O  Z9K D   4      15.953  36.712  15.3140  0.00  0.00     0.000 OA
ATOM     70   S  Z9K D   4      16.027  35.295  15.5100  0.00  0.00     0.000 S
ATOM     71   O  Z9K D   4      16.627  34.636  16.6290  0.00  0.00     0.000 OA
ATOM     72   O  Z9K D   4      14.778  34.673  15.2060  0.00  0.00     0.000 OA
ENDBRANCH 61 68
BRANCH 64 73
ATOM     73   C  Z9K D   4      21.974  35.275  13.0060  0.00  0.00     0.000 C
ATOM     74   O  Z9K D   4      22.474  34.237  12.4820  0.00  0.00     0.000 O
ATOM     75   O  Z9K D   4      22.673  36.318  12.9850  0.00  0.00     0.000 OA
ENDBRANCH 64 73
BRANCH 60 76
ATOM     76  O4  Z9L D   5      19.350  33.772  15.8850  0.00  0.00     0.000 O
BRANCH 76 80
ATOM     77  C1  Z9L D   5      20.624  30.857  18.3050  0.00  0.00     0.000 C
ATOM     78  C2  Z9L D   5      21.927  31.554  17.6830  0.00  0.00     0.000 C
ATOM     79  C3  Z9L D   5      21.427  33.040  17.0470  0.00  0.00     0.000 C
ATOM     80  C4  Z9L D   5      20.010  32.612  16.3220  0.00  0.00     0.000 C
ATOM     81  C5  Z9L D   5      18.783  31.712  16.8560  0.00  0.00     0.000 C
ATOM     82  O5  Z9L D   5      19.369  30.602  17.5520  0.00  0.00     0.000 O
ATOM     83   C  Z9L D   5      19.150  30.994  20.2290  0.00  0.00     0.000 C
ATOM     84   C  Z9L D   5      19.150  30.994  20.2290  0.00  0.00     0.000 C
BRANCH 78 85
ATOM     85   O  Z9L D   5      22.830  31.782  18.7180  0.00  0.00     0.000 O
ATOM     86   O  Z9L D   5      24.507  30.862  18.9460  0.00  0.00     0.000 OA
ATOM     87   S  Z9L D   5      23.636  30.722  17.8190  0.00  0.00     0.000 S
ATOM     88   O  Z9L D   5      24.351  31.318  16.7170  0.00  0.00     0.000 OA
ATOM     89   O  Z9L D   5      23.179  29.376  17.8640  0.00  0.00     0.000 OA
ENDBRANCH 78 85
BRANCH 79 90
ATOM     90   O  Z9L D   5      22.217  33.420  15.9660  0.00  0.00     0.000 O
ATOM     91   S  Z9L D   5      22.483  34.653  16.9380  0.00  0.00     0.000 S
ATOM     92   O  Z9L D   5      22.987  34.485  18.2760  0.00  0.00     0.000 OA
ATOM     93   O  Z9L D   5      21.564  35.719  16.6210  0.00  0.00     0.000 O
ATOM     94   O  Z9L D   5      23.611  34.798  16.0760  0.00  0.00     0.000 OA
ENDBRANCH 79 90
BRANCH 81 95
ATOM     95   C  Z9L D   5      17.528  31.411  15.7850  0.00  0.00     0.000 C
ATOM     96   S  Z9L D   5      16.827  30.146  14.4140  0.00  0.00     0.000 S
ATOM     97   O  Z9L D   5      18.251  30.667  14.8410  0.00  0.00     0.000 O
ATOM     98   O  Z9L D   5      16.175  31.235  13.7330  0.00  0.00     0.000 OA
ATOM     99   O  Z9L D   5      16.140  29.360  15.3820  0.00  0.00     0.000 OA
ATOM    100   O  Z9L D   5      17.622  29.420  13.4550  0.00  0.00     0.000 O
ENDBRANCH 81 95
ENDBRANCH 76 80
ENDBRANCH 60 76
ENDBRANCH 59 63
ENDBRANCH 37 59
ENDBRANCH 36 40
ENDBRANCH 23 36
ENDBRANCH 22 26
ENDBRANCH 1 22
TORSDOF 19
ENDMDL
MODEL 21
REMARK VINA RESULT:      -3.6      6.056     10.476
ROOT
ATOM      1  C1  Z9H D   1      22.431  37.025   6.7890  0.00  0.00     0.000 C
ATOM      2  C2  Z9H D   1      21.802  35.635   7.0440  0.00  0.00     0.000 C
ATOM      3  C3  Z9H D   1      22.930  35.042   7.9420  0.00  0.00     0.000 C
ATOM      4  C4  Z9H D   1      24.399  35.171   7.3610  0.00  0.00     0.000 C
ATOM      5  C5  Z9H D   1      24.976  36.515   6.7610  0.00  0.00     0.000 C
ATOM      6  O5  Z9H D   1      23.774  37.137   6.2420  0.00  0.00     0.000 O
ATOM      7   O  Z9H D   1      22.657  33.688   8.3060  0.00  0.00     0.000 O
ATOM      8   C  Z9H D   1      22.081  33.504   9.6100  0.00  0.00     0.000 C
ATOM      9   O  Z9H D   1      25.273  34.772   8.4220  0.00  0.00     0.000 O
ATOM     10   C  Z9H D   1      25.758  33.427   8.3500  0.00  0.00     0.000 C
ENDROOT
BRANCH 2 11
ATOM     11   O  Z9H D   1      20.756  35.946   7.9280  0.00  0.00     0.000 O
ATOM     12   O  Z9H D   1      18.927  35.731   7.5220  0.00  0.00     0.000 OA
ATOM     13   S  Z9H D   1      19.998  35.375   6.6540  0.00  0.00     0.000 S
ATOM     14   O  Z9H D   1      20.240  33.963   6.5790  0.00  0.00     0.000 OA
ATOM     15   O  Z9H D   1      20.067  36.291   5.5380  0.00  0.00     0.000 O
ENDBRANCH 2 11
BRANCH 5 16
ATOM     16   C  Z9H D   1      26.344  36.338   5.8140  0.00  0.00     0.000 C
ATOM     17   S  Z9H D   1      28.257  36.915   5.5890  0.00  0.00     0.000 S
ATOM     18   O  Z9H D   1      27.304  36.512   6.8280  0.00  0.00     0.000 O
ATOM     19   O  Z9H D   1      27.908  38.145   4.9360  0.00  0.00     0.000 O
ATOM     20   O  Z9H D   1      28.668  35.750   4.8870  0.00  0.00     0.000 OA
ATOM     21   O  Z9H D   1      29.177  37.123   6.6680  0.00  0.00     0.000 OA
ENDBRANCH 5 16
BRANCH 1 22
ATOM     22  O4  GU1 D   2      22.557  37.877   7.9850  0.00  0.00     0.000 O
BRANCH 22 26
ATOM     23  C1  GU1 D   2      22.186  41.701   9.4700  0.00  0.00     0.000 C
ATOM     24  C2  GU1 D   2      21.132  41.308   8.4470  0.00  0.00     0.000 C
ATOM     25  C3  GU1 D   2      21.137  39.816   8.2770  0.00  0.00     0.000 C
ATOM     26  C4  GU1 D   2      22.535  39.309   7.9580  0.00  0.00     0.000 C
ATOM     27  C5  GU1 D   2      23.535  39.846   8.9870  0.00  0.00     0.000 C
ATOM     28  O5  GU1 D   2      23.474  41.268   9.0470  0.00  0.00     0.000 O
ATOM     29   O  GU1 D   2      19.827  41.706   8.8470  0.00  0.00     0.000 O
ATOM     30   C  GU1 D   2      19.402  42.937   8.2800  0.00  0.00     0.000 C
ATOM     31   C  GU1 D   2      18.993  38.980   7.5720  0.00  0.00     0.000 C
ATOM     32   O  GU1 D   2      20.270  39.483   7.1880  0.00  0.00     0.000 O
BRANCH 27 33
ATOM     33   C  GU1 D   2      24.950  39.458   8.6280  0.00  0.00     0.000 C
ATOM     34   O  GU1 D   2      25.438  39.924   7.6190  0.00  0.00     0.000 OA
ATOM     35   O  GU1 D   2      25.585  38.698   9.3420  0.00  0.00     0.000 O
ENDBRANCH 27 33
BRANCH 23 36
ATOM     36  O4  GU6 D   3      22.551  43.086   9.6330  0.00  0.00     0.000 O
BRANCH 36 40
ATOM     37  C1  GU6 D   3      22.434  47.157   9.9610  0.00  0.00     0.000 C
ATOM     38  C2  GU6 D   3      23.807  46.605   9.6000  0.00  0.00     0.000 C
ATOM     39  C3  GU6 D   3      23.686  45.147   9.2390  0.00  0.00     0.000 C
ATOM     40  C4  GU6 D   3      22.404  44.485   9.4990  0.00  0.00     0.000 C
ATOM     41  C5  GU6 D   3      21.804  45.017  10.8420  0.00  0.00     0.000 C
ATOM     42  O5  GU6 D   3      21.929  46.426  11.0680  0.00  0.00     0.000 O
BRANCH 38 43
ATOM     43   O  GU6 D   3      24.365  47.326   8.5180  0.00  0.00     0.000 O
ATOM     44   S  GU6 D   3      25.179  48.546   8.9280  0.00  0.00     0.000 S
ATOM     45   O  GU6 D   3      24.252  49.662   9.1850  0.00  0.00     0.000 OA
ATOM     46   O  GU6 D   3      25.916  48.227  10.1640  0.00  0.00     0.000 O
ATOM     47   O  GU6 D   3      26.115  48.869   7.8560  0.00  0.00     0.000 OA
ENDBRANCH 38 43
BRANCH 39 48
ATOM     48   O  GU6 D   3      24.684  44.505   8.4680  0.00  0.00     0.000 O
ATOM     49   S  GU6 D   3      26.072  44.011   8.8750  0.00  0.00     0.000 S
ATOM     50   O  GU6 D   3      25.967  43.093  10.0150  0.00  0.00     0.000 OA
ATOM     51   O  GU6 D   3      26.543  43.312   7.6720  0.00  0.00     0.000 OA
ATOM     52   O  GU6 D   3      26.908  45.177   9.2390  0.00  0.00     0.000 O
ENDBRANCH 39 48
BRANCH 41 53
ATOM     53   C  GU6 D   3      21.096  44.256  11.9310  0.00  0.00     0.000 C
ATOM     54   O  GU6 D   3      20.990  45.305  12.8590  0.00  0.00     0.000 O
ATOM     55   S  GU6 D   3      20.420  45.049  14.2600  0.00  0.00     0.000 S
ATOM     56   O  GU6 D   3      21.378  44.157  14.9550  0.00  0.00     0.000 O
ATOM     57   O  GU6 D   3      20.306  46.336  14.9620  0.00  0.00     0.000 OA
ATOM     58   O  GU6 D   3      19.107  44.388  14.0870  0.00  0.00     0.000 OA
ENDBRANCH 41 53
BRANCH 37 59
ATOM     59  O4  Z9K D   4      21.344  47.339   9.0330  0.00  0.00     0.000 O
BRANCH 59 63
ATOM     60  C1  Z9K D   4      18.976  48.468   6.1060  0.00  0.00     0.000 C
ATOM     61  C2  Z9K D   4      20.364  48.522   5.4090  0.00  0.00     0.000 C
ATOM     62  C3  Z9K D   4      21.292  47.891   6.5360  0.00  0.00     0.000 C
ATOM     63  C4  Z9K D   4      21.123  48.370   8.0280  0.00  0.00     0.000 C
ATOM     64  C5  Z9K D   4      19.737  48.910   8.4100  0.00  0.00     0.000 C
ATOM     65  O5  Z9K D   4      18.845  48.134   7.5670  0.00  0.00     0.000 O
ATOM     66   O  Z9K D   4      22.697  48.031   6.2590  0.00  0.00     0.000 O
ATOM     67   C  Z9K D   4      23.237  47.010   5.4360  0.00  0.00     0.000 C
BRANCH 61 68
ATOM     68   O  Z9K D   4      20.333  47.595   4.3590  0.00  0.00     0.000 O
ATOM     69   O  Z9K D   4      21.841  49.584   3.7940  0.00  0.00     0.000 OA
ATOM     70   S  Z9K D   4      20.558  48.990   3.5670  0.00  0.00     0.000 S
ATOM     71   O  Z9K D   4      19.312  49.691   3.4970  0.00  0.00     0.000 OA
ATOM     72   O  Z9K D   4      20.621  48.027   2.5160  0.00  0.00     0.000 OA
ENDBRANCH 61 68
BRANCH 64 73
ATOM     73   C  Z9K D   4      19.534  48.871   9.9390  0.00  0.00     0.000 C
ATOM     74   O  Z9K D   4      20.105  49.707  10.6980  0.00  0.00     0.000 O
ATOM     75   O  Z9K D   4      18.795  48.016  10.4860  0.00  0.00     0.000 OA
ENDBRANCH 64 73
BRANCH 60 76
ATOM     76  O4  Z9L D   5      17.945  49.469   6.1250  0.00  0.00     0.000 O
BRANCH 76 80
ATOM     77  C1  Z9L D   5      13.964  49.800   6.0050  0.00  0.00     0.000 C
ATOM     78  C2  Z9L D   5      14.469  50.662   7.2590  0.00  0.00     0.000 C
ATOM     79  C3  Z9L D   5      16.130  50.903   7.0450  0.00  0.00     0.000 C
ATOM     80  C4  Z9L D   5      16.602  49.411   6.5300  0.00  0.00     0.000 C
ATOM     81  C5  Z9L D   5      15.963  48.426   5.4240  0.00  0.00     0.000 C
ATOM     82  O5  Z9L D   5      14.540  48.492   5.5980  0.00  0.00     0.000 O
ATOM     83   C  Z9L D   5      13.456  50.030   3.6420  0.00  0.00     0.000 C
ATOM     84   C  Z9L D   5      13.456  50.030   3.6420  0.00  0.00     0.000 C
BRANCH 78 85
ATOM     85   O  Z9L D   5      13.822  51.894   7.2260  0.00  0.00     0.000 O
ATOM     86   O  Z9L D   5      12.421  52.441   8.4290  0.00  0.00     0.000 OA
ATOM     87   S  Z9L D   5      13.174  51.229   8.5380  0.00  0.00     0.000 S
ATOM     88   O  Z9L D   5      13.974  51.391   9.7260  0.00  0.00     0.000 OA
ATOM     89   O  Z9L D   5      12.235  50.183   8.3200  0.00  0.00     0.000 OA
ENDBRANCH 78 85
BRANCH 79 90
ATOM     90   O  Z9L D   5      16.786  51.023   8.2670  0.00  0.00     0.000 O
ATOM     91   S  Z9L D   5      17.229  52.395   7.5910  0.00  0.00     0.000 S
ATOM     92   O  Z9L D   5      16.275  53.354   7.0990  0.00  0.00     0.000 OA
ATOM     93   O  Z9L D   5      18.504  52.218   6.9420  0.00  0.00     0.000 O
ATOM     94   O  Z9L D   5      17.491  52.721   8.9550  0.00  0.00     0.000 OA
ENDBRANCH 79 90
BRANCH 81 95
ATOM     95   C  Z9L D   5      16.676  46.921   5.2310  0.00  0.00     0.000 C
ATOM     96   S  Z9L D   5      16.395  44.956   5.3940  0.00  0.00     0.000 S
ATOM     97   O  Z9L D   5      15.934  46.228   6.1990  0.00  0.00     0.000 O
ATOM     98   O  Z9L D   5      17.795  44.771   5.6760  0.00  0.00     0.000 OA
ATOM     99   O  Z9L D   5      15.884  44.842   4.0700  0.00  0.00     0.000 OA
ATOM    100   O  Z9L D   5      15.632  44.297   6.4260  0.00  0.00     0.000 O
ENDBRANCH 81 95
ENDBRANCH 76 80
ENDBRANCH 60 76
ENDBRANCH 59 63
ENDBRANCH 37 59
ENDBRANCH 36 40
ENDBRANCH 23 36
ENDBRANCH 22 26
ENDBRANCH 1 22
TORSDOF 19
ENDMDL
MODEL 22
REMARK VINA RESULT:      -3.5      9.053     13.038
ROOT
ATOM      1  C1  Z9H D   1      23.175  36.049   6.1900  0.00  0.00     0.000 C
ATOM      2  C2  Z9H D   1      22.106  35.110   6.7990  0.00  0.00     0.000 C
ATOM      3  C3  Z9H D   1      23.060  34.193   7.6240  0.00  0.00     0.000 C
ATOM      4  C4  Z9H D   1      24.294  33.603   6.8260  0.00  0.00     0.000 C
ATOM      5  C5  Z9H D   1      25.225  34.483   5.8990  0.00  0.00     0.000 C
ATOM      6  O5  Z9H D   1      24.298  35.501   5.4460  0.00  0.00     0.000 O
ATOM      7   O  Z9H D   1      22.344  33.144   8.2800  0.00  0.00     0.000 O
ATOM      8   C  Z9H D   1      22.035  33.381   9.6640  0.00  0.00     0.000 C
ATOM      9   O  Z9H D   1      25.135  32.988   7.8080  0.00  0.00     0.000 O
ATOM     10   C  Z9H D   1      25.005  31.569   7.9300  0.00  0.00     0.000 C
ENDROOT
BRANCH 2 11
ATOM     11   O  Z9H D   1      21.490  35.944   7.7450  0.00  0.00     0.000 O
ATOM     12   O  Z9H D   1      19.711  36.558   7.6180  0.00  0.00     0.000 OA
ATOM     13   S  Z9H D   1      20.333  35.674   6.6910  0.00  0.00     0.000 S
ATOM     14   O  Z9H D   1      19.913  34.308   6.8210  0.00  0.00     0.000 OA
ATOM     15   O  Z9H D   1      20.583  36.352   5.4390  0.00  0.00     0.000 O
ENDBRANCH 2 11
BRANCH 5 16
ATOM     16   C  Z9H D   1      26.168  33.621   4.8190  0.00  0.00     0.000 C
ATOM     17   S  Z9H D   1      28.052  33.080   4.3710  0.00  0.00     0.000 S
ATOM     18   O  Z9H D   1      27.174  33.222   5.7190  0.00  0.00     0.000 O
ATOM     19   O  Z9H D   1      28.353  34.320   3.7150  0.00  0.00     0.000 O
ATOM     20   O  Z9H D   1      27.689  31.897   3.6720  0.00  0.00     0.000 OA
ATOM     21   O  Z9H D   1      29.050  32.728   5.3380  0.00  0.00     0.000 OA
ENDBRANCH 5 16
BRANCH 1 22
ATOM     22  O4  GU1 D   2      23.886  36.892   7.1670  0.00  0.00     0.000 O
BRANCH 22 26
ATOM     23  C1  GU1 D   2      25.565  40.579   7.9170  0.00  0.00     0.000 C
ATOM     24  C2  GU1 D   2      24.189  40.622   7.2700  0.00  0.00     0.000 C
ATOM     25  C3  GU1 D   2      23.536  39.277   7.4000  0.00  0.00     0.000 C
ATOM     26  C4  GU1 D   2      24.442  38.178   6.8650  0.00  0.00     0.000 C
ATOM     27  C5  GU1 D   2      25.831  38.287   7.5020  0.00  0.00     0.000 C
ATOM     28  O5  GU1 D   2      26.374  39.587   7.2940  0.00  0.00     0.000 O
ATOM     29   O  GU1 D   2      23.344  41.589   7.8820  0.00  0.00     0.000 O
ATOM     30   C  GU1 D   2      23.308  42.835   7.2010  0.00  0.00     0.000 C
ATOM     31   C  GU1 D   2      21.134  39.434   7.4010  0.00  0.00     0.000 C
ATOM     32   O  GU1 D   2      22.327  39.286   6.6340  0.00  0.00     0.000 O
BRANCH 27 33
ATOM     33   C  GU1 D   2      26.787  37.284   6.9020  0.00  0.00     0.000 C
ATOM     34   O  GU1 D   2      27.286  36.452   7.6320  0.00  0.00     0.000 OA
ATOM     35   O  GU1 D   2      27.047  37.311   5.7090  0.00  0.00     0.000 O
ENDBRANCH 27 33
BRANCH 23 36
ATOM     36  O4  GU6 D   3      26.492  41.663   7.7140  0.00  0.00     0.000 O
BRANCH 36 40
ATOM     37  C1  GU6 D   3      28.318  45.189   6.7490  0.00  0.00     0.000 C
ATOM     38  C2  GU6 D   3      29.109  43.952   6.3430  0.00  0.00     0.000 C
ATOM     39  C3  GU6 D   3      28.242  42.728   6.4900  0.00  0.00     0.000 C
ATOM     40  C4  GU6 D   3      26.952  42.885   7.1710  0.00  0.00     0.000 C
ATOM     41  C5  GU6 D   3      27.108  43.889   8.3610  0.00  0.00     0.000 C
ATOM     42  O5  GU6 D   3      27.913  45.044   8.1020  0.00  0.00     0.000 O
BRANCH 38 43
ATOM     43   O  GU6 D   3      29.560  44.066   5.0070  0.00  0.00     0.000 O
ATOM     44   S  GU6 D   3      30.973  44.616   4.8650  0.00  0.00     0.000 S
ATOM     45   O  GU6 D   3      30.916  46.085   4.9640  0.00  0.00     0.000 OA
ATOM     46   O  GU6 D   3      31.798  44.083   5.9650  0.00  0.00     0.000 O
ATOM     47   O  GU6 D   3      31.517  44.190   3.5800  0.00  0.00     0.000 OA
ENDBRANCH 38 43
BRANCH 39 48
ATOM     48   O  GU6 D   3      28.550  41.533   5.7980  0.00  0.00     0.000 O
ATOM     49   S  GU6 D   3      29.626  40.486   6.0810  0.00  0.00     0.000 S
ATOM     50   O  GU6 D   3      29.497  39.986   7.4550  0.00  0.00     0.000 OA
ATOM     51   O  GU6 D   3      29.329  39.431   5.1020  0.00  0.00     0.000 OA
ATOM     52   O  GU6 D   3      30.958  41.102   5.8890  0.00  0.00     0.000 O
ENDBRANCH 39 48
BRANCH 41 53
ATOM     53   C  GU6 D   3      26.514  43.820   9.7420  0.00  0.00     0.000 C
ATOM     54   O  GU6 D   3      27.605  43.218  10.3890  0.00  0.00     0.000 O
ATOM     55   S  GU6 D   3      27.502  42.797  11.8610  0.00  0.00     0.000 S
ATOM     56   O  GU6 D   3      26.502  41.706  11.9240  0.00  0.00     0.000 O
ATOM     57   O  GU6 D   3      28.820  42.321  12.3050  0.00  0.00     0.000 OA
ATOM     58   O  GU6 D   3      27.048  43.980  12.6250  0.00  0.00     0.000 OA
ENDBRANCH 41 53
BRANCH 37 59
ATOM     59  O4  Z9K D   4      27.195  45.731   6.0210  0.00  0.00     0.000 O
BRANCH 59 63
ATOM     60  C1  Z9K D   4      24.648  46.967   3.2960  0.00  0.00     0.000 C
ATOM     61  C2  Z9K D   4      24.956  45.530   2.7900  0.00  0.00     0.000 C
ATOM     62  C3  Z9K D   4      25.838  44.972   3.9900  0.00  0.00     0.000 C
ATOM     63  C4  Z9K D   4      26.983  45.876   4.5870  0.00  0.00     0.000 C
ATOM     64  C5  Z9K D   4      26.793  47.393   4.4340  0.00  0.00     0.000 C
ATOM     65  O5  Z9K D   4      25.350  47.545   4.4930  0.00  0.00     0.000 O
ATOM     66   O  Z9K D   4      26.476  43.717   3.6900  0.00  0.00     0.000 O
ATOM     67   C  Z9K D   4      25.670  42.576   3.9340  0.00  0.00     0.000 C
BRANCH 61 68
ATOM     68   O  Z9K D   4      23.750  44.816   2.8230  0.00  0.00     0.000 O
ATOM     69   O  Z9K D   4      25.230  44.049   0.8810  0.00  0.00     0.000 OA
ATOM     70   S  Z9K D   4      24.087  44.834   1.2380  0.00  0.00     0.000 S
ATOM     71   O  Z9K D   4      23.756  46.120   0.7060  0.00  0.00     0.000 OA
ATOM     72   O  Z9K D   4      22.911  44.026   1.2940  0.00  0.00     0.000 OA
ENDBRANCH 61 68
BRANCH 64 73
ATOM     73   C  Z9K D   4      27.663  48.160   5.4520  0.00  0.00     0.000 C
ATOM     74   O  Z9K D   4      28.892  48.371   5.2380  0.00  0.00     0.000 O
ATOM     75   O  Z9K D   4      27.186  48.608   6.5240  0.00  0.00     0.000 OA
ENDBRANCH 64 73
BRANCH 60 76
ATOM     76  O4  Z9L D   5      24.659  48.198   2.5520  0.00  0.00     0.000 O
BRANCH 76 80
ATOM     77  C1  Z9L D   5      22.299  51.358   1.9100  0.00  0.00     0.000 C
ATOM     78  C2  Z9L D   5      23.770  51.923   2.2070  0.00  0.00     0.000 C
ATOM     79  C3  Z9L D   5      24.836  50.623   2.0220  0.00  0.00     0.000 C
ATOM     80  C4  Z9L D   5      23.997  49.418   2.7670  0.00  0.00     0.000 C
ATOM     81  C5  Z9L D   5      22.449  48.981   2.6490  0.00  0.00     0.000 C
ATOM     82  O5  Z9L D   5      21.688  50.197   2.6070  0.00  0.00     0.000 O
ATOM     83   C  Z9L D   5      20.881  50.676   0.0610  0.00  0.00     0.000 C
ATOM     84   C  Z9L D   5      20.881  50.676   0.0610  0.00  0.00     0.000 C
BRANCH 78 85
ATOM     85   O  Z9L D   5      24.061  52.893   1.2520  0.00  0.00     0.000 O
ATOM     86   O  Z9L D   5      24.216  54.780   1.6020  0.00  0.00     0.000 OA
ATOM     87   S  Z9L D   5      24.041  53.769   2.5990  0.00  0.00     0.000 S
ATOM     88   O  Z9L D   5      25.285  53.743   3.3280  0.00  0.00     0.000 OA
ATOM     89   O  Z9L D   5      22.763  54.022   3.1700  0.00  0.00     0.000 OA
ENDBRANCH 78 85
BRANCH 79 90
ATOM     90   O  Z9L D   5      25.954  50.764   2.8390  0.00  0.00     0.000 O
ATOM     91   S  Z9L D   5      26.674  50.609   1.4270  0.00  0.00     0.000 S
ATOM     92   O  Z9L D   5      26.383  51.475   0.3150  0.00  0.00     0.000 OA
ATOM     93   O  Z9L D   5      27.022  49.225   1.2180  0.00  0.00     0.000 O
ATOM     94   O  Z9L D   5      27.742  51.206   2.1610  0.00  0.00     0.000 OA
ENDBRANCH 79 90
BRANCH 81 95
ATOM     95   C  Z9L D   5      21.921  47.742   3.6480  0.00  0.00     0.000 C
ATOM     96   S  Z9L D   5      20.897  47.310   5.3010  0.00  0.00     0.000 S
ATOM     97   O  Z9L D   5      21.861  48.468   4.8450  0.00  0.00     0.000 O
ATOM     98   O  Z9L D   5      21.719  46.146   5.5140  0.00  0.00     0.000 OA
ATOM     99   O  Z9L D   5      19.659  47.224   4.6020  0.00  0.00     0.000 OA
ATOM    100   O  Z9L D   5      20.888  48.090   6.5130  0.00  0.00     0.000 O
ENDBRANCH 81 95
ENDBRANCH 76 80
ENDBRANCH 60 76
ENDBRANCH 59 63
ENDBRANCH 37 59
ENDBRANCH 36 40
ENDBRANCH 23 36
ENDBRANCH 22 26
ENDBRANCH 1 22
TORSDOF 19
ENDMDL
MODEL 23
REMARK VINA RESULT:      -3.3      9.095     15.484
ROOT
ATOM      1  C1  Z9H D   1      14.739  43.793  20.2910  0.00  0.00     0.000 C
ATOM      2  C2  Z9H D   1      14.323  43.219  21.6660  0.00  0.00     0.000 C
ATOM      3  C3  Z9H D   1      13.287  44.316  22.0600  0.00  0.00     0.000 C
ATOM      4  C4  Z9H D   1      13.797  45.811  21.9280  0.00  0.00     0.000 C
ATOM      5  C5  Z9H D   1      14.549  46.357  20.6500  0.00  0.00     0.000 C
ATOM      6  O5  Z9H D   1      15.220  45.161  20.1780  0.00  0.00     0.000 O
ATOM      7   O  Z9H D   1      12.749  44.088  23.3640  0.00  0.00     0.000 O
ATOM      8   C  Z9H D   1      11.466  43.440  23.3960  0.00  0.00     0.000 C
ATOM      9   O  Z9H D   1      12.642  46.634  22.1220  0.00  0.00     0.000 O
ATOM     10   C  Z9H D   1      12.493  47.189  23.4330  0.00  0.00     0.000 C
ENDROOT
BRANCH 2 11
ATOM     11   O  Z9H D   1      13.553  42.105  21.2970  0.00  0.00     0.000 O
ATOM     12   O  Z9H D   1      14.044  40.317  21.6420  0.00  0.00     0.000 OA
ATOM     13   S  Z9H D   1      14.791  41.457  22.0530  0.00  0.00     0.000 S
ATOM     14   O  Z9H D   1      14.672  41.756  23.4520  0.00  0.00     0.000 OA
ATOM     15   O  Z9H D   1      16.006  41.569  21.2800  0.00  0.00     0.000 O
ENDBRANCH 2 11
BRANCH 5 16
ATOM     16   C  Z9H D   1      15.383  47.790  20.8770  0.00  0.00     0.000 C
ATOM     17   S  Z9H D   1      15.977  49.130  22.2530  0.00  0.00     0.000 S
ATOM     18   O  Z9H D   1      15.881  47.521  22.1650  0.00  0.00     0.000 O
ATOM     19   O  Z9H D   1      14.713  49.809  22.2760  0.00  0.00     0.000 O
ATOM     20   O  Z9H D   1      17.098  49.595  21.5130  0.00  0.00     0.000 OA
ATOM     21   O  Z9H D   1      16.430  48.797  23.5710  0.00  0.00     0.000 OA
ENDBRANCH 5 16
BRANCH 1 22
ATOM     22  O4  GU1 D   2      13.672  43.800  19.2740  0.00  0.00     0.000 O
BRANCH 22 26
ATOM     23  C1  GU1 D   2      12.864  43.296  15.2660  0.00  0.00     0.000 C
ATOM     24  C2  GU1 D   2      14.023  42.464  15.7940  0.00  0.00     0.000 C
ATOM     25  C3  GU1 D   2      13.973  42.438  17.2940  0.00  0.00     0.000 C
ATOM     26  C4  GU1 D   2      13.908  43.848  17.8620  0.00  0.00     0.000 C
ATOM     27  C5  GU1 D   2      12.776  44.632  17.1910  0.00  0.00     0.000 C
ATOM     28  O5  GU1 D   2      12.935  44.623  15.7750  0.00  0.00     0.000 O
ATOM     29   O  GU1 D   2      13.974  41.123  15.3240  0.00  0.00     0.000 O
ATOM     30   C  GU1 D   2      14.789  40.882  14.1860  0.00  0.00     0.000 C
ATOM     31   C  GU1 D   2      14.995  40.455  18.1990  0.00  0.00     0.000 C
ATOM     32   O  GU1 D   2      15.164  41.806  17.7750  0.00  0.00     0.000 O
BRANCH 27 33
ATOM     33   C  GU1 D   2      12.763  46.071  17.6460  0.00  0.00     0.000 C
ATOM     34   O  GU1 D   2      13.632  46.814  17.2370  0.00  0.00     0.000 OA
ATOM     35   O  GU1 D   2      11.895  46.475  18.4040  0.00  0.00     0.000 O
ENDBRANCH 27 33
BRANCH 23 36
ATOM     36  O4  GU6 D   3      12.826  43.680  13.8770  0.00  0.00     0.000 O
BRANCH 36 40
ATOM     37  C1  GU6 D   3      13.158  43.597   9.8060  0.00  0.00     0.000 C
ATOM     38  C2  GU6 D   3      12.890  44.984  10.3760  0.00  0.00     0.000 C
ATOM     39  C3  GU6 D   3      13.056  44.955  11.8730  0.00  0.00     0.000 C
ATOM     40  C4  GU6 D   3      13.207  43.645  12.5170  0.00  0.00     0.000 C
ATOM     41  C5  GU6 D   3      12.281  42.604  11.8060  0.00  0.00     0.000 C
ATOM     42  O5  GU6 D   3      12.230  42.687  10.3770  0.00  0.00     0.000 O
BRANCH 38 43
ATOM     43   O  GU6 D   3      13.774  45.933   9.8110  0.00  0.00     0.000 O
ATOM     44   S  GU6 D   3      13.084  47.079   9.0830  0.00  0.00     0.000 S
ATOM     45   O  GU6 D   3      12.720  46.624   7.7310  0.00  0.00     0.000 OA
ATOM     46   O  GU6 D   3      11.862  47.440   9.8250  0.00  0.00     0.000 O
ATOM     47   O  GU6 D   3      13.994  48.220   9.0330  0.00  0.00     0.000 OA
ENDBRANCH 38 43
BRANCH 39 48
ATOM     48   O  GU6 D   3      13.292  46.145  12.6010  0.00  0.00     0.000 O
ATOM     49   S  GU6 D   3      14.610  46.768  13.0600  0.00  0.00     0.000 S
ATOM     50   O  GU6 D   3      15.504  46.963  11.9130  0.00  0.00     0.000 OA
ATOM     51   O  GU6 D   3      14.188  48.056  13.6290  0.00  0.00     0.000 OA
ATOM     52   O  GU6 D   3      15.245  45.872  14.0520  0.00  0.00     0.000 O
ENDBRANCH 39 48
BRANCH 41 53
ATOM     53   C  GU6 D   3      11.442  41.511  12.4130  0.00  0.00     0.000 C
ATOM     54   O  GU6 D   3      12.228  40.420  12.0070  0.00  0.00     0.000 O
ATOM     55   S  GU6 D   3      11.761  38.983  12.2740  0.00  0.00     0.000 S
ATOM     56   O  GU6 D   3      10.544  38.771  11.4560  0.00  0.00     0.000 O
ATOM     57   O  GU6 D   3      12.829  38.060  11.8650  0.00  0.00     0.000 OA
ATOM     58   O  GU6 D   3      11.456  38.882  13.7180  0.00  0.00     0.000 OA
ENDBRANCH 41 53
BRANCH 37 59
ATOM     59  O4  Z9K D   4      14.444  42.943   9.7860  0.00  0.00     0.000 O
BRANCH 59 63
ATOM     60  C1  Z9K D   4      16.934  45.040   7.5830  0.00  0.00     0.000 C
ATOM     61  C2  Z9K D   4      16.157  44.252   6.4920  0.00  0.00     0.000 C
ATOM     62  C3  Z9K D   4      15.033  43.549   7.3710  0.00  0.00     0.000 C
ATOM     63  C4  Z9K D   4      15.441  42.855   8.7260  0.00  0.00     0.000 C
ATOM     64  C5  Z9K D   4      16.700  43.403   9.4130  0.00  0.00     0.000 C
ATOM     65  O5  Z9K D   4      16.680  44.808   9.0480  0.00  0.00     0.000 O
ATOM     66   O  Z9K D   4      14.292  42.548   6.6510  0.00  0.00     0.000 O
ATOM     67   C  Z9K D   4      13.198  43.053   5.9030  0.00  0.00     0.000 C
BRANCH 61 68
ATOM     68   O  Z9K D   4      15.498  45.197   5.6940  0.00  0.00     0.000 O
ATOM     69   O  Z9K D   4      16.205  43.156   4.3210  0.00  0.00     0.000 OA
ATOM     70   S  Z9K D   4      16.519  44.517   4.6360  0.00  0.00     0.000 S
ATOM     71   O  Z9K D   4      17.832  45.044   4.8500  0.00  0.00     0.000 OA
ATOM     72   O  Z9K D   4      15.775  45.415   3.8120  0.00  0.00     0.000 OA
ENDBRANCH 61 68
BRANCH 64 73
ATOM     73   C  Z9K D   4      16.718  43.026  10.9090  0.00  0.00     0.000 C
ATOM     74   O  Z9K D   4      16.636  43.911  11.8100  0.00  0.00     0.000 O
ATOM     75   O  Z9K D   4      16.807  41.833  11.2900  0.00  0.00     0.000 OA
ENDBRANCH 64 73
BRANCH 60 76
ATOM     76  O4  Z9L D   5      18.356  45.190   7.7360  0.00  0.00     0.000 O
BRANCH 76 80
ATOM     77  C1  Z9L D   5      21.328  47.796   8.3200  0.00  0.00     0.000 C
ATOM     78  C2  Z9L D   5      21.234  46.888   9.6380  0.00  0.00     0.000 C
ATOM     79  C3  Z9L D   5      20.322  45.524   9.2250  0.00  0.00     0.000 C
ATOM     80  C4  Z9L D   5      19.123  46.207   8.3250  0.00  0.00     0.000 C
ATOM     81  C5  Z9L D   5      19.186  47.302   7.1430  0.00  0.00     0.000 C
ATOM     82  O5  Z9L D   5      20.155  48.280   7.5490  0.00  0.00     0.000 O
ATOM     83   C  Z9L D   5      22.464  47.893   6.1770  0.00  0.00     0.000 C
ATOM     84   C  Z9L D   5      22.464  47.893   6.1770  0.00  0.00     0.000 C
BRANCH 78 85
ATOM     85   O  Z9L D   5      22.523  46.488   9.9810  0.00  0.00     0.000 O
ATOM     86   O  Z9L D   5      23.496  47.095  11.5280  0.00  0.00     0.000 OA
ATOM     87   S  Z9L D   5      22.128  47.405  11.2400  0.00  0.00     0.000 S
ATOM     88   O  Z9L D   5      21.367  46.710  12.2490  0.00  0.00     0.000 OA
ATOM     89   O  Z9L D   5      22.101  48.809  11.0180  0.00  0.00     0.000 OA
ENDBRANCH 78 85
BRANCH 79 90
ATOM     90   O  Z9L D   5      19.629  45.026  10.3240  0.00  0.00     0.000 O
ATOM     91   S  Z9L D   5      20.522  43.755   9.9730  0.00  0.00     0.000 S
ATOM     92   O  Z9L D   5      21.958  43.819   9.8970  0.00  0.00     0.000 OA
ATOM     93   O  Z9L D   5      19.773  42.867   9.1190  0.00  0.00     0.000 O
ATOM     94   O  Z9L D   5      20.184  43.428  11.3210  0.00  0.00     0.000 OA
ENDBRANCH 79 90
BRANCH 81 95
ATOM     95   C  Z9L D   5      17.727  47.837   6.5110  0.00  0.00     0.000 C
ATOM     96   S  Z9L D   5      16.456  49.368   6.4250  0.00  0.00     0.000 S
ATOM     97   O  Z9L D   5      17.399  48.750   7.5240  0.00  0.00     0.000 O
ATOM     98   O  Z9L D   5      15.355  48.454   6.2620  0.00  0.00     0.000 OA
ATOM     99   O  Z9L D   5      17.112  49.947   5.3020  0.00  0.00     0.000 OA
ATOM    100   O  Z9L D   5      16.146  50.266   7.5100  0.00  0.00     0.000 O
ENDBRANCH 81 95
ENDBRANCH 76 80
ENDBRANCH 60 76
ENDBRANCH 59 63
ENDBRANCH 37 59
ENDBRANCH 36 40
ENDBRANCH 23 36
ENDBRANCH 22 26
ENDBRANCH 1 22
TORSDOF 19
ENDMDL
MODEL 24
REMARK VINA RESULT:      -3.3      4.525     16.087
ROOT
ATOM      1  C1  Z9H D   1      15.816  37.322  13.4000  0.00  0.00     0.000 C
ATOM      2  C2  Z9H D   1      15.232  38.201  14.5320  0.00  0.00     0.000 C
ATOM      3  C3  Z9H D   1      13.935  38.670  13.8040  0.00  0.00     0.000 C
ATOM      4  C4  Z9H D   1      14.149  39.261  12.3490  0.00  0.00     0.000 C
ATOM      5  C5  Z9H D   1      15.038  38.553  11.2500  0.00  0.00     0.000 C
ATOM      6  O5  Z9H D   1      16.023  37.875  12.0710  0.00  0.00     0.000 O
ATOM      7   O  Z9H D   1      13.181  39.581  14.6050  0.00  0.00     0.000 O
ATOM      8   C  Z9H D   1      12.081  39.003  15.3270  0.00  0.00     0.000 C
ATOM      9   O  Z9H D   1      12.838  39.417  11.7960  0.00  0.00     0.000 O
ATOM     10   C  Z9H D   1      12.296  40.740  11.8550  0.00  0.00     0.000 C
ENDROOT
BRANCH 2 11
ATOM     11   O  Z9H D   1      14.803  37.238  15.4590  0.00  0.00     0.000 O
ATOM     12   O  Z9H D   1      15.541  37.022  17.1810  0.00  0.00     0.000 OA
ATOM     13   S  Z9H D   1      15.933  38.026  16.2500  0.00  0.00     0.000 S
ATOM     14   O  Z9H D   1      15.435  39.334  16.5630  0.00  0.00     0.000 OA
ATOM     15   O  Z9H D   1      17.249  37.740  15.7270  0.00  0.00     0.000 O
ENDBRANCH 2 11
BRANCH 5 16
ATOM     16   C  Z9H D   1      15.494  39.530   9.9710  0.00  0.00     0.000 C
ATOM     17   S  Z9H D   1      15.470  41.413   9.2680  0.00  0.00     0.000 S
ATOM     18   O  Z9H D   1      15.718  40.712  10.7010  0.00  0.00     0.000 O
ATOM     19   O  Z9H D   1      14.128  41.312   8.7710  0.00  0.00     0.000 O
ATOM     20   O  Z9H D   1      16.619  41.264   8.4450  0.00  0.00     0.000 OA
ATOM     21   O  Z9H D   1      15.657  42.584  10.0730  0.00  0.00     0.000 OA
ENDBRANCH 5 16
BRANCH 1 22
ATOM     22  O4  GU1 D   2      15.019  36.127  13.0720  0.00  0.00     0.000 O
BRANCH 22 26
ATOM     23  C1  GU1 D   2      15.270  32.149  12.0290  0.00  0.00     0.000 C
ATOM     24  C2  GU1 D   2      16.438  32.670  12.8520  0.00  0.00     0.000 C
ATOM     25  C3  GU1 D   2      16.059  33.979  13.4820  0.00  0.00     0.000 C
ATOM     26  C4  GU1 D   2      15.549  34.958  12.4350  0.00  0.00     0.000 C
ATOM     27  C5  GU1 D   2      14.450  34.302  11.5950  0.00  0.00     0.000 C
ATOM     28  O5  GU1 D   2      14.921  33.087  11.0180  0.00  0.00     0.000 O
ATOM     29   O  GU1 D   2      16.802  31.766  13.8890  0.00  0.00     0.000 O
ATOM     30   C  GU1 D   2      17.885  30.911  13.5530  0.00  0.00     0.000 C
ATOM     31   C  GU1 D   2      17.275  34.389  15.5180  0.00  0.00     0.000 C
ATOM     32   O  GU1 D   2      17.223  34.536  14.1010  0.00  0.00     0.000 O
BRANCH 27 33
ATOM     33   C  GU1 D   2      14.008  35.208  10.4700  0.00  0.00     0.000 C
ATOM     34   O  GU1 D   2      14.788  35.431   9.5670  0.00  0.00     0.000 OA
ATOM     35   O  GU1 D   2      12.889  35.698  10.4710  0.00  0.00     0.000 O
ENDBRANCH 27 33
BRANCH 23 36
ATOM     36  O4  GU6 D   3      15.459  31.039  11.1300  0.00  0.00     0.000 O
BRANCH 36 40
ATOM     37  C1  GU6 D   3      15.146  27.417   9.2650  0.00  0.00     0.000 C
ATOM     38  C2  GU6 D   3      16.438  28.162   8.9550  0.00  0.00     0.000 C
ATOM     39  C3  GU6 D   3      16.579  29.337   9.8880  0.00  0.00     0.000 C
ATOM     40  C4  GU6 D   3      15.425  29.685  10.7240  0.00  0.00     0.000 C
ATOM     41  C5  GU6 D   3      14.107  29.481   9.9070  0.00  0.00     0.000 C
ATOM     42  O5  GU6 D   3      14.056  28.308   9.0870  0.00  0.00     0.000 O
BRANCH 38 43
ATOM     43   O  GU6 D   3      17.553  27.302   9.0900  0.00  0.00     0.000 O
ATOM     44   S  GU6 D   3      18.055  26.713   7.7780  0.00  0.00     0.000 S
ATOM     45   O  GU6 D   3      17.212  25.554   7.4330  0.00  0.00     0.000 OA
ATOM     46   O  GU6 D   3      17.934  27.737   6.7250  0.00  0.00     0.000 O
ATOM     47   O  GU6 D   3      19.452  26.324   7.9410  0.00  0.00     0.000 OA
ENDBRANCH 38 43
BRANCH 39 48
ATOM     48   O  GU6 D   3      17.842  29.933  10.1200  0.00  0.00     0.000 O
ATOM     49   S  GU6 D   3      18.575  31.016   9.3310  0.00  0.00     0.000 S
ATOM     50   O  GU6 D   3      17.727  32.206   9.1970  0.00  0.00     0.000 OA
ATOM     51   O  GU6 D   3      19.753  31.294  10.1630  0.00  0.00     0.000 OA
ATOM     52   O  GU6 D   3      18.918  30.485   7.9920  0.00  0.00     0.000 O
ENDBRANCH 39 48
BRANCH 41 53
ATOM     53   C  GU6 D   3      12.872  30.340   9.8720  0.00  0.00     0.000 C
ATOM     54   O  GU6 D   3      12.486  30.065   8.5500  0.00  0.00     0.000 O
ATOM     55   S  GU6 D   3      11.292  30.795   7.9200  0.00  0.00     0.000 S
ATOM     56   O  GU6 D   3      11.675  32.222   7.8080  0.00  0.00     0.000 O
ATOM     57   O  GU6 D   3      11.039  30.219   6.5910  0.00  0.00     0.000 OA
ATOM     58   O  GU6 D   3      10.140  30.623   8.8330  0.00  0.00     0.000 OA
ENDBRANCH 41 53
BRANCH 37 59
ATOM     59  O4  Z9K D   4      14.893  26.663  10.4690  0.00  0.00     0.000 O
BRANCH 59 63
ATOM     60  C1  Z9K D   4      15.313  22.878   9.4960  0.00  0.00     0.000 C
ATOM     61  C2  Z9K D   4      13.823  23.121   9.1250  0.00  0.00     0.000 C
ATOM     62  C3  Z9K D   4      13.710  24.692   9.3460  0.00  0.00     0.000 C
ATOM     63  C4  Z9K D   4      14.328  25.331  10.6470  0.00  0.00     0.000 C
ATOM     64  C5  Z9K D   4      15.494  24.563  11.2880  0.00  0.00     0.000 C
ATOM     65  O5  Z9K D   4      16.145  23.951  10.1430  0.00  0.00     0.000 O
ATOM     66   O  Z9K D   4      12.356  25.176   9.3040  0.00  0.00     0.000 O
ATOM     67   C  Z9K D   4      11.876  25.463   8.0000  0.00  0.00     0.000 C
BRANCH 61 68
ATOM     68   O  Z9K D   4      13.703  22.908   7.7450  0.00  0.00     0.000 O
ATOM     69   O  Z9K D   4      11.552  22.265   8.9720  0.00  0.00     0.000 OA
ATOM     70   S  Z9K D   4      12.736  21.757   8.3480  0.00  0.00     0.000 S
ATOM     71   O  Z9K D   4      13.541  20.679   8.8340  0.00  0.00     0.000 OA
ATOM     72   O  Z9K D   4      12.547  21.611   6.9410  0.00  0.00     0.000 OA
ENDBRANCH 61 68
BRANCH 64 73
ATOM     73   C  Z9K D   4      16.322  25.487  12.2060  0.00  0.00     0.000 C
ATOM     74   O  Z9K D   4      17.516  25.796  11.9210  0.00  0.00     0.000 O
ATOM     75   O  Z9K D   4      15.845  25.971  13.2610  0.00  0.00     0.000 OA
ENDBRANCH 64 73
BRANCH 60 76
ATOM     76  O4  Z9L D   5      15.877  21.811  10.2770  0.00  0.00     0.000 O
BRANCH 76 80
ATOM     77  C1  Z9L D   5      18.839  19.137  10.4990  0.00  0.00     0.000 C
ATOM     78  C2  Z9L D   5      19.057  20.180  11.6980  0.00  0.00     0.000 C
ATOM     79  C3  Z9L D   5      17.596  21.011  11.8900  0.00  0.00     0.000 C
ATOM     80  C4  Z9L D   5      17.176  21.279  10.3200  0.00  0.00     0.000 C
ATOM     81  C5  Z9L D   5      17.173  20.290   9.0460  0.00  0.00     0.000 C
ATOM     82  O5  Z9L D   5      18.372  19.508   9.1390  0.00  0.00     0.000 O
ATOM     83   C  Z9L D   5      17.763  17.015  10.0210  0.00  0.00     0.000 C
ATOM     84   C  Z9L D   5      17.763  17.015  10.0210  0.00  0.00     0.000 C
BRANCH 78 85
ATOM     85   O  Z9L D   5      19.327  19.457  12.8560  0.00  0.00     0.000 O
ATOM     86   O  Z9L D   5      21.028  19.406  13.7580  0.00  0.00     0.000 OA
ATOM     87   S  Z9L D   5      20.711  20.244  12.6420  0.00  0.00     0.000 S
ATOM     88   O  Z9L D   5      20.706  21.585  13.1710  0.00  0.00     0.000 OA
ATOM     89   O  Z9L D   5      21.543  19.786  11.5820  0.00  0.00     0.000 OA
ENDBRANCH 78 85
BRANCH 79 90
ATOM     90   O  Z9L D   5      17.805  22.300  12.3720  0.00  0.00     0.000 O
ATOM     91   S  Z9L D   5      16.887  21.725  13.5390  0.00  0.00     0.000 S
ATOM     92   O  Z9L D   5      17.228  20.534  14.2710  0.00  0.00     0.000 OA
ATOM     93   O  Z9L D   5      15.511  22.066  13.2750  0.00  0.00     0.000 O
ATOM     94   O  Z9L D   5      17.469  22.829  14.2320  0.00  0.00     0.000 OA
ENDBRANCH 79 90
BRANCH 81 95
ATOM     95   C  Z9L D   5      16.763  20.952   7.5600  0.00  0.00     0.000 C
ATOM     96   S  Z9L D   5      16.588  20.586   5.6100  0.00  0.00     0.000 S
ATOM     97   O  Z9L D   5      17.572  20.138   6.7540  0.00  0.00     0.000 O
ATOM     98   O  Z9L D   5      16.892  21.963   5.3170  0.00  0.00     0.000 OA
ATOM     99   O  Z9L D   5      15.243  20.135   5.7380  0.00  0.00     0.000 OA
ATOM    100   O  Z9L D   5      17.465  19.749   4.8280  0.00  0.00     0.000 O
ENDBRANCH 81 95
ENDBRANCH 76 80
ENDBRANCH 60 76
ENDBRANCH 59 63
ENDBRANCH 37 59
ENDBRANCH 36 40
ENDBRANCH 23 36
ENDBRANCH 22 26
ENDBRANCH 1 22
TORSDOF 19
ENDMDL
MODEL 25
REMARK VINA RESULT:      -3.3      6.173     12.298
ROOT
ATOM      1  C1  Z9H D   1      29.299  37.158   5.3660  0.00  0.00     0.000 C
ATOM      2  C2  Z9H D   1      30.068  37.869   4.2260  0.00  0.00     0.000 C
ATOM      3  C3  Z9H D   1      30.058  36.702   3.1910  0.00  0.00     0.000 C
ATOM      4  C4  Z9H D   1      30.546  35.299   3.7440  0.00  0.00     0.000 C
ATOM      5  C5  Z9H D   1      30.034  34.682   5.1060  0.00  0.00     0.000 C
ATOM      6  O5  Z9H D   1      29.760  35.877   5.8790  0.00  0.00     0.000 O
ATOM      7   O  Z9H D   1      30.776  37.046   2.0040  0.00  0.00     0.000 O
ATOM      8   C  Z9H D   1      29.967  37.490   0.9020  0.00  0.00     0.000 C
ATOM      9   O  Z9H D   1      30.252  34.351   2.7130  0.00  0.00     0.000 O
ATOM     10   C  Z9H D   1      31.353  33.990   1.8740  0.00  0.00     0.000 C
ENDROOT
BRANCH 2 11
ATOM     11   O  Z9H D   1      29.112  38.783   3.7560  0.00  0.00     0.000 O
ATOM     12   O  Z9H D   1      29.284  40.657   3.8880  0.00  0.00     0.000 OA
ATOM     13   S  Z9H D   1      30.266  39.719   4.3170  0.00  0.00     0.000 S
ATOM     14   O  Z9H D   1      31.396  39.619   3.4380  0.00  0.00     0.000 OA
ATOM     15   O  Z9H D   1      30.330  39.681   5.7600  0.00  0.00     0.000 O
ENDBRANCH 2 11
BRANCH 5 16
ATOM     16   C  Z9H D   1      30.976  33.443   5.7210  0.00  0.00     0.000 C
ATOM     17   S  Z9H D   1      30.928  31.708   6.7340  0.00  0.00     0.000 S
ATOM     18   O  Z9H D   1      30.042  32.401   5.5770  0.00  0.00     0.000 O
ATOM     19   O  Z9H D   1      30.852  32.348   8.0160  0.00  0.00     0.000 O
ATOM     20   O  Z9H D   1      32.138  31.199   6.1880  0.00  0.00     0.000 OA
ATOM     21   O  Z9H D   1      29.920  30.701   6.5770  0.00  0.00     0.000 OA
ENDBRANCH 5 16
BRANCH 1 22
ATOM     22  O4  GU1 D   2      27.896  36.833   5.0580  0.00  0.00     0.000 O
BRANCH 22 26
ATOM     23  C1  GU1 D   2      24.074  36.628   6.5820  0.00  0.00     0.000 C
ATOM     24  C2  GU1 D   2      24.927  37.754   7.1450  0.00  0.00     0.000 C
ATOM     25  C3  GU1 D   2      26.123  37.962   6.2600  0.00  0.00     0.000 C
ATOM     26  C4  GU1 D   2      26.875  36.657   6.0470  0.00  0.00     0.000 C
ATOM     27  C5  GU1 D   2      25.908  35.564   5.5820  0.00  0.00     0.000 C
ATOM     28  O5  GU1 D   2      24.831  35.426   6.5040  0.00  0.00     0.000 O
ATOM     29   O  GU1 D   2      24.210  38.980   7.2170  0.00  0.00     0.000 O
ATOM     30   C  GU1 D   2      23.653  39.246   8.4970  0.00  0.00     0.000 C
ATOM     31   C  GU1 D   2      26.948  40.220   6.3700  0.00  0.00     0.000 C
ATOM     32   O  GU1 D   2      26.999  38.897   6.8970  0.00  0.00     0.000 O
BRANCH 27 33
ATOM     33   C  GU1 D   2      26.603  34.227   5.4780  0.00  0.00     0.000 C
ATOM     34   O  GU1 D   2      27.060  33.733   6.4880  0.00  0.00     0.000 OA
ATOM     35   O  GU1 D   2      26.697  33.659   4.4010  0.00  0.00     0.000 O
ENDBRANCH 27 33
BRANCH 23 36
ATOM     36  O4  GU6 D   3      23.005  36.070   7.3720  0.00  0.00     0.000 O
BRANCH 36 40
ATOM     37  C1  GU6 D   3      20.394  35.037  10.3400  0.00  0.00     0.000 C
ATOM     38  C2  GU6 D   3      20.874  33.859   9.5010  0.00  0.00     0.000 C
ATOM     39  C3  GU6 D   3      22.022  34.295   8.6280  0.00  0.00     0.000 C
ATOM     40  C4  GU6 D   3      22.318  35.730   8.5590  0.00  0.00     0.000 C
ATOM     41  C5  GU6 D   3      20.980  36.541   8.5660  0.00  0.00     0.000 C
ATOM     42  O5  GU6 D   3      19.970  36.072   9.4660  0.00  0.00     0.000 O
BRANCH 38 43
ATOM     43   O  GU6 D   3      21.279  32.788  10.3320  0.00  0.00     0.000 O
ATOM     44   S  GU6 D   3      20.251  31.672  10.4650  0.00  0.00     0.000 S
ATOM     45   O  GU6 D   3      19.255  32.071  11.4750  0.00  0.00     0.000 OA
ATOM     46   O  GU6 D   3      19.582  31.490   9.1640  0.00  0.00     0.000 O
ATOM     47   O  GU6 D   3      20.938  30.444  10.8510  0.00  0.00     0.000 OA
ENDBRANCH 38 43
BRANCH 39 48
ATOM     48   O  GU6 D   3      22.922  33.348   8.0850  0.00  0.00     0.000 O
ATOM     49   S  GU6 D   3      22.802  32.492   6.8250  0.00  0.00     0.000 S
ATOM     50   O  GU6 D   3      22.555  33.344   5.6560  0.00  0.00     0.000 OA
ATOM     51   O  GU6 D   3      24.115  31.839   6.7400  0.00  0.00     0.000 OA
ATOM     52   O  GU6 D   3      21.685  31.536   7.0000  0.00  0.00     0.000 O
ENDBRANCH 39 48
BRANCH 41 53
ATOM     53   C  GU6 D   3      20.608  37.761   7.7670  0.00  0.00     0.000 C
ATOM     54   O  GU6 D   3      19.894  37.111   6.7480  0.00  0.00     0.000 O
ATOM     55   S  GU6 D   3      19.358  37.902   5.5470  0.00  0.00     0.000 S
ATOM     56   O  GU6 D   3      20.537  38.389   4.7950  0.00  0.00     0.000 O
ATOM     57   O  GU6 D   3      18.548  36.999   4.7160  0.00  0.00     0.000 OA
ATOM     58   O  GU6 D   3      18.565  39.031   6.0840  0.00  0.00     0.000 OA
ENDBRANCH 41 53
BRANCH 37 59
ATOM     59  O4  Z9K D   4      21.145  35.655  11.4060  0.00  0.00     0.000 O
BRANCH 59 63
ATOM     60  C1  Z9K D   4      20.753  33.190  14.4410  0.00  0.00     0.000 C
ATOM     61  C2  Z9K D   4      19.524  34.118  14.6470  0.00  0.00     0.000 C
ATOM     62  C3  Z9K D   4      19.582  34.993  13.3200  0.00  0.00     0.000 C
ATOM     63  C4  Z9K D   4      20.965  35.584  12.8500  0.00  0.00     0.000 C
ATOM     64  C5  Z9K D   4      22.216  34.813  13.2990  0.00  0.00     0.000 C
ATOM     65  O5  Z9K D   4      21.749  33.439  13.3420  0.00  0.00     0.000 O
ATOM     66   O  Z9K D   4      18.687  36.120  13.3420  0.00  0.00     0.000 O
ATOM     67   C  Z9K D   4      17.364  35.825  12.9260  0.00  0.00     0.000 C
BRANCH 61 68
ATOM     68   O  Z9K D   4      18.380  33.315  14.5390  0.00  0.00     0.000 O
ATOM     69   O  Z9K D   4      18.012  35.236  16.1900  0.00  0.00     0.000 OA
ATOM     70   S  Z9K D   4      18.282  33.835  16.0700  0.00  0.00     0.000 S
ATOM     71   O  Z9K D   4      19.200  33.089  16.8750  0.00  0.00     0.000 OA
ATOM     72   O  Z9K D   4      17.072  33.094  15.9190  0.00  0.00     0.000 OA
ENDBRANCH 61 68
BRANCH 64 73
ATOM     73   C  Z9K D   4      23.425  35.158  12.4030  0.00  0.00     0.000 C
ATOM     74   O  Z9K D   4      24.008  36.278  12.4920  0.00  0.00     0.000 O
ATOM     75   O  Z9K D   4      23.878  34.345  11.5620  0.00  0.00     0.000 OA
ENDBRANCH 64 73
BRANCH 60 76
ATOM     76  O4  Z9L D   5      21.744  32.791  15.4040  0.00  0.00     0.000 O
BRANCH 76 80
ATOM     77  C1  Z9L D   5      23.895  29.696  16.7320  0.00  0.00     0.000 C
ATOM     78  C2  Z9L D   5      24.932  30.777  16.1600  0.00  0.00     0.000 C
ATOM     79  C3  Z9L D   5      24.088  32.238  16.0310  0.00  0.00     0.000 C
ATOM     80  C4  Z9L D   5      22.652  31.720  15.4120  0.00  0.00     0.000 C
ATOM     81  C5  Z9L D   5      21.706  30.485  15.8340  0.00  0.00     0.000 C
ATOM     82  O5  Z9L D   5      22.582  29.382  16.1130  0.00  0.00     0.000 O
ATOM     83   C  Z9L D   5      22.795  29.049  18.7980  0.00  0.00     0.000 C
ATOM     84   C  Z9L D   5      22.795  29.049  18.7980  0.00  0.00     0.000 C
BRANCH 78 85
ATOM     85   O  Z9L D   5      25.959  30.923  17.0870  0.00  0.00     0.000 O
ATOM     86   O  Z9L D   5      27.776  30.338  16.8280  0.00  0.00     0.000 OA
ATOM     87   S  Z9L D   5      26.748  30.304  15.8320  0.00  0.00     0.000 S
ATOM     88   O  Z9L D   5      27.144  31.285  14.8520  0.00  0.00     0.000 OA
ATOM     89   O  Z9L D   5      26.531  28.924  15.5650  0.00  0.00     0.000 OA
ENDBRANCH 78 85
BRANCH 79 90
ATOM     90   O  Z9L D   5      24.595  33.027  15.0020  0.00  0.00     0.000 O
ATOM     91   S  Z9L D   5      24.784  34.029  16.2260  0.00  0.00     0.000 S
ATOM     92   O  Z9L D   5      25.532  33.675  17.4030  0.00  0.00     0.000 OA
ATOM     93   O  Z9L D   5      23.640  34.902  16.3090  0.00  0.00     0.000 O
ATOM     94   O  Z9L D   5      25.700  34.621  15.3050  0.00  0.00     0.000 OA
ENDBRANCH 79 90
BRANCH 81 95
ATOM     95   C  Z9L D   5      20.342  30.206  14.8990  0.00  0.00     0.000 C
ATOM     96   S  Z9L D   5      18.696  29.099  14.7120  0.00  0.00     0.000 S
ATOM     97   O  Z9L D   5      20.171  28.847  15.2030  0.00  0.00     0.000 O
ATOM     98   O  Z9L D   5      18.754  29.241  13.2800  0.00  0.00     0.000 OA
ATOM     99   O  Z9L D   5      17.920  29.984  15.5140  0.00  0.00     0.000 OA
ATOM    100   O  Z9L D   5      18.586  27.696  15.0270  0.00  0.00     0.000 O
ENDBRANCH 81 95
ENDBRANCH 76 80
ENDBRANCH 60 76
ENDBRANCH 59 63
ENDBRANCH 37 59
ENDBRANCH 36 40
ENDBRANCH 23 36
ENDBRANCH 22 26
ENDBRANCH 1 22
TORSDOF 19
ENDMDL
MODEL 26
REMARK VINA RESULT:      -3.3      5.585     10.345
ROOT
ATOM      1  C1  Z9H D   1      28.815  36.945   5.8590  0.00  0.00     0.000 C
ATOM      2  C2  Z9H D   1      29.633  37.716   4.7960  0.00  0.00     0.000 C
ATOM      3  C3  Z9H D   1      29.621  36.631   3.6760  0.00  0.00     0.000 C
ATOM      4  C4  Z9H D   1      30.056  35.177   4.1340  0.00  0.00     0.000 C
ATOM      5  C5  Z9H D   1      29.490  34.475   5.4320  0.00  0.00     0.000 C
ATOM      6  O5  Z9H D   1      29.227  35.617   6.2850  0.00  0.00     0.000 O
ATOM      7   O  Z9H D   1      30.381  37.041   2.5370  0.00  0.00     0.000 O
ATOM      8   C  Z9H D   1      29.615  37.589   1.4510  0.00  0.00     0.000 C
ATOM      9   O  Z9H D   1      29.765  34.318   3.0270  0.00  0.00     0.000 O
ATOM     10   C  Z9H D   1      30.879  33.989   2.1920  0.00  0.00     0.000 C
ENDROOT
BRANCH 2 11
ATOM     11   O  Z9H D   1      28.716  38.690   4.3710  0.00  0.00     0.000 O
ATOM     12   O  Z9H D   1      28.950  40.545   4.6180  0.00  0.00     0.000 OA
ATOM     13   S  Z9H D   1      29.894  39.550   5.0010  0.00  0.00     0.000 S
ATOM     14   O  Z9H D   1      31.031  39.463   4.1300  0.00  0.00     0.000 OA
ATOM     15   O  Z9H D   1      29.937  39.423   6.4390  0.00  0.00     0.000 O
ENDBRANCH 2 11
BRANCH 5 16
ATOM     16   C  Z9H D   1      30.381  33.168   5.9760  0.00  0.00     0.000 C
ATOM     17   S  Z9H D   1      30.289  31.455   7.0240  0.00  0.00     0.000 S
ATOM     18   O  Z9H D   1      29.353  32.208   5.9460  0.00  0.00     0.000 O
ATOM     19   O  Z9H D   1      30.396  32.115   8.2940  0.00  0.00     0.000 O
ATOM     20   O  Z9H D   1      31.391  30.838   6.3720  0.00  0.00     0.000 OA
ATOM     21   O  Z9H D   1      29.189  30.537   6.9880  0.00  0.00     0.000 OA
ENDBRANCH 5 16
BRANCH 1 22
ATOM     22  O4  GU1 D   2      27.412  36.685   5.4910  0.00  0.00     0.000 O
BRANCH 22 26
ATOM     23  C1  GU1 D   2      23.545  36.604   6.9090  0.00  0.00     0.000 C
ATOM     24  C2  GU1 D   2      24.456  37.614   7.5910  0.00  0.00     0.000 C
ATOM     25  C3  GU1 D   2      25.686  37.818   6.7550  0.00  0.00     0.000 C
ATOM     26  C4  GU1 D   2      26.355  36.489   6.4380  0.00  0.00     0.000 C
ATOM     27  C5  GU1 D   2      25.331  35.512   5.8530  0.00  0.00     0.000 C
ATOM     28  O5  GU1 D   2      24.222  35.365   6.7360  0.00  0.00     0.000 O
ATOM     29   O  GU1 D   2      23.819  38.874   7.7620  0.00  0.00     0.000 O
ATOM     30   C  GU1 D   2      23.247  39.060   9.0490  0.00  0.00     0.000 C
ATOM     31   C  GU1 D   2      26.656  39.995   7.0920  0.00  0.00     0.000 C
ATOM     32   O  GU1 D   2      26.605  38.629   7.4950  0.00  0.00     0.000 O
BRANCH 27 33
ATOM     33   C  GU1 D   2      25.938  34.146   5.6410  0.00  0.00     0.000 C
ATOM     34   O  GU1 D   2      26.008  33.715   4.5080  0.00  0.00     0.000 OA
ATOM     35   O  GU1 D   2      26.352  33.496   6.5880  0.00  0.00     0.000 O
ENDBRANCH 27 33
BRANCH 23 36
ATOM     36  O4  GU6 D   3      22.421  36.051   7.6210  0.00  0.00     0.000 O
BRANCH 36 40
ATOM     37  C1  GU6 D   3      19.510  35.206  10.3610  0.00  0.00     0.000 C
ATOM     38  C2  GU6 D   3      20.029  33.984   9.6130  0.00  0.00     0.000 C
ATOM     39  C3  GU6 D   3      21.267  34.354   8.8390  0.00  0.00     0.000 C
ATOM     40  C4  GU6 D   3      21.614  35.777   8.7490  0.00  0.00     0.000 C
ATOM     41  C5  GU6 D   3      20.309  36.625   8.6000  0.00  0.00     0.000 C
ATOM     42  O5  GU6 D   3      19.203  36.219   9.4150  0.00  0.00     0.000 O
BRANCH 38 43
ATOM     43   O  GU6 D   3      20.319  32.934  10.5160  0.00  0.00     0.000 O
ATOM     44   S  GU6 D   3      19.189  31.928  10.6950  0.00  0.00     0.000 S
ATOM     45   O  GU6 D   3      18.220  32.479  11.6580  0.00  0.00     0.000 OA
ATOM     46   O  GU6 D   3      18.526  31.728   9.3940  0.00  0.00     0.000 O
ATOM     47   O  GU6 D   3      19.752  30.668  11.1690  0.00  0.00     0.000 OA
ENDBRANCH 38 43
BRANCH 39 48
ATOM     48   O  GU6 D   3      22.183  33.362   8.4170  0.00  0.00     0.000 O
ATOM     49   S  GU6 D   3      22.125  32.421   7.2150  0.00  0.00     0.000 S
ATOM     50   O  GU6 D   3      21.961  33.192   5.9770  0.00  0.00     0.000 OA
ATOM     51   O  GU6 D   3      23.431  31.750   7.2530  0.00  0.00     0.000 OA
ATOM     52   O  GU6 D   3      20.986  31.492   7.3870  0.00  0.00     0.000 O
ENDBRANCH 39 48
BRANCH 41 53
ATOM     53   C  GU6 D   3      20.052  37.824   7.7280  0.00  0.00     0.000 C
ATOM     54   O  GU6 D   3      19.503  37.146   6.6280  0.00  0.00     0.000 O
ATOM     55   S  GU6 D   3      19.147  37.906   5.3430  0.00  0.00     0.000 S
ATOM     56   O  GU6 D   3      20.423  38.389   4.7650  0.00  0.00     0.000 O
ATOM     57   O  GU6 D   3      18.477  36.978   4.4200  0.00  0.00     0.000 OA
ATOM     58   O  GU6 D   3      18.276  39.038   5.7300  0.00  0.00     0.000 OA
ENDBRANCH 41 53
BRANCH 37 59
ATOM     59  O4  Z9K D   4      20.176  35.842  11.4710  0.00  0.00     0.000 O
BRANCH 59 63
ATOM     60  C1  Z9K D   4      21.467  36.966  15.0100  0.00  0.00     0.000 C
ATOM     61  C2  Z9K D   4      21.323  35.432  15.2150  0.00  0.00     0.000 C
ATOM     62  C3  Z9K D   4      20.981  34.961  13.7350  0.00  0.00     0.000 C
ATOM     63  C4  Z9K D   4      19.910  35.764  12.9020  0.00  0.00     0.000 C
ATOM     64  C5  Z9K D   4      19.727  37.241  13.2840  0.00  0.00     0.000 C
ATOM     65  O5  Z9K D   4      21.056  37.627  13.7230  0.00  0.00     0.000 O
ATOM     66   O  Z9K D   4      20.555  33.589  13.6590  0.00  0.00     0.000 O
ATOM     67   C  Z9K D   4      21.614  32.651  13.5650  0.00  0.00     0.000 C
BRANCH 61 68
ATOM     68   O  Z9K D   4      22.602  34.934  15.5000  0.00  0.00     0.000 O
ATOM     69   O  Z9K D   4      20.794  33.606  16.7320  0.00  0.00     0.000 OA
ATOM     70   S  Z9K D   4      21.803  34.613  16.8720  0.00  0.00     0.000 S
ATOM     71   O  Z9K D   4      21.682  35.818  17.6340  0.00  0.00     0.000 OA
ATOM     72   O  Z9K D   4      23.080  34.024  17.1150  0.00  0.00     0.000 OA
ENDBRANCH 61 68
BRANCH 64 73
ATOM     73   C  Z9K D   4      19.069  38.028  12.1310  0.00  0.00     0.000 C
ATOM     74   O  Z9K D   4      17.831  37.924  11.8900  0.00  0.00     0.000 O
ATOM     75   O  Z9K D   4      19.729  38.803  11.3980  0.00  0.00     0.000 OA
ENDBRANCH 64 73
BRANCH 60 76
ATOM     76  O4  Z9L D   5      20.977  38.029  15.8450  0.00  0.00     0.000 O
BRANCH 76 80
ATOM     77  C1  Z9L D   5      21.909  41.558  17.4720  0.00  0.00     0.000 C
ATOM     78  C2  Z9L D   5      20.690  41.814  16.4620  0.00  0.00     0.000 C
ATOM     79  C3  Z9L D   5      20.005  40.302  16.1350  0.00  0.00     0.000 C
ATOM     80  C4  Z9L D   5      21.356  39.377  15.9480  0.00  0.00     0.000 C
ATOM     81  C5  Z9L D   5      22.697  39.279  16.8370  0.00  0.00     0.000 C
ATOM     82  O5  Z9L D   5      23.034  40.623  17.2110  0.00  0.00     0.000 O
ATOM     83   C  Z9L D   5      22.348  41.043  19.8030  0.00  0.00     0.000 C
ATOM     84   C  Z9L D   5      22.348  41.043  19.8030  0.00  0.00     0.000 C
BRANCH 78 85
ATOM     85   O  Z9L D   5      19.751  42.610  17.1110  0.00  0.00     0.000 O
ATOM     86   O  Z9L D   5      19.361  44.444  16.6710  0.00  0.00     0.000 OA
ATOM     87   S  Z9L D   5      20.233  43.586  15.9290  0.00  0.00     0.000 S
ATOM     88   O  Z9L D   5      19.556  43.359  14.6760  0.00  0.00     0.000 OA
ATOM     89   O  Z9L D   5      21.528  44.157  16.0670  0.00  0.00     0.000 OA
ENDBRANCH 78 85
BRANCH 79 90
ATOM     90   O  Z9L D   5      19.436  40.267  14.8640  0.00  0.00     0.000 O
ATOM     91   S  Z9L D   5      18.158  39.900  15.7400  0.00  0.00     0.000 S
ATOM     92   O  Z9L D   5      17.684  40.746  16.8040  0.00  0.00     0.000 OA
ATOM     93   O  Z9L D   5      18.029  38.466  15.8180  0.00  0.00     0.000 O
ATOM     94   O  Z9L D   5      17.500  40.318  14.5440  0.00  0.00     0.000 OA
ENDBRANCH 79 90
BRANCH 81 95
ATOM     95   C  Z9L D   5      23.919  38.276  16.2770  0.00  0.00     0.000 C
ATOM     96   S  Z9L D   5      25.622  38.207  15.2460  0.00  0.00     0.000 S
ATOM     97   O  Z9L D   5      24.277  39.019  15.1420  0.00  0.00     0.000 O
ATOM     98   O  Z9L D   5      25.326  36.859  14.8330  0.00  0.00     0.000 OA
ATOM     99   O  Z9L D   5      26.418  38.471  16.3970  0.00  0.00     0.000 OA
ATOM    100   O  Z9L D   5      25.927  38.987  14.0720  0.00  0.00     0.000 O
ENDBRANCH 81 95
ENDBRANCH 76 80
ENDBRANCH 60 76
ENDBRANCH 59 63
ENDBRANCH 37 59
ENDBRANCH 36 40
ENDBRANCH 23 36
ENDBRANCH 22 26
ENDBRANCH 1 22
TORSDOF 19
ENDMDL
MODEL 27
REMARK VINA RESULT:      -3.1      5.775     14.660
ROOT
ATOM      1  C1  Z9H D   1      15.644  46.050  16.8540  0.00  0.00     0.000 C
ATOM      2  C2  Z9H D   1      15.118  47.309  17.5840  0.00  0.00     0.000 C
ATOM      3  C3  Z9H D   1      16.186  48.324  17.0720  0.00  0.00     0.000 C
ATOM      4  C4  Z9H D   1      17.694  47.865  17.2360  0.00  0.00     0.000 C
ATOM      5  C5  Z9H D   1      18.212  46.433  16.8120  0.00  0.00     0.000 C
ATOM      6  O5  Z9H D   1      17.026  45.625  17.0200  0.00  0.00     0.000 O
ATOM      7   O  Z9H D   1      15.996  49.620  17.6440  0.00  0.00     0.000 O
ATOM      8   C  Z9H D   1      15.293  50.561  16.8160  0.00  0.00     0.000 C
ATOM      9   O  Z9H D   1      18.473  48.826  16.5170  0.00  0.00     0.000 O
ATOM     10   C  Z9H D   1      19.082  49.847  17.3130  0.00  0.00     0.000 C
ENDROOT
BRANCH 2 11
ATOM     11   O  Z9H D   1      13.955  47.603  16.8570  0.00  0.00     0.000 O
ATOM     12   O  Z9H D   1      12.209  47.502  17.5630  0.00  0.00     0.000 OA
ATOM     13   S  Z9H D   1      13.400  47.252  18.3030  0.00  0.00     0.000 S
ATOM     14   O  Z9H D   1      13.762  48.316  19.1960  0.00  0.00     0.000 OA
ATOM     15   O  Z9H D   1      13.526  45.843  18.5960  0.00  0.00     0.000 O
ENDBRANCH 2 11
BRANCH 5 16
ATOM     16   C  Z9H D   1      19.690  45.993  17.4610  0.00  0.00     0.000 C
ATOM     17   S  Z9H D   1      20.891  44.434  17.8700  0.00  0.00     0.000 S
ATOM     18   O  Z9H D   1      19.930  44.869  16.6490  0.00  0.00     0.000 O
ATOM     19   O  Z9H D   1      20.206  44.104  19.0870  0.00  0.00     0.000 O
ATOM     20   O  Z9H D   1      22.099  45.182  17.8340  0.00  0.00     0.000 OA
ATOM     21   O  Z9H D   1      21.058  43.291  17.0220  0.00  0.00     0.000 OA
ENDBRANCH 5 16
BRANCH 1 22
ATOM     22  O4  GU1 D   2      15.555  46.104  15.3840  0.00  0.00     0.000 O
BRANCH 22 26
ATOM     23  C1  GU1 D   2      14.853  43.861  12.0010  0.00  0.00     0.000 C
ATOM     24  C2  GU1 D   2      14.142  43.370  13.2520  0.00  0.00     0.000 C
ATOM     25  C3  GU1 D   2      14.160  44.453  14.2920  0.00  0.00     0.000 C
ATOM     26  C4  GU1 D   2      15.577  44.950  14.5350  0.00  0.00     0.000 C
ATOM     27  C5  GU1 D   2      16.239  45.320  13.2040  0.00  0.00     0.000 C
ATOM     28  O5  GU1 D   2      16.197  44.217  12.3030  0.00  0.00     0.000 O
ATOM     29   O  GU1 D   2      12.786  43.025  12.9930  0.00  0.00     0.000 O
ATOM     30   C  GU1 D   2      12.579  41.638  12.7660  0.00  0.00     0.000 C
ATOM     31   C  GU1 D   2      12.302  44.278  15.8130  0.00  0.00     0.000 C
ATOM     32   O  GU1 D   2      13.648  43.914  15.5150  0.00  0.00     0.000 O
BRANCH 27 33
ATOM     33   C  GU1 D   2      17.686  45.703  13.4000  0.00  0.00     0.000 C
ATOM     34   O  GU1 D   2      17.995  46.872  13.2910  0.00  0.00     0.000 OA
ATOM     35   O  GU1 D   2      18.522  44.854  13.6670  0.00  0.00     0.000 O
ENDBRANCH 27 33
BRANCH 23 36
ATOM     36  O4  GU6 D   3      15.187  42.933  10.9500  0.00  0.00     0.000 O
BRANCH 36 40
ATOM     37  C1  GU6 D   3      16.594  41.230   7.5130  0.00  0.00     0.000 C
ATOM     38  C2  GU6 D   3      15.870  42.554   7.2960  0.00  0.00     0.000 C
ATOM     39  C3  GU6 D   3      15.636  43.224   8.6250  0.00  0.00     0.000 C
ATOM     40  C4  GU6 D   3      15.911  42.447   9.8380  0.00  0.00     0.000 C
ATOM     41  C5  GU6 D   3      15.475  40.961   9.6170  0.00  0.00     0.000 C
ATOM     42  O5  GU6 D   3      15.786  40.403   8.3350  0.00  0.00     0.000 O
BRANCH 38 43
ATOM     43   O  GU6 D   3      16.626  43.402   6.4540  0.00  0.00     0.000 O
ATOM     44   S  GU6 D   3      16.167  43.418   5.0010  0.00  0.00     0.000 S
ATOM     45   O  GU6 D   3      16.736  42.244   4.3170  0.00  0.00     0.000 OA
ATOM     46   O  GU6 D   3      14.695  43.337   4.9720  0.00  0.00     0.000 O
ATOM     47   O  GU6 D   3      16.612  44.662   4.3810  0.00  0.00     0.000 OA
ENDBRANCH 38 43
BRANCH 39 48
ATOM     48   O  GU6 D   3      15.388  44.615   8.7030  0.00  0.00     0.000 O
ATOM     49   S  GU6 D   3      14.099  45.396   8.4530  0.00  0.00     0.000 S
ATOM     50   O  GU6 D   3      13.019  44.873   9.2990  0.00  0.00     0.000 OA
ATOM     51   O  GU6 D   3      14.460  46.767   8.8400  0.00  0.00     0.000 OA
ATOM     52   O  GU6 D   3      13.730  45.271   7.0260  0.00  0.00     0.000 O
ENDBRANCH 39 48
BRANCH 41 53
ATOM     53   C  GU6 D   3      14.783  40.024  10.5710  0.00  0.00     0.000 C
ATOM     54   O  GU6 D   3      15.867  39.166  10.8150  0.00  0.00     0.000 O
ATOM     55   S  GU6 D   3      15.685  37.908  11.6740  0.00  0.00     0.000 S
ATOM     56   O  GU6 D   3      14.779  37.007  10.9250  0.00  0.00     0.000 O
ATOM     57   O  GU6 D   3      17.000  37.279  11.8680  0.00  0.00     0.000 OA
ATOM     58   O  GU6 D   3      15.075  38.334  12.9530  0.00  0.00     0.000 OA
ENDBRANCH 41 53
BRANCH 37 59
ATOM     59  O4  Z9K D   4      17.955  41.096   7.9720  0.00  0.00     0.000 O
BRANCH 59 63
ATOM     60  C1  Z9K D   4      21.856  41.201   8.4400  0.00  0.00     0.000 C
ATOM     61  C2  Z9K D   4      21.562  42.671   8.0320  0.00  0.00     0.000 C
ATOM     62  C3  Z9K D   4      19.972  42.669   8.0240  0.00  0.00     0.000 C
ATOM     63  C4  Z9K D   4      19.208  41.476   7.3330  0.00  0.00     0.000 C
ATOM     64  C5  Z9K D   4      19.963  40.139   7.2690  0.00  0.00     0.000 C
ATOM     65  O5  Z9K D   4      20.767  40.165   8.4780  0.00  0.00     0.000 O
ATOM     66   O  Z9K D   4      19.404  43.857   7.4430  0.00  0.00     0.000 O
ATOM     67   C  Z9K D   4      19.262  44.941   8.3460  0.00  0.00     0.000 C
BRANCH 61 68
ATOM     68   O  Z9K D   4      21.949  43.482   9.1070  0.00  0.00     0.000 O
ATOM     69   O  Z9K D   4      22.268  44.691   6.8750  0.00  0.00     0.000 OA
ATOM     70   S  Z9K D   4      22.938  43.992   7.9300  0.00  0.00     0.000 S
ATOM     71   O  Z9K D   4      23.995  43.043   7.7650  0.00  0.00     0.000 OA
ATOM     72   O  Z9K D   4      23.257  44.877   9.0040  0.00  0.00     0.000 OA
ENDBRANCH 61 68
BRANCH 64 73
ATOM     73   C  Z9K D   4      18.985  38.966   7.0530  0.00  0.00     0.000 C
ATOM     74   O  Z9K D   4      18.475  38.738   5.9170  0.00  0.00     0.000 O
ATOM     75   O  Z9K D   4      18.663  38.192   7.9870  0.00  0.00     0.000 OA
ENDBRANCH 64 73
BRANCH 60 76
ATOM     76  O4  Z9L D   5      22.846  40.306   7.9060  0.00  0.00     0.000 O
BRANCH 76 80
ATOM     77  C1  Z9L D   5      25.701  37.661   8.8130  0.00  0.00     0.000 C
ATOM     78  C2  Z9L D   5      24.511  36.845   8.1130  0.00  0.00     0.000 C
ATOM     79  C3  Z9L D   5      23.537  37.984   7.3300  0.00  0.00     0.000 C
ATOM     80  C4  Z9L D   5      23.476  39.180   8.4610  0.00  0.00     0.000 C
ATOM     81  C5  Z9L D   5      24.643  39.855   9.3460  0.00  0.00     0.000 C
ATOM     82  O5  Z9L D   5      25.504  38.785   9.7630  0.00  0.00     0.000 O
ATOM     83   C  Z9L D   5      27.771  38.809   8.2720  0.00  0.00     0.000 C
ATOM     84   C  Z9L D   5      27.771  38.809   8.2720  0.00  0.00     0.000 C
BRANCH 78 85
ATOM     85   O  Z9L D   5      25.070  35.993   7.1650  0.00  0.00     0.000 O
ATOM     86   O  Z9L D   5      25.124  34.072   7.2990  0.00  0.00     0.000 OA
ATOM     87   S  Z9L D   5      24.442  34.943   8.2070  0.00  0.00     0.000 S
ATOM     88   O  Z9L D   5      23.040  34.681   7.9940  0.00  0.00     0.000 OA
ATOM     89   O  Z9L D   5      25.122  34.797   9.4480  0.00  0.00     0.000 OA
ENDBRANCH 78 85
BRANCH 79 90
ATOM     90   O  Z9L D   5      22.212  37.561   7.2650  0.00  0.00     0.000 O
ATOM     91   S  Z9L D   5      22.535  37.665   5.7090  0.00  0.00     0.000 S
ATOM     92   O  Z9L D   5      23.630  36.958   5.1000  0.00  0.00     0.000 OA
ATOM     93   O  Z9L D   5      22.127  38.960   5.2230  0.00  0.00     0.000 O
ATOM     94   O  Z9L D   5      21.393  36.812   5.6460  0.00  0.00     0.000 OA
ENDBRANCH 79 90
BRANCH 81 95
ATOM     95   C  Z9L D   5      24.183  41.000  10.4820  0.00  0.00     0.000 C
ATOM     96   S  Z9L D   5      23.758  41.305  12.4030  0.00  0.00     0.000 S
ATOM     97   O  Z9L D   5      23.525  40.139  11.3710  0.00  0.00     0.000 O
ATOM     98   O  Z9L D   5      22.852  42.365  12.0430  0.00  0.00     0.000 OA
ATOM     99   O  Z9L D   5      25.116  41.572  12.7390  0.00  0.00     0.000 OA
ATOM    100   O  Z9L D   5      23.061  40.385  13.2670  0.00  0.00     0.000 O
ENDBRANCH 81 95
ENDBRANCH 76 80
ENDBRANCH 60 76
ENDBRANCH 59 63
ENDBRANCH 37 59
ENDBRANCH 36 40
ENDBRANCH 23 36
ENDBRANCH 22 26
ENDBRANCH 1 22
TORSDOF 19
ENDMDL
MODEL 28
REMARK VINA RESULT:      -3.1      4.923     14.268
ROOT
ATOM      1  C1  Z9H D   1      16.428  46.581  16.8910  0.00  0.00     0.000 C
ATOM      2  C2  Z9H D   1      15.903  48.018  17.1240  0.00  0.00     0.000 C
ATOM      3  C3  Z9H D   1      16.353  48.641  15.7680  0.00  0.00     0.000 C
ATOM      4  C4  Z9H D   1      17.867  48.387  15.3720  0.00  0.00     0.000 C
ATOM      5  C5  Z9H D   1      18.553  46.965  15.4510  0.00  0.00     0.000 C
ATOM      6  O5  Z9H D   1      17.822  46.353  16.5420  0.00  0.00     0.000 O
ATOM      7   O  Z9H D   1      16.050  50.036  15.7030  0.00  0.00     0.000 O
ATOM      8   C  Z9H D   1      14.846  50.373  14.9940  0.00  0.00     0.000 C
ATOM      9   O  Z9H D   1      17.998  48.846  14.0230  0.00  0.00     0.000 O
ATOM     10   C  Z9H D   1      18.560  50.153  13.8670  0.00  0.00     0.000 C
ENDROOT
BRANCH 2 11
ATOM     11   O  Z9H D   1      14.515  47.844  17.0040  0.00  0.00     0.000 O
ATOM     12   O  Z9H D   1      13.294  48.058  18.4260  0.00  0.00     0.000 OA
ATOM     13   S  Z9H D   1      14.698  48.277  18.5220  0.00  0.00     0.000 S
ATOM     14   O  Z9H D   1      15.068  49.663  18.5540  0.00  0.00     0.000 OA
ATOM     15   O  Z9H D   1      15.319  47.232  19.3040  0.00  0.00     0.000 O
ENDBRANCH 2 11
BRANCH 5 16
ATOM     16   C  Z9H D   1      20.227  46.984  15.4260  0.00  0.00     0.000 C
ATOM     17   S  Z9H D   1      21.858  46.017  14.7600  0.00  0.00     0.000 S
ATOM     18   O  Z9H D   1      20.407  46.395  14.1610  0.00  0.00     0.000 O
ATOM     19   O  Z9H D   1      21.839  45.055  15.8240  0.00  0.00     0.000 O
ATOM     20   O  Z9H D   1      22.701  47.161  14.7580  0.00  0.00     0.000 OA
ATOM     21   O  Z9H D   1      21.965  45.393  13.4740  0.00  0.00     0.000 OA
ENDBRANCH 5 16
BRANCH 1 22
ATOM     22  O4  GU1 D   2      15.757  45.845  15.8050  0.00  0.00     0.000 O
BRANCH 22 26
ATOM     23  C1  GU1 D   2      14.421  42.147  14.5770  0.00  0.00     0.000 C
ATOM     24  C2  GU1 D   2      14.337  42.391  16.0750  0.00  0.00     0.000 C
ATOM     25  C3  GU1 D   2      14.479  43.861  16.3480  0.00  0.00     0.000 C
ATOM     26  C4  GU1 D   2      15.736  44.417  15.6950  0.00  0.00     0.000 C
ATOM     27  C5  GU1 D   2      15.774  44.027  14.2140  0.00  0.00     0.000 C
ATOM     28  O5  GU1 D   2      15.665  42.614  14.0680  0.00  0.00     0.000 O
ATOM     29   O  GU1 D   2      13.096  41.956  16.6170  0.00  0.00     0.000 O
ATOM     30   C  GU1 D   2      13.144  40.659  17.1940  0.00  0.00     0.000 C
ATOM     31   C  GU1 D   2      13.381  44.512  18.3890  0.00  0.00     0.000 C
ATOM     32   O  GU1 D   2      14.576  44.051  17.7630  0.00  0.00     0.000 O
BRANCH 27 33
ATOM     33   C  GU1 D   2      17.068  44.461  13.5680  0.00  0.00     0.000 C
ATOM     34   O  GU1 D   2      17.036  45.374  12.7680  0.00  0.00     0.000 OA
ATOM     35   O  GU1 D   2      18.119  43.907  13.8490  0.00  0.00     0.000 O
ENDBRANCH 27 33
BRANCH 23 36
ATOM     36  O4  GU6 D   3      14.560  40.803  14.0720  0.00  0.00     0.000 O
BRANCH 36 40
ATOM     37  C1  GU6 D   3      16.063  37.332  12.5290  0.00  0.00     0.000 C
ATOM     38  C2  GU6 D   3      14.555  37.480  12.3650  0.00  0.00     0.000 C
ATOM     39  C3  GU6 D   3      14.146  38.887  12.7120  0.00  0.00     0.000 C
ATOM     40  C4  GU6 D   3      15.152  39.757  13.3290  0.00  0.00     0.000 C
ATOM     41  C5  GU6 D   3      16.026  38.923  14.3240  0.00  0.00     0.000 C
ATOM     42  O5  GU6 D   3      16.401  37.615  13.8780  0.00  0.00     0.000 O
BRANCH 38 43
ATOM     43   O  GU6 D   3      14.167  37.176  11.0400  0.00  0.00     0.000 O
ATOM     44   S  GU6 D   3      13.743  35.729  10.8240  0.00  0.00     0.000 S
ATOM     45   O  GU6 D   3      14.953  34.907  10.6500  0.00  0.00     0.000 OA
ATOM     46   O  GU6 D   3      13.007  35.272  12.0170  0.00  0.00     0.000 O
ATOM     47   O  GU6 D   3      12.880  35.662   9.6480  0.00  0.00     0.000 OA
ENDBRANCH 38 43
BRANCH 39 48
ATOM     48   O  GU6 D   3      12.920  39.421  12.2500  0.00  0.00     0.000 O
ATOM     49   S  GU6 D   3      11.505  39.252  12.8040  0.00  0.00     0.000 S
ATOM     50   O  GU6 D   3      11.466  39.646  14.2170  0.00  0.00     0.000 OA
ATOM     51   O  GU6 D   3      10.711  40.168  11.9750  0.00  0.00     0.000 OA
ATOM     52   O  GU6 D   3      11.101  37.835  12.6620  0.00  0.00     0.000 O
ENDBRANCH 39 48
BRANCH 41 53
ATOM     53   C  GU6 D   3      16.543  39.308  15.6830  0.00  0.00     0.000 C
ATOM     54   O  GU6 D   3      17.901  39.419  15.3470  0.00  0.00     0.000 O
ATOM     55   S  GU6 D   3      18.952  39.696  16.4310  0.00  0.00     0.000 S
ATOM     56   O  GU6 D   3      18.979  38.506  17.3130  0.00  0.00     0.000 O
ATOM     57   O  GU6 D   3      20.256  39.890  15.7800  0.00  0.00     0.000 OA
ATOM     58   O  GU6 D   3      18.511  40.899  17.1720  0.00  0.00     0.000 OA
ENDBRANCH 41 53
BRANCH 37 59
ATOM     59  O4  Z9K D   4      17.054  37.969  11.6950  0.00  0.00     0.000 O
BRANCH 59 63
ATOM     60  C1  Z9K D   4      19.157  39.481   8.7390  0.00  0.00     0.000 C
ATOM     61  C2  Z9K D   4      17.747  40.057   8.4310  0.00  0.00     0.000 C
ATOM     62  C3  Z9K D   4      16.944  39.597   9.7240  0.00  0.00     0.000 C
ATOM     63  C4  Z9K D   4      17.112  38.119  10.2470  0.00  0.00     0.000 C
ATOM     64  C5  Z9K D   4      18.438  37.426   9.8980  0.00  0.00     0.000 C
ATOM     65  O5  Z9K D   4      19.383  38.529   9.8820  0.00  0.00     0.000 O
ATOM     66   O  Z9K D   4      15.522  39.789   9.6100  0.00  0.00     0.000 O
ATOM     67   C  Z9K D   4      15.076  41.088   9.9630  0.00  0.00     0.000 C
BRANCH 61 68
ATOM     68   O  Z9K D   4      17.847  41.453   8.5060  0.00  0.00     0.000 O
ATOM     69   O  Z9K D   4      16.119  40.741   6.7580  0.00  0.00     0.000 OA
ATOM     70   S  Z9K D   4      17.451  41.228   6.9510  0.00  0.00     0.000 S
ATOM     71   O  Z9K D   4      18.612  40.798   6.2330  0.00  0.00     0.000 OA
ATOM     72   O  Z9K D   4      17.462  42.651   7.0630  0.00  0.00     0.000 OA
ENDBRANCH 61 68
BRANCH 64 73
ATOM     73   C  Z9K D   4      18.702  36.237  10.8440  0.00  0.00     0.000 C
ATOM     74   O  Z9K D   4      18.156  35.112  10.6520  0.00  0.00     0.000 O
ATOM     75   O  Z9K D   4      19.470  36.336  11.8330  0.00  0.00     0.000 OA
ENDBRANCH 64 73
BRANCH 60 76
ATOM     76  O4  Z9L D   5      20.062  38.807   7.8490  0.00  0.00     0.000 O
BRANCH 76 80
ATOM     77  C1  Z9L D   5      23.917  38.288   6.9320  0.00  0.00     0.000 C
ATOM     78  C2  Z9L D   5      23.352  36.865   7.4090  0.00  0.00     0.000 C
ATOM     79  C3  Z9L D   5      21.664  36.968   7.3510  0.00  0.00     0.000 C
ATOM     80  C4  Z9L D   5      21.418  38.469   7.9850  0.00  0.00     0.000 C
ATOM     81  C5  Z9L D   5      22.144  39.876   7.6760  0.00  0.00     0.000 C
ATOM     82  O5  Z9L D   5      23.544  39.588   7.5460  0.00  0.00     0.000 O
ATOM     83   C  Z9L D   5      24.235  39.610   4.9220  0.00  0.00     0.000 C
ATOM     84   C  Z9L D   5      24.235  39.610   4.9220  0.00  0.00     0.000 C
BRANCH 78 85
ATOM     85   O  Z9L D   5      23.781  35.902   6.5000  0.00  0.00     0.000 O
ATOM     86   O  Z9L D   5      25.080  34.530   6.8720  0.00  0.00     0.000 OA
ATOM     87   S  Z9L D   5      24.544  35.441   7.8370  0.00  0.00     0.000 S
ATOM     88   O  Z9L D   5      23.739  34.626   8.7140  0.00  0.00     0.000 OA
ATOM     89   O  Z9L D   5      25.645  36.243   8.2480  0.00  0.00     0.000 OA
ENDBRANCH 78 85
BRANCH 79 90
ATOM     90   O  Z9L D   5      21.072  36.139   8.3000  0.00  0.00     0.000 O
ATOM     91   S  Z9L D   5      20.381  35.573   6.9820  0.00  0.00     0.000 S
ATOM     92   O  Z9L D   5      21.142  35.088   5.8600  0.00  0.00     0.000 OA
ATOM     93   O  Z9L D   5      19.112  36.229   6.7890  0.00  0.00     0.000 O
ATOM     94   O  Z9L D   5      20.154  34.463   7.8500  0.00  0.00     0.000 OA
ENDBRANCH 79 90
BRANCH 81 95
ATOM     95   C  Z9L D   5      21.682  41.198   8.5990  0.00  0.00     0.000 C
ATOM     96   S  Z9L D   5      22.130  42.304  10.1940  0.00  0.00     0.000 S
ATOM     97   O  Z9L D   5      22.215  40.775   9.8260  0.00  0.00     0.000 O
ATOM     98   O  Z9L D   5      20.735  42.608  10.3830  0.00  0.00     0.000 OA
ATOM     99   O  Z9L D   5      22.983  43.168   9.4500  0.00  0.00     0.000 OA
ATOM    100   O  Z9L D   5      22.661  41.808  11.4400  0.00  0.00     0.000 O
ENDBRANCH 81 95
ENDBRANCH 76 80
ENDBRANCH 60 76
ENDBRANCH 59 63
ENDBRANCH 37 59
ENDBRANCH 36 40
ENDBRANCH 23 36
ENDBRANCH 22 26
ENDBRANCH 1 22
TORSDOF 19
ENDMDL
MODEL 29
REMARK VINA RESULT:      -3.0      8.986     13.123
ROOT
ATOM      1  C1  Z9H D   1      24.762  37.139   6.1480  0.00  0.00     0.000 C
ATOM      2  C2  Z9H D   1      23.909  35.894   6.4880  0.00  0.00     0.000 C
ATOM      3  C3  Z9H D   1      24.973  35.118   7.3240  0.00  0.00     0.000 C
ATOM      4  C4  Z9H D   1      26.393  34.963   6.6400  0.00  0.00     0.000 C
ATOM      5  C5  Z9H D   1      27.162  36.167   5.9620  0.00  0.00     0.000 C
ATOM      6  O5  Z9H D   1      26.059  36.991   5.5070  0.00  0.00     0.000 O
ATOM      7   O  Z9H D   1      24.483  33.844   7.7470  0.00  0.00     0.000 O
ATOM      8   C  Z9H D   1      23.980  33.792   9.0920  0.00  0.00     0.000 C
ATOM      9   O  Z9H D   1      27.255  34.427   7.6500  0.00  0.00     0.000 O
ATOM     10   C  Z9H D   1      27.479  33.016   7.5850  0.00  0.00     0.000 C
ENDROOT
BRANCH 2 11
ATOM     11   O  Z9H D   1      23.006  36.407   7.4320  0.00  0.00     0.000 O
ATOM     12   O  Z9H D   1      21.157  36.621   7.1230  0.00  0.00     0.000 OA
ATOM     13   S  Z9H D   1      22.076  36.057   6.1920  0.00  0.00     0.000 S
ATOM     14   O  Z9H D   1      21.989  34.629   6.0830  0.00  0.00     0.000 OA
ATOM     15   O  Z9H D   1      22.295  36.963   5.0880  0.00  0.00     0.000 O
ENDBRANCH 2 11
BRANCH 5 16
ATOM     16   C  Z9H D   1      28.401  35.724   4.9280  0.00  0.00     0.000 C
ATOM     17   S  Z9H D   1      30.129  36.332   4.1010  0.00  0.00     0.000 S
ATOM     18   O  Z9H D   1      29.439  36.436   5.5570  0.00  0.00     0.000 O
ATOM     19   O  Z9H D   1      29.480  37.090   3.0700  0.00  0.00     0.000 O
ATOM     20   O  Z9H D   1      30.649  35.025   3.8970  0.00  0.00     0.000 OA
ATOM     21   O  Z9H D   1      31.131  37.100   4.7810  0.00  0.00     0.000 OA
ENDBRANCH 5 16
BRANCH 1 22
ATOM     22  O4  GU1 D   2      25.129  37.973   7.3060  0.00  0.00     0.000 O
BRANCH 22 26
ATOM     23  C1  GU1 D   2      25.687  41.811   8.6950  0.00  0.00     0.000 C
ATOM     24  C2  GU1 D   2      24.468  41.624   7.8040  0.00  0.00     0.000 C
ATOM     25  C3  GU1 D   2      24.160  40.160   7.6850  0.00  0.00     0.000 C
ATOM     26  C4  GU1 D   2      25.387  39.380   7.2340  0.00  0.00     0.000 C
ATOM     27  C5  GU1 D   2      26.581  39.719   8.1310  0.00  0.00     0.000 C
ATOM     28  O5  GU1 D   2      26.808  41.125   8.1500  0.00  0.00     0.000 O
ATOM     29   O  GU1 D   2      23.319  42.279   8.3300  0.00  0.00     0.000 O
ATOM     30   C  GU1 D   2      23.084  43.563   7.7710  0.00  0.00     0.000 C
ATOM     31   C  GU1 D   2      21.828  39.759   7.2430  0.00  0.00     0.000 C
ATOM     32   O  GU1 D   2      23.128  39.993   6.7070  0.00  0.00     0.000 O
BRANCH 27 33
ATOM     33   C  GU1 D   2      27.843  39.053   7.6350  0.00  0.00     0.000 C
ATOM     34   O  GU1 D   2      28.286  39.387   6.5560  0.00  0.00     0.000 OA
ATOM     35   O  GU1 D   2      28.402  38.203   8.3100  0.00  0.00     0.000 O
ENDBRANCH 27 33
BRANCH 23 36
ATOM     36  O4  GU6 D   3      26.333  43.097   8.7720  0.00  0.00     0.000 O
BRANCH 36 40
ATOM     37  C1  GU6 D   3      27.436  47.004   8.3090  0.00  0.00     0.000 C
ATOM     38  C2  GU6 D   3      28.610  46.037   8.4050  0.00  0.00     0.000 C
ATOM     39  C3  GU6 D   3      28.107  44.621   8.2990  0.00  0.00     0.000 C
ATOM     40  C4  GU6 D   3      26.657  44.407   8.3510  0.00  0.00     0.000 C
ATOM     41  C5  GU6 D   3      26.020  45.394   9.3840  0.00  0.00     0.000 C
ATOM     42  O5  GU6 D   3      26.536  46.730   9.3720  0.00  0.00     0.000 O
BRANCH 38 43
ATOM     43   O  GU6 D   3      29.551  46.294   7.3810  0.00  0.00     0.000 O
ATOM     44   S  GU6 D   3      30.713  47.184   7.8030  0.00  0.00     0.000 S
ATOM     45   O  GU6 D   3      30.273  48.589   7.7410  0.00  0.00     0.000 OA
ATOM     46   O  GU6 D   3      31.084  46.848   9.1890  0.00  0.00     0.000 O
ATOM     47   O  GU6 D   3      31.841  46.941   6.9100  0.00  0.00     0.000 OA
ENDBRANCH 38 43
BRANCH 39 48
ATOM     48   O  GU6 D   3      28.976  43.568   7.9290  0.00  0.00     0.000 O
ATOM     49   S  GU6 D   3      29.973  42.776   8.7750  0.00  0.00     0.000 S
ATOM     50   O  GU6 D   3      29.294  42.182   9.9320  0.00  0.00     0.000 OA
ATOM     51   O  GU6 D   3      30.446  41.739   7.8470  0.00  0.00     0.000 OA
ATOM     52   O  GU6 D   3      31.046  43.687   9.2300  0.00  0.00     0.000 O
ENDBRANCH 39 48
BRANCH 41 53
ATOM     53   C  GU6 D   3      24.924  45.141  10.3850  0.00  0.00     0.000 C
ATOM     54   O  GU6 D   3      24.602  46.480  10.6570  0.00  0.00     0.000 O
ATOM     55   S  GU6 D   3      23.574  46.828  11.7420  0.00  0.00     0.000 S
ATOM     56   O  GU6 D   3      24.162  46.414  13.0370  0.00  0.00     0.000 O
ATOM     57   O  GU6 D   3      23.341  48.280  11.7180  0.00  0.00     0.000 OA
ATOM     58   O  GU6 D   3      22.345  46.059  11.4450  0.00  0.00     0.000 OA
ENDBRANCH 41 53
BRANCH 37 59
ATOM     59  O4  Z9K D   4      26.644  47.231   7.1240  0.00  0.00     0.000 O
BRANCH 59 63
ATOM     60  C1  Z9K D   4      25.168  48.519   3.7170  0.00  0.00     0.000 C
ATOM     61  C2  Z9K D   4      26.693  48.675   3.4620  0.00  0.00     0.000 C
ATOM     62  C3  Z9K D   4      27.288  47.984   4.7650  0.00  0.00     0.000 C
ATOM     63  C4  Z9K D   4      26.668  48.334   6.1710  0.00  0.00     0.000 C
ATOM     64  C5  Z9K D   4      25.203  48.796   6.1670  0.00  0.00     0.000 C
ATOM     65  O5  Z9K D   4      24.638  48.063   5.0490  0.00  0.00     0.000 O
ATOM     66   O  Z9K D   4      28.703  48.191   4.9230  0.00  0.00     0.000 O
ATOM     67   C  Z9K D   4      29.513  47.259   4.2250  0.00  0.00     0.000 C
BRANCH 61 68
ATOM     68   O  Z9K D   4      27.018  47.836   2.3880  0.00  0.00     0.000 O
ATOM     69   O  Z9K D   4      28.468  49.945   2.3880  0.00  0.00     0.000 OA
ATOM     70   S  Z9K D   4      27.343  49.301   1.7790  0.00  0.00     0.000 S
ATOM     71   O  Z9K D   4      26.114  49.936   1.4120  0.00  0.00     0.000 OA
ATOM     72   O  Z9K D   4      27.762  48.432   0.7270  0.00  0.00     0.000 OA
ENDBRANCH 61 68
BRANCH 64 73
ATOM     73   C  Z9K D   4      24.569  48.625   7.5630  0.00  0.00     0.000 C
ATOM     74   O  Z9K D   4      23.742  47.697   7.7980  0.00  0.00     0.000 O
ATOM     75   O  Z9K D   4      24.853  49.391   8.5170  0.00  0.00     0.000 OA
ENDBRANCH 64 73
BRANCH 60 76
ATOM     76  O4  Z9L D   5      24.122  49.482   3.5010  0.00  0.00     0.000 O
BRANCH 76 80
ATOM     77  C1  Z9L D   5      20.373  49.935   2.1930  0.00  0.00     0.000 C
ATOM     78  C2  Z9L D   5      20.383  50.346   3.7430  0.00  0.00     0.000 C
ATOM     79  C3  Z9L D   5      22.000  50.599   4.1690  0.00  0.00     0.000 C
ATOM     80  C4  Z9L D   5      22.729  49.333   3.4070  0.00  0.00     0.000 C
ATOM     81  C5  Z9L D   5      22.556  48.764   1.9080  0.00  0.00     0.000 C
ATOM     82  O5  Z9L D   5      21.151  48.808   1.6180  0.00  0.00     0.000 O
ATOM     83   C  Z9L D   5      20.628  50.911  -0.0160  0.00  0.00     0.000 C
ATOM     84   C  Z9L D   5      20.628  50.911  -0.0160  0.00  0.00     0.000 C
BRANCH 78 85
ATOM     85   O  Z9L D   5      19.683  51.542   3.8770  0.00  0.00     0.000 O
ATOM     86   O  Z9L D   5      18.007  51.745   4.8040  0.00  0.00     0.000 OA
ATOM     87   S  Z9L D   5      18.791  50.548   4.7710  0.00  0.00     0.000 S
ATOM     88   O  Z9L D   5      19.277  50.382   6.1180  0.00  0.00     0.000 OA
ATOM     89   O  Z9L D   5      17.998  49.601   4.0650  0.00  0.00     0.000 OA
ENDBRANCH 78 85
BRANCH 79 90
ATOM     90   O  Z9L D   5      22.222  50.311   5.5130  0.00  0.00     0.000 O
ATOM     91   S  Z9L D   5      22.719  51.824   5.4780  0.00  0.00     0.000 S
ATOM     92   O  Z9L D   5      21.881  52.900   5.0190  0.00  0.00     0.000 OA
ATOM     93   O  Z9L D   5      24.145  51.852   5.2670  0.00  0.00     0.000 O
ATOM     94   O  Z9L D   5      22.504  51.689   6.8820  0.00  0.00     0.000 OA
ENDBRANCH 79 90
BRANCH 81 95
ATOM     95   C  Z9L D   5      23.412  47.377   1.5080  0.00  0.00     0.000 C
ATOM     96   S  Z9L D   5      23.289  45.404   1.2680  0.00  0.00     0.000 S
ATOM     97   O  Z9L D   5      22.651  46.459   2.2470  0.00  0.00     0.000 O
ATOM     98   O  Z9L D   5      24.670  45.264   1.6530  0.00  0.00     0.000 OA
ATOM     99   O  Z9L D   5      22.909  45.518  -0.1000  0.00  0.00     0.000 OA
ATOM    100   O  Z9L D   5      22.499  44.505   2.0730  0.00  0.00     0.000 O
ENDBRANCH 81 95
ENDBRANCH 76 80
ENDBRANCH 60 76
ENDBRANCH 59 63
ENDBRANCH 37 59
ENDBRANCH 36 40
ENDBRANCH 23 36
ENDBRANCH 22 26
ENDBRANCH 1 22
TORSDOF 19
ENDMDL
MODEL 30
REMARK VINA RESULT:      -2.9      5.074     14.767
ROOT
ATOM      1  C1  Z9H D   1      15.263  42.207   8.4420  0.00  0.00     0.000 C
ATOM      2  C2  Z9H D   1      14.290  43.305   7.9510  0.00  0.00     0.000 C
ATOM      3  C3  Z9H D   1      14.341  44.226   9.2080  0.00  0.00     0.000 C
ATOM      4  C4  Z9H D   1      14.103  43.496  10.5950  0.00  0.00     0.000 C
ATOM      5  C5  Z9H D   1      14.835  42.156  11.0030  0.00  0.00     0.000 C
ATOM      6  O5  Z9H D   1      15.031  41.531   9.7090  0.00  0.00     0.000 O
ATOM      7   O  Z9H D   1      13.460  45.344   9.0780  0.00  0.00     0.000 O
ATOM      8   C  Z9H D   1      14.080  46.570   8.6560  0.00  0.00     0.000 C
ATOM      9   O  Z9H D   1      14.406  44.467  11.6020  0.00  0.00     0.000 O
ATOM     10   C  Z9H D   1      13.278  45.132  12.1770  0.00  0.00     0.000 C
ENDROOT
BRANCH 2 11
ATOM     11   O  Z9H D   1      15.061  43.966   6.9820  0.00  0.00     0.000 O
ATOM     12   O  Z9H D   1      14.696  43.931   5.1320  0.00  0.00     0.000 OA
ATOM     13   S  Z9H D   1      13.895  43.305   6.1300  0.00  0.00     0.000 S
ATOM     14   O  Z9H D   1      12.675  44.004   6.4170  0.00  0.00     0.000 OA
ATOM     15   O  Z9H D   1      14.033  41.869   6.0590  0.00  0.00     0.000 O
ENDBRANCH 2 11
BRANCH 5 16
ATOM     16   C  Z9H D   1      14.135  41.324  12.2750  0.00  0.00     0.000 C
ATOM     17   S  Z9H D   1      13.470  39.525  12.8760  0.00  0.00     0.000 S
ATOM     18   O  Z9H D   1      14.739  40.074  12.0420  0.00  0.00     0.000 O
ATOM     19   O  Z9H D   1      12.206  39.664  12.2110  0.00  0.00     0.000 O
ATOM     20   O  Z9H D   1      13.651  39.772  14.2640  0.00  0.00     0.000 OA
ATOM     21   O  Z9H D   1      14.105  38.278  12.5670  0.00  0.00     0.000 OA
ENDBRANCH 5 16
BRANCH 1 22
ATOM     22  O4  GU1 D   2      16.656  42.651   8.6270  0.00  0.00     0.000 O
BRANCH 22 26
ATOM     23  C1  GU1 D   2      20.556  41.335   8.7910  0.00  0.00     0.000 C
ATOM     24  C2  GU1 D   2      19.618  40.456   7.9770  0.00  0.00     0.000 C
ATOM     25  C3  GU1 D   2      18.360  41.218   7.6750  0.00  0.00     0.000 C
ATOM     26  C4  GU1 D   2      17.743  41.776   8.9490  0.00  0.00     0.000 C
ATOM     27  C5  GU1 D   2      18.795  42.554   9.7440  0.00  0.00     0.000 C
ATOM     28  O5  GU1 D   2      19.931  41.734  10.0050  0.00  0.00     0.000 O
ATOM     29   O  GU1 D   2      20.201  40.055   6.7430  0.00  0.00     0.000 O
ATOM     30   C  GU1 D   2      20.796  38.765   6.7810  0.00  0.00     0.000 C
ATOM     31   C  GU1 D   2      17.302  40.452   5.6530  0.00  0.00     0.000 C
ATOM     32   O  GU1 D   2      17.424  40.322   7.0680  0.00  0.00     0.000 O
BRANCH 27 33
ATOM     33   C  GU1 D   2      18.245  43.018  11.0720  0.00  0.00     0.000 C
ATOM     34   O  GU1 D   2      18.061  44.206  11.2380  0.00  0.00     0.000 OA
ATOM     35   O  GU1 D   2      17.989  42.212  11.9530  0.00  0.00     0.000 O
ENDBRANCH 27 33
BRANCH 23 36
ATOM     36  O4  GU6 D   3      21.721  40.760   9.4150  0.00  0.00     0.000 O
BRANCH 36 40
ATOM     37  C1  GU6 D   3      25.055  38.601  10.3720  0.00  0.00     0.000 C
ATOM     38  C2  GU6 D   3      23.970  38.571  11.4420  0.00  0.00     0.000 C
ATOM     39  C3  GU6 D   3      22.698  39.157  10.8880  0.00  0.00     0.000 C
ATOM     40  C4  GU6 D   3      22.768  39.826   9.5840  0.00  0.00     0.000 C
ATOM     41  C5  GU6 D   3      24.114  40.616   9.4730  0.00  0.00     0.000 C
ATOM     42  O5  GU6 D   3      25.273  39.950   9.9870  0.00  0.00     0.000 O
BRANCH 38 43
ATOM     43   O  GU6 D   3      23.741  37.246  11.8800  0.00  0.00     0.000 O
ATOM     44   S  GU6 D   3      24.661  36.786  13.0040  0.00  0.00     0.000 S
ATOM     45   O  GU6 D   3      25.943  36.362  12.4140  0.00  0.00     0.000 OA
ATOM     46   O  GU6 D   3      24.893  37.921  13.9160  0.00  0.00     0.000 O
ATOM     47   O  GU6 D   3      24.017  35.691  13.7210  0.00  0.00     0.000 OA
ENDBRANCH 38 43
BRANCH 39 48
ATOM     48   O  GU6 D   3      21.447  38.872  11.4830  0.00  0.00     0.000 O
ATOM     49   S  GU6 D   3      20.870  39.333  12.8210  0.00  0.00     0.000 S
ATOM     50   O  GU6 D   3      20.889  40.798  12.9020  0.00  0.00     0.000 OA
ATOM     51   O  GU6 D   3      19.494  38.821  12.7850  0.00  0.00     0.000 OA
ATOM     52   O  GU6 D   3      21.679  38.755  13.9170  0.00  0.00     0.000 O
ENDBRANCH 39 48
BRANCH 41 53
ATOM     53   C  GU6 D   3      24.367  41.977   8.8840  0.00  0.00     0.000 C
ATOM     54   O  GU6 D   3      25.499  41.648   8.1220  0.00  0.00     0.000 O
ATOM     55   S  GU6 D   3      26.273  42.737   7.3660  0.00  0.00     0.000 S
ATOM     56   O  GU6 D   3      26.874  43.623   8.3900  0.00  0.00     0.000 O
ATOM     57   O  GU6 D   3      27.318  42.094   6.5570  0.00  0.00     0.000 OA
ATOM     58   O  GU6 D   3      25.295  43.473   6.5340  0.00  0.00     0.000 OA
ENDBRANCH 41 53
BRANCH 37 59
ATOM     59  O4  Z9K D   4      25.054  37.805   9.1690  0.00  0.00     0.000 O
BRANCH 59 63
ATOM     60  C1  Z9K D   4      28.296  35.757   8.3070  0.00  0.00     0.000 C
ATOM     61  C2  Z9K D   4      28.794  37.213   8.0910  0.00  0.00     0.000 C
ATOM     62  C3  Z9K D   4      27.541  38.041   8.6160  0.00  0.00     0.000 C
ATOM     63  C4  Z9K D   4      26.093  37.611   8.1650  0.00  0.00     0.000 C
ATOM     64  C5  Z9K D   4      25.915  36.132   7.7890  0.00  0.00     0.000 C
ATOM     65  O5  Z9K D   4      26.864  35.462   8.6590  0.00  0.00     0.000 O
ATOM     66   O  Z9K D   4      27.620  39.446   8.3150  0.00  0.00     0.000 O
ATOM     67   C  Z9K D   4      28.349  40.208   9.2630  0.00  0.00     0.000 C
BRANCH 61 68
ATOM     68   O  Z9K D   4      29.826  37.436   9.0110  0.00  0.00     0.000 O
ATOM     69   O  Z9K D   4      30.243  38.704   6.8280  0.00  0.00     0.000 OA
ATOM     70   S  Z9K D   4      30.607  37.553   7.5970  0.00  0.00     0.000 S
ATOM     71   O  Z9K D   4      30.832  36.238   7.0790  0.00  0.00     0.000 OA
ATOM     72   O  Z9K D   4      31.630  37.873   8.5400  0.00  0.00     0.000 OA
ENDBRANCH 61 68
BRANCH 64 73
ATOM     73   C  Z9K D   4      24.428  35.724   7.8580  0.00  0.00     0.000 C
ATOM     74   O  Z9K D   4      23.987  35.012   8.8070  0.00  0.00     0.000 O
ATOM     75   O  Z9K D   4      23.602  36.085   6.9850  0.00  0.00     0.000 OA
ENDBRANCH 64 73
BRANCH 60 76
ATOM     76  O4  Z9L D   5      28.434  34.626   7.4300  0.00  0.00     0.000 O
BRANCH 76 80
ATOM     77  C1  Z9L D   5      29.170  30.699   7.3230  0.00  0.00     0.000 C
ATOM     78  C2  Z9L D   5      27.688  30.915   6.7500  0.00  0.00     0.000 C
ATOM     79  C3  Z9L D   5      27.550  32.557   6.3650  0.00  0.00     0.000 C
ATOM     80  C4  Z9L D   5      28.292  33.248   7.6640  0.00  0.00     0.000 C
ATOM     81  C5  Z9L D   5      29.682  32.891   8.3980  0.00  0.00     0.000 C
ATOM     82  O5  Z9L D   5      29.748  31.458   8.4620  0.00  0.00     0.000 O
ATOM     83   C  Z9L D   5      31.475  30.546   6.5770  0.00  0.00     0.000 C
ATOM     84   C  Z9L D   5      31.475  30.546   6.5770  0.00  0.00     0.000 C
BRANCH 78 85
ATOM     85   O  Z9L D   5      27.561  30.162   5.5860  0.00  0.00     0.000 O
ATOM     86   O  Z9L D   5      26.470  28.585   5.4020  0.00  0.00     0.000 OA
ATOM     87   S  Z9L D   5      26.506  29.433   6.5550  0.00  0.00     0.000 S
ATOM     88   O  Z9L D   5      25.213  30.070   6.5910  0.00  0.00     0.000 OA
ATOM     89   O  Z9L D   5      27.051  28.628   7.5940  0.00  0.00     0.000 OA
ENDBRANCH 78 85
BRANCH 79 90
ATOM     90   O  Z9L D   5      26.237  32.999   6.4950  0.00  0.00     0.000 O
ATOM     91   S  Z9L D   5      26.491  33.364   4.9660  0.00  0.00     0.000 S
ATOM     92   O  Z9L D   5      26.911  32.383   4.0000  0.00  0.00     0.000 OA
ATOM     93   O  Z9L D   5      26.926  34.735   4.8680  0.00  0.00     0.000 O
ATOM     94   O  Z9L D   5      25.064  33.373   4.9660  0.00  0.00     0.000 OA
ENDBRANCH 79 90
BRANCH 81 95
ATOM     95   C  Z9L D   5      30.075  33.770   9.7710  0.00  0.00     0.000 C
ATOM     96   S  Z9L D   5      30.780  33.655  11.6300  0.00  0.00     0.000 S
ATOM     97   O  Z9L D   5      29.859  32.760  10.7190  0.00  0.00     0.000 O
ATOM     98   O  Z9L D   5      30.000  34.806  12.0050  0.00  0.00     0.000 OA
ATOM     99   O  Z9L D   5      32.133  33.783  11.2060  0.00  0.00     0.000 OA
ATOM    100   O  Z9L D   5      30.508  32.594  12.5690  0.00  0.00     0.000 O
ENDBRANCH 81 95
ENDBRANCH 76 80
ENDBRANCH 60 76
ENDBRANCH 59 63
ENDBRANCH 37 59
ENDBRANCH 36 40
ENDBRANCH 23 36
ENDBRANCH 22 26
ENDBRANCH 1 22
TORSDOF 19
ENDMDL
MODEL 31
REMARK VINA RESULT:      -2.7      9.710     15.601
ROOT
ATOM      1  C1  Z9H D   1      35.312  42.599   8.0570  0.00  0.00     0.000 C
ATOM      2  C2  Z9H D   1      36.742  42.535   7.4700  0.00  0.00     0.000 C
ATOM      3  C3  Z9H D   1      36.603  41.191   6.6910  0.00  0.00     0.000 C
ATOM      4  C4  Z9H D   1      36.016  39.979   7.5270  0.00  0.00     0.000 C
ATOM      5  C5  Z9H D   1      34.726  40.098   8.4320  0.00  0.00     0.000 C
ATOM      6  O5  Z9H D   1      34.785  41.489   8.8350  0.00  0.00     0.000 O
ATOM      7   O  Z9H D   1      37.831  40.815   6.0660  0.00  0.00     0.000 O
ATOM      8   C  Z9H D   1      37.938  41.144   4.6700  0.00  0.00     0.000 C
ATOM      9   O  Z9H D   1      35.773  38.935   6.5790  0.00  0.00     0.000 O
ATOM     10   C  Z9H D   1      36.779  37.920   6.5070  0.00  0.00     0.000 C
ENDROOT
BRANCH 2 11
ATOM     11   O  Z9H D   1      36.699  43.534   6.4860  0.00  0.00     0.000 O
ATOM     12   O  Z9H D   1      37.704  45.129   6.5500  0.00  0.00     0.000 OA
ATOM     13   S  Z9H D   1      37.774  44.086   7.5170  0.00  0.00     0.000 S
ATOM     14   O  Z9H D   1      38.955  43.277   7.4130  0.00  0.00     0.000 OA
ATOM     15   O  Z9H D   1      37.160  44.505   8.7560  0.00  0.00     0.000 O
ENDBRANCH 2 11
BRANCH 5 16
ATOM     16   C  Z9H D   1      34.533  38.872   9.5550  0.00  0.00     0.000 C
ATOM     17   S  Z9H D   1      34.125  38.479  11.4830  0.00  0.00     0.000 S
ATOM     18   O  Z9H D   1      33.573  39.505  10.3670  0.00  0.00     0.000 O
ATOM     19   O  Z9H D   1      35.471  38.726  11.9170  0.00  0.00     0.000 O
ATOM     20   O  Z9H D   1      33.610  37.175  11.2490  0.00  0.00     0.000 OA
ATOM     21   O  Z9H D   1      33.167  39.193  12.2750  0.00  0.00     0.000 OA
ENDBRANCH 5 16
BRANCH 1 22
ATOM     22  O4  GU1 D   2      34.240  42.759   7.0590  0.00  0.00     0.000 O
BRANCH 22 26
ATOM     23  C1  GU1 D   2      30.596  44.524   6.2990  0.00  0.00     0.000 C
ATOM     24  C2  GU1 D   2      31.525  45.333   7.1910  0.00  0.00     0.000 C
ATOM     25  C3  GU1 D   2      32.920  44.789   7.0800  0.00  0.00     0.000 C
ATOM     26  C4  GU1 D   2      32.943  43.292   7.3510  0.00  0.00     0.000 C
ATOM     27  C5  GU1 D   2      31.901  42.585   6.4790  0.00  0.00     0.000 C
ATOM     28  O5  GU1 D   2      30.611  43.154   6.6830  0.00  0.00     0.000 O
ATOM     29   O  GU1 D   2      31.553  46.707   6.8220  0.00  0.00     0.000 O
ATOM     30   C  GU1 D   2      30.685  47.527   7.5920  0.00  0.00     0.000 C
ATOM     31   C  GU1 D   2      34.584  46.467   7.5350  0.00  0.00     0.000 C
ATOM     32   O  GU1 D   2      33.739  45.443   8.0540  0.00  0.00     0.000 O
BRANCH 27 33
ATOM     33   C  GU1 D   2      31.816  41.114   6.8130  0.00  0.00     0.000 C
ATOM     34   O  GU1 D   2      32.214  40.312   5.9930  0.00  0.00     0.000 OA
ATOM     35   O  GU1 D   2      31.362  40.746   7.8850  0.00  0.00     0.000 O
ENDBRANCH 27 33
BRANCH 23 36
ATOM     36  O4  GU6 D   3      29.168  44.685   6.4100  0.00  0.00     0.000 O
BRANCH 36 40
ATOM     37  C1  GU6 D   3      25.274  44.218   7.5560  0.00  0.00     0.000 C
ATOM     38  C2  GU6 D   3      25.455  45.091   6.3200  0.00  0.00     0.000 C
ATOM     39  C3  GU6 D   3      26.873  44.978   5.8260  0.00  0.00     0.000 C
ATOM     40  C4  GU6 D   3      27.840  44.284   6.6830  0.00  0.00     0.000 C
ATOM     41  C5  GU6 D   3      27.553  44.629   8.1820  0.00  0.00     0.000 C
ATOM     42  O5  GU6 D   3      26.172  44.664   8.5600  0.00  0.00     0.000 O
BRANCH 38 43
ATOM     43   O  GU6 D   3      24.555  44.701   5.3000  0.00  0.00     0.000 O
ATOM     44   S  GU6 D   3      23.265  45.509   5.2570  0.00  0.00     0.000 S
ATOM     45   O  GU6 D   3      22.340  44.968   6.2690  0.00  0.00     0.000 OA
ATOM     46   O  GU6 D   3      23.577  46.913   5.5800  0.00  0.00     0.000 O
ATOM     47   O  GU6 D   3      22.697  45.418   3.9160  0.00  0.00     0.000 OA
ENDBRANCH 38 43
BRANCH 39 48
ATOM     48   O  GU6 D   3      27.207  45.317   4.4930  0.00  0.00     0.000 O
ATOM     49   S  GU6 D   3      27.514  46.682   3.8760  0.00  0.00     0.000 S
ATOM     50   O  GU6 D   3      28.602  47.336   4.6110  0.00  0.00     0.000 OA
ATOM     51   O  GU6 D   3      27.925  46.343   2.5070  0.00  0.00     0.000 OA
ATOM     52   O  GU6 D   3      26.293  47.517   3.9290  0.00  0.00     0.000 O
ENDBRANCH 39 48
BRANCH 41 53
ATOM     53   C  GU6 D   3      28.527  44.916   9.2920  0.00  0.00     0.000 C
ATOM     54   O  GU6 D   3      28.895  43.590   9.5700  0.00  0.00     0.000 O
ATOM     55   S  GU6 D   3      29.828  43.272  10.7460  0.00  0.00     0.000 S
ATOM     56   O  GU6 D   3      29.092  43.623  11.9830  0.00  0.00     0.000 O
ATOM     57   O  GU6 D   3      30.143  41.836  10.7190  0.00  0.00     0.000 OA
ATOM     58   O  GU6 D   3      31.036  44.112  10.5890  0.00  0.00     0.000 OA
ENDBRANCH 41 53
BRANCH 37 59
ATOM     59  O4  Z9K D   4      25.304  42.775   7.5630  0.00  0.00     0.000 O
BRANCH 59 63
ATOM     60  C1  Z9K D   4      23.450  39.450   8.5400  0.00  0.00     0.000 C
ATOM     61  C2  Z9K D   4      22.986  40.400   9.6790  0.00  0.00     0.000 C
ATOM     62  C3  Z9K D   4      23.586  41.785   9.1800  0.00  0.00     0.000 C
ATOM     63  C4  Z9K D   4      25.070  41.832   8.6490  0.00  0.00     0.000 C
ATOM     64  C5  Z9K D   4      25.621  40.521   8.0710  0.00  0.00     0.000 C
ATOM     65  O5  Z9K D   4      24.440  39.898   7.5000  0.00  0.00     0.000 O
ATOM     66   O  Z9K D   4      23.515  42.826  10.1710  0.00  0.00     0.000 O
ATOM     67   C  Z9K D   4      22.283  43.526  10.1980  0.00  0.00     0.000 C
BRANCH 61 68
ATOM     68   O  Z9K D   4      21.593  40.515   9.5760  0.00  0.00     0.000 O
ATOM     69   O  Z9K D   4      22.358  40.673  12.0130  0.00  0.00     0.000 OA
ATOM     70   S  Z9K D   4      21.765  39.819  11.0290  0.00  0.00     0.000 S
ATOM     71   O  Z9K D   4      22.050  38.428  10.8480  0.00  0.00     0.000 OA
ATOM     72   O  Z9K D   4      20.356  40.029  10.9540  0.00  0.00     0.000 OA
ENDBRANCH 61 68
BRANCH 64 73
ATOM     73   C  Z9K D   4      26.833  40.791   7.1550  0.00  0.00     0.000 C
ATOM     74   O  Z9K D   4      26.711  40.813   5.8950  0.00  0.00     0.000 O
ATOM     75   O  Z9K D   4      27.979  41.006   7.6200  0.00  0.00     0.000 OA
ENDBRANCH 64 73
BRANCH 60 76
ATOM     76  O4  Z9L D   5      23.990  38.122   8.6470  0.00  0.00     0.000 O
BRANCH 76 80
ATOM     77  C1  Z9L D   5      23.879  34.426   7.1310  0.00  0.00     0.000 C
ATOM     78  C2  Z9L D   5      25.337  35.017   6.8210  0.00  0.00     0.000 C
ATOM     79  C3  Z9L D   5      25.544  36.355   7.8340  0.00  0.00     0.000 C
ATOM     80  C4  Z9L D   5      24.066  37.073   7.7160  0.00  0.00     0.000 C
ATOM     81  C5  Z9L D   5      22.582  36.449   7.7970  0.00  0.00     0.000 C
ATOM     82  O5  Z9L D   5      22.622  35.215   7.0660  0.00  0.00     0.000 O
ATOM     83   C  Z9L D   5      22.688  33.132   8.8040  0.00  0.00     0.000 C
ATOM     84   C  Z9L D   5      22.688  33.132   8.8040  0.00  0.00     0.000 C
BRANCH 78 85
ATOM     85   O  Z9L D   5      26.277  34.045   7.1510  0.00  0.00     0.000 O
ATOM     86   O  Z9L D   5      27.363  33.081   5.8850  0.00  0.00     0.000 OA
ATOM     87   S  Z9L D   5      26.489  34.167   5.5620  0.00  0.00     0.000 S
ATOM     88   O  Z9L D   5      27.362  35.247   5.1740  0.00  0.00     0.000 OA
ATOM     89   O  Z9L D   5      25.474  33.600   4.7420  0.00  0.00     0.000 OA
ENDBRANCH 78 85
BRANCH 79 90
ATOM     90   O  Z9L D   5      26.387  37.302   7.2590  0.00  0.00     0.000 O
ATOM     91   S  Z9L D   5      27.203  36.994   8.5910  0.00  0.00     0.000 S
ATOM     92   O  Z9L D   5      27.621  35.664   8.9490  0.00  0.00     0.000 OA
ATOM     93   O  Z9L D   5      26.843  37.955   9.6040  0.00  0.00     0.000 O
ATOM     94   O  Z9L D   5      28.251  37.572   7.8140  0.00  0.00     0.000 OA
ENDBRANCH 79 90
BRANCH 81 95
ATOM     95   C  Z9L D   5      21.294  37.491   7.5360  0.00  0.00     0.000 C
ATOM     96   S  Z9L D   5      19.996  38.165   6.1830  0.00  0.00     0.000 S
ATOM     97   O  Z9L D   5      21.509  37.728   6.1700  0.00  0.00     0.000 O
ATOM     98   O  Z9L D   5      19.937  39.435   6.8620  0.00  0.00     0.000 OA
ATOM     99   O  Z9L D   5      19.055  37.133   6.4610  0.00  0.00     0.000 OA
ATOM    100   O  Z9L D   5      20.281  38.406   4.7900  0.00  0.00     0.000 O
ENDBRANCH 81 95
ENDBRANCH 76 80
ENDBRANCH 60 76
ENDBRANCH 59 63
ENDBRANCH 37 59
ENDBRANCH 36 40
ENDBRANCH 23 36
ENDBRANCH 22 26
ENDBRANCH 1 22
TORSDOF 19
ENDMDL
MODEL 32
REMARK VINA RESULT:      -2.3      5.988     14.912
ROOT
ATOM      1  C1  Z9H D   1      14.985  47.255  17.5930  0.00  0.00     0.000 C
ATOM      2  C2  Z9H D   1      14.038  48.439  17.9010  0.00  0.00     0.000 C
ATOM      3  C3  Z9H D   1      14.217  49.220  16.5630  0.00  0.00     0.000 C
ATOM      4  C4  Z9H D   1      15.717  49.479  16.1220  0.00  0.00     0.000 C
ATOM      5  C5  Z9H D   1      16.824  48.350  16.1220  0.00  0.00     0.000 C
ATOM      6  O5  Z9H D   1      16.365  47.498  17.2020  0.00  0.00     0.000 O
ATOM      7   O  Z9H D   1      13.482  50.446  16.5680  0.00  0.00     0.000 O
ATOM      8   C  Z9H D   1      12.209  50.404  15.9020  0.00  0.00     0.000 C
ATOM      9   O  Z9H D   1      15.646  50.002  14.7920  0.00  0.00     0.000 O
ATOM     10   C  Z9H D   1      15.756  51.424  14.6810  0.00  0.00     0.000 C
ENDROOT
BRANCH 2 11
ATOM     11   O  Z9H D   1      12.775  47.834  17.8060  0.00  0.00     0.000 O
ATOM     12   O  Z9H D   1      11.587  47.626  19.2560  0.00  0.00     0.000 OA
ATOM     13   S  Z9H D   1      12.851  48.280  19.3290  0.00  0.00     0.000 S
ATOM     14   O  Z9H D   1      12.761  49.711  19.3850  0.00  0.00     0.000 OA
ATOM     15   O  Z9H D   1      13.792  47.476  20.0740  0.00  0.00     0.000 O
ENDBRANCH 2 11
BRANCH 5 16
ATOM     16   C  Z9H D   1      18.401  48.905  16.0600  0.00  0.00     0.000 C
ATOM     17   S  Z9H D   1      20.308  48.447  16.5000  0.00  0.00     0.000 S
ATOM     18   O  Z9H D   1      19.036  47.660  15.8930  0.00  0.00     0.000 O
ATOM     19   O  Z9H D   1      20.181  48.825  17.8780  0.00  0.00     0.000 O
ATOM     20   O  Z9H D   1      20.881  49.290  15.5100  0.00  0.00     0.000 OA
ATOM     21   O  Z9H D   1      20.887  47.144  16.3520  0.00  0.00     0.000 OA
ENDBRANCH 5 16
BRANCH 1 22
ATOM     22  O4  GU1 D   2      14.546  46.381  16.4910  0.00  0.00     0.000 O
BRANCH 22 26
ATOM     23  C1  GU1 D   2      14.332  42.483  15.1740  0.00  0.00     0.000 C
ATOM     24  C2  GU1 D   2      14.198  42.658  16.6790  0.00  0.00     0.000 C
ATOM     25  C3  GU1 D   2      13.908  44.098  16.9890  0.00  0.00     0.000 C
ATOM     26  C4  GU1 D   2      14.941  45.012  16.3450  0.00  0.00     0.000 C
ATOM     27  C5  GU1 D   2      15.073  44.684  14.8540  0.00  0.00     0.000 C
ATOM     28  O5  GU1 D   2      15.380  43.304  14.6720  0.00  0.00     0.000 O
ATOM     29   O  GU1 D   2      13.143  41.868  17.2150  0.00  0.00     0.000 O
ATOM     30   C  GU1 D   2      13.574  40.628  17.7590  0.00  0.00     0.000 C
ATOM     31   C  GU1 D   2      12.692  44.354  19.0500  0.00  0.00     0.000 C
ATOM     32   O  GU1 D   2      13.962  44.276  18.4080  0.00  0.00     0.000 O
BRANCH 27 33
ATOM     33   C  GU1 D   2      16.177  45.492  14.2130  0.00  0.00     0.000 C
ATOM     34   O  GU1 D   2      15.870  46.396  13.4630  0.00  0.00     0.000 OA
ATOM     35   O  GU1 D   2      17.348  45.241  14.4500  0.00  0.00     0.000 O
ENDBRANCH 27 33
BRANCH 23 36
ATOM     36  O4  GU6 D   3      14.850  41.251  14.6350  0.00  0.00     0.000 O
BRANCH 36 40
ATOM     37  C1  GU6 D   3      16.817  38.342  12.5480  0.00  0.00     0.000 C
ATOM     38  C2  GU6 D   3      15.300  38.265  12.4350  0.00  0.00     0.000 C
ATOM     39  C3  GU6 D   3      14.687  39.519  13.0020  0.00  0.00     0.000 C
ATOM     40  C4  GU6 D   3      15.569  40.439  13.7290  0.00  0.00     0.000 C
ATOM     41  C5  GU6 D   3      16.604  39.618  14.5670  0.00  0.00     0.000 C
ATOM     42  O5  GU6 D   3      17.163  38.470  13.9180  0.00  0.00     0.000 O
BRANCH 38 43
ATOM     43   O  GU6 D   3      14.909  38.104  11.0850  0.00  0.00     0.000 O
ATOM     44   S  GU6 D   3      14.727  36.656  10.6500  0.00  0.00     0.000 S
ATOM     45   O  GU6 D   3      16.049  36.094  10.3260  0.00  0.00     0.000 OA
ATOM     46   O  GU6 D   3      14.134  35.900  11.7690  0.00  0.00     0.000 O
ATOM     47   O  GU6 D   3      13.836  36.620   9.4950  0.00  0.00     0.000 OA
ENDBRANCH 38 43
BRANCH 39 48
ATOM     48   O  GU6 D   3      13.374  39.909  12.6500  0.00  0.00     0.000 O
ATOM     49   S  GU6 D   3      12.030  39.446  13.2100  0.00  0.00     0.000 S
ATOM     50   O  GU6 D   3      11.996  39.637  14.6650  0.00  0.00     0.000 OA
ATOM     51   O  GU6 D   3      11.067  40.327  12.5360  0.00  0.00     0.000 OA
ATOM     52   O  GU6 D   3      11.841  38.015  12.8830  0.00  0.00     0.000 O
ENDBRANCH 39 48
BRANCH 41 53
ATOM     53   C  GU6 D   3      17.110  39.874  15.9610  0.00  0.00     0.000 C
ATOM     54   O  GU6 D   3      17.962  40.949  15.6600  0.00  0.00     0.000 O
ATOM     55   S  GU6 D   3      18.858  41.559  16.7460  0.00  0.00     0.000 S
ATOM     56   O  GU6 D   3      19.844  40.519  17.1220  0.00  0.00     0.000 O
ATOM     57   O  GU6 D   3      19.535  42.739  16.1870  0.00  0.00     0.000 OA
ATOM     58   O  GU6 D   3      17.987  41.905  17.8910  0.00  0.00     0.000 OA
ENDBRANCH 41 53
BRANCH 37 59
ATOM     59  O4  Z9K D   4      17.659  39.250  11.8050  0.00  0.00     0.000 O
BRANCH 59 63
ATOM     60  C1  Z9K D   4      19.356  41.525   9.0870  0.00  0.00     0.000 C
ATOM     61  C2  Z9K D   4      17.856  41.874   8.8780  0.00  0.00     0.000 C
ATOM     62  C3  Z9K D   4      17.193  41.096  10.0960  0.00  0.00     0.000 C
ATOM     63  C4  Z9K D   4      17.639  39.614  10.3940  0.00  0.00     0.000 C
ATOM     64  C5  Z9K D   4      19.054  39.229   9.9360  0.00  0.00     0.000 C
ATOM     65  O5  Z9K D   4      19.787  40.475  10.0740  0.00  0.00     0.000 O
ATOM     66   O  Z9K D   4      15.757  41.042  10.0230  0.00  0.00     0.000 O
ATOM     67   C  Z9K D   4      15.100  42.175  10.5680  0.00  0.00     0.000 C
BRANCH 61 68
ATOM     68   O  Z9K D   4      17.710  43.240   9.1570  0.00  0.00     0.000 O
ATOM     69   O  Z9K D   4      16.096  42.492   7.3170  0.00  0.00     0.000 OA
ATOM     70   S  Z9K D   4      17.325  43.175   7.5850  0.00  0.00     0.000 S
ATOM     71   O  Z9K D   4      18.527  43.068   6.8150  0.00  0.00     0.000 OA
ATOM     72   O  Z9K D   4      17.087  44.546   7.9040  0.00  0.00     0.000 OA
ENDBRANCH 61 68
BRANCH 64 73
ATOM     73   C  Z9K D   4      19.558  37.984  10.6950  0.00  0.00     0.000 C
ATOM     74   O  Z9K D   4      19.178  36.821  10.3710  0.00  0.00     0.000 O
ATOM     75   O  Z9K D   4      20.364  38.074  11.6530  0.00  0.00     0.000 OA
ENDBRANCH 64 73
BRANCH 60 76
ATOM     76  O4  Z9L D   5      20.335  41.160   8.0990  0.00  0.00     0.000 O
BRANCH 76 80
ATOM     77  C1  Z9L D   5      24.245  41.124   7.2730  0.00  0.00     0.000 C
ATOM     78  C2  Z9L D   5      23.765  39.595   7.3400  0.00  0.00     0.000 C
ATOM     79  C3  Z9L D   5      22.077  39.611   7.2260  0.00  0.00     0.000 C
ATOM     80  C4  Z9L D   5      21.706  40.879   8.2110  0.00  0.00     0.000 C
ATOM     81  C5  Z9L D   5      22.342  42.357   8.3110  0.00  0.00     0.000 C
ATOM     82  O5  Z9L D   5      23.762  42.196   8.1810  0.00  0.00     0.000 O
ATOM     83   C  Z9L D   5      24.536  42.940   5.6880  0.00  0.00     0.000 C
ATOM     84   C  Z9L D   5      24.536  42.940   5.6880  0.00  0.00     0.000 C
BRANCH 78 85
ATOM     85   O  Z9L D   5      24.290  38.929   6.2370  0.00  0.00     0.000 O
ATOM     86   O  Z9L D   5      25.661  37.578   6.3090  0.00  0.00     0.000 OA
ATOM     87   S  Z9L D   5      25.031  38.175   7.4470  0.00  0.00     0.000 S
ATOM     88   O  Z9L D   5      24.249  37.117   8.0380  0.00  0.00     0.000 OA
ATOM     89   O  Z9L D   5      26.060  38.899   8.1090  0.00  0.00     0.000 OA
ENDBRANCH 78 85
BRANCH 79 90
ATOM     90   O  Z9L D   5      21.514  38.530   7.8990  0.00  0.00     0.000 O
ATOM     91   S  Z9L D   5      20.866  38.315   6.4600  0.00  0.00     0.000 S
ATOM     92   O  Z9L D   5      21.663  38.187   5.2680  0.00  0.00     0.000 OA
ATOM     93   O  Z9L D   5      19.570  38.945   6.4210  0.00  0.00     0.000 O
ATOM     94   O  Z9L D   5      20.682  37.003   6.9890  0.00  0.00     0.000 OA
ENDBRANCH 79 90
BRANCH 81 95
ATOM     95   C  Z9L D   5      21.759  43.365   9.5180  0.00  0.00     0.000 C
ATOM     96   S  Z9L D   5      21.548  45.260  10.0930  0.00  0.00     0.000 S
ATOM     97   O  Z9L D   5      22.646  44.434   9.3250  0.00  0.00     0.000 O
ATOM     98   O  Z9L D   5      21.615  44.856  11.4740  0.00  0.00     0.000 OA
ATOM     99   O  Z9L D   5      20.300  45.404   9.4220  0.00  0.00     0.000 OA
ATOM    100   O  Z9L D   5      22.507  46.316   9.8800  0.00  0.00     0.000 O
ENDBRANCH 81 95
ENDBRANCH 76 80
ENDBRANCH 60 76
ENDBRANCH 59 63
ENDBRANCH 37 59
ENDBRANCH 36 40
ENDBRANCH 23 36
ENDBRANCH 22 26
ENDBRANCH 1 22
TORSDOF 19
ENDMDL
MODEL 33
REMARK VINA RESULT:      -2.2     12.690     20.022
ROOT
ATOM      1  C1  Z9H D   1      12.212  52.039  18.7490  0.00  0.00     0.000 C
ATOM      2  C2  Z9H D   1      11.489  51.605  20.0460  0.00  0.00     0.000 C
ATOM      3  C3  Z9H D   1      10.085  52.207  19.7300  0.00  0.00     0.000 C
ATOM      4  C4  Z9H D   1      10.084  53.724  19.2720  0.00  0.00     0.000 C
ATOM      5  C5  Z9H D   1      11.064  54.295  18.1710  0.00  0.00     0.000 C
ATOM      6  O5  Z9H D   1      12.219  53.436  18.3420  0.00  0.00     0.000 O
ATOM      7   O  Z9H D   1       9.173  52.014  20.8130  0.00  0.00     0.000 O
ATOM      8   C  Z9H D   1       8.278  50.899  20.6740  0.00  0.00     0.000 C
ATOM      9   O  Z9H D   1       8.749  53.996  18.8320  0.00  0.00     0.000 O
ATOM     10   C  Z9H D   1       7.911  54.664  19.7800  0.00  0.00     0.000 C
ENDROOT
BRANCH 2 11
ATOM     11   O  Z9H D   1      11.346  50.222  19.8520  0.00  0.00     0.000 O
ATOM     12   O  Z9H D   1      12.212  48.911  20.8950  0.00  0.00     0.000 OA
ATOM     13   S  Z9H D   1      12.310  50.315  21.1110  0.00  0.00     0.000 S
ATOM     14   O  Z9H D   1      11.545  50.785  22.2310  0.00  0.00     0.000 OA
ATOM     15   O  Z9H D   1      13.624  50.791  20.7440  0.00  0.00     0.000 O
ENDBRANCH 2 11
BRANCH 5 16
ATOM     16   C  Z9H D   1      11.214  55.962  18.1520  0.00  0.00     0.000 C
ATOM     17   S  Z9H D   1      12.500  57.479  17.8630  0.00  0.00     0.000 S
ATOM     18   O  Z9H D   1      12.211  56.053  17.1630  0.00  0.00     0.000 O
ATOM     19   O  Z9H D   1      13.040  57.400  19.1900  0.00  0.00     0.000 O
ATOM     20   O  Z9H D   1      11.510  58.424  17.4790  0.00  0.00     0.000 OA
ATOM     21   O  Z9H D   1      13.530  57.495  16.8650  0.00  0.00     0.000 OA
ENDBRANCH 5 16
BRANCH 1 22
ATOM     22  O4  GU1 D   2      11.709  51.404  17.5180  0.00  0.00     0.000 O
BRANCH 22 26
ATOM     23  C1  GU1 D   2      12.796  49.861  13.8560  0.00  0.00     0.000 C
ATOM     24  C2  GU1 D   2      13.834  49.691  14.9550  0.00  0.00     0.000 C
ATOM     25  C3  GU1 D   2      13.189  49.932  16.2900  0.00  0.00     0.000 C
ATOM     26  C4  GU1 D   2      12.471  51.274  16.3120  0.00  0.00     0.000 C
ATOM     27  C5  GU1 D   2      11.530  51.385  15.1090  0.00  0.00     0.000 C
ATOM     28  O5  GU1 D   2      12.245  51.172  13.8950  0.00  0.00     0.000 O
ATOM     29   O  GU1 D   2      14.393  48.382  14.9620  0.00  0.00     0.000 O
ATOM     30   C  GU1 D   2      15.631  48.283  14.2730  0.00  0.00     0.000 C
ATOM     31   C  GU1 D   2      14.308  48.750  18.0620  0.00  0.00     0.000 C
ATOM     32   O  GU1 D   2      14.212  49.944  17.2900  0.00  0.00     0.000 O
BRANCH 27 33
ATOM     33   C  GU1 D   2      10.894  52.753  15.0370  0.00  0.00     0.000 C
ATOM     34   O  GU1 D   2      11.597  53.703  14.7600  0.00  0.00     0.000 OA
ATOM     35   O  GU1 D   2       9.700  52.894  15.2500  0.00  0.00     0.000 O
ENDBRANCH 27 33
BRANCH 23 36
ATOM     36  O4  GU6 D   3      13.211  49.924  12.4770  0.00  0.00     0.000 O
BRANCH 36 40
ATOM     37  C1  GU6 D   3      16.193  49.120   9.8030  0.00  0.00     0.000 C
ATOM     38  C2  GU6 D   3      15.647  47.886  10.5100  0.00  0.00     0.000 C
ATOM     39  C3  GU6 D   3      14.389  48.247  11.2560  0.00  0.00     0.000 C
ATOM     40  C4  GU6 D   3      14.047  49.669  11.3670  0.00  0.00     0.000 C
ATOM     41  C5  GU6 D   3      15.353  50.506  11.5710  0.00  0.00     0.000 C
ATOM     42  O5  GU6 D   3      16.478  50.111  10.7780  0.00  0.00     0.000 O
BRANCH 38 43
ATOM     43   O  GU6 D   3      15.377  46.857   9.5770  0.00  0.00     0.000 O
ATOM     44   S  GU6 D   3      16.196  45.589   9.7840  0.00  0.00     0.000 S
ATOM     45   O  GU6 D   3      17.522  45.784   9.1740  0.00  0.00     0.000 OA
ATOM     46   O  GU6 D   3      16.351  45.360  11.2310  0.00  0.00     0.000 O
ATOM     47   O  GU6 D   3      15.489  44.468   9.1730  0.00  0.00     0.000 OA
ENDBRANCH 38 43
BRANCH 39 48
ATOM     48   O  GU6 D   3      13.456  47.251  11.6310  0.00  0.00     0.000 O
ATOM     49   S  GU6 D   3      12.132  46.854  10.9800  0.00  0.00     0.000 S
ATOM     50   O  GU6 D   3      12.343  46.519   9.5670  0.00  0.00     0.000 OA
ATOM     51   O  GU6 D   3      11.724  45.672  11.7510  0.00  0.00     0.000 OA
ATOM     52   O  GU6 D   3      11.182  47.983  11.0970  0.00  0.00     0.000 O
ENDBRANCH 39 48
BRANCH 41 53
ATOM     53   C  GU6 D   3      15.591  51.685  12.4760  0.00  0.00     0.000 C
ATOM     54   O  GU6 D   3      15.101  52.684  11.6200  0.00  0.00     0.000 O
ATOM     55   S  GU6 D   3      15.207  54.165  12.0110  0.00  0.00     0.000 S
ATOM     56   O  GU6 D   3      16.650  54.498  12.0320  0.00  0.00     0.000 O
ATOM     57   O  GU6 D   3      14.503  54.968  11.0000  0.00  0.00     0.000 OA
ATOM     58   O  GU6 D   3      14.607  54.308  13.3560  0.00  0.00     0.000 OA
ENDBRANCH 41 53
BRANCH 37 59
ATOM     59  O4  Z9K D   4      15.562  49.784   8.6880  0.00  0.00     0.000 O
BRANCH 59 63
ATOM     60  C1  Z9K D   4      15.696  52.465   5.8170  0.00  0.00     0.000 C
ATOM     61  C2  Z9K D   4      16.655  53.096   6.8640  0.00  0.00     0.000 C
ATOM     62  C3  Z9K D   4      16.742  51.927   7.9380  0.00  0.00     0.000 C
ATOM     63  C4  Z9K D   4      15.417  51.204   8.3950  0.00  0.00     0.000 C
ATOM     64  C5  Z9K D   4      14.260  51.216   7.3840  0.00  0.00     0.000 C
ATOM     65  O5  Z9K D   4      14.948  51.193   6.1060  0.00  0.00     0.000 O
ATOM     66   O  Z9K D   4      17.387  52.324   9.1610  0.00  0.00     0.000 O
ATOM     67   C  Z9K D   4      18.801  52.221   9.1380  0.00  0.00     0.000 C
BRANCH 61 68
ATOM     68   O  Z9K D   4      17.921  53.177   6.2670  0.00  0.00     0.000 O
ATOM     69   O  Z9K D   4      17.524  55.138   7.8620  0.00  0.00     0.000 OA
ATOM     70   S  Z9K D   4      17.555  54.739   6.4870  0.00  0.00     0.000 S
ATOM     71   O  Z9K D   4      16.627  55.147   5.4770  0.00  0.00     0.000 OA
ATOM     72   O  Z9K D   4      18.882  54.805   5.9670  0.00  0.00     0.000 OA
ENDBRANCH 61 68
BRANCH 64 73
ATOM     73   C  Z9K D   4      13.245  50.097   7.7010  0.00  0.00     0.000 C
ATOM     74   O  Z9K D   4      13.351  48.949   7.1800  0.00  0.00     0.000 O
ATOM     75   O  Z9K D   4      12.283  50.280   8.4870  0.00  0.00     0.000 OA
ENDBRANCH 64 73
BRANCH 60 76
ATOM     76  O4  Z9L D   5      14.602  53.084   5.1190  0.00  0.00     0.000 O
BRANCH 76 80
ATOM     77  C1  Z9L D   5      12.554  53.118   1.6880  0.00  0.00     0.000 C
ATOM     78  C2  Z9L D   5      11.537  52.650   2.8370  0.00  0.00     0.000 C
ATOM     79  C3  Z9L D   5      12.247  53.072   4.3130  0.00  0.00     0.000 C
ATOM     80  C4  Z9L D   5      13.813  52.636   4.0470  0.00  0.00     0.000 C
ATOM     81  C5  Z9L D   5      14.782  52.904   2.7860  0.00  0.00     0.000 C
ATOM     82  O5  Z9L D   5      13.980  52.711   1.6120  0.00  0.00     0.000 O
ATOM     83   C  Z9L D   5      13.323  55.122   0.5540  0.00  0.00     0.000 C
ATOM     84   C  Z9L D   5      13.323  55.122   0.5540  0.00  0.00     0.000 C
BRANCH 78 85
ATOM     85   O  Z9L D   5      10.352  53.362   2.6810  0.00  0.00     0.000 O
ATOM     86   O  Z9L D   5       8.658  52.595   2.1780  0.00  0.00     0.000 OA
ATOM     87   S  Z9L D   5       9.848  51.852   2.4610  0.00  0.00     0.000 S
ATOM     88   O  Z9L D   5       9.567  51.149   3.6880  0.00  0.00     0.000 OA
ATOM     89   O  Z9L D   5      10.208  51.237   1.2300  0.00  0.00     0.000 OA
ENDBRANCH 78 85
BRANCH 79 90
ATOM     90   O  Z9L D   5      11.860  52.202   5.3290  0.00  0.00     0.000 O
ATOM     91   S  Z9L D   5      11.407  53.585   5.9750  0.00  0.00     0.000 S
ATOM     92   O  Z9L D   5      10.506  54.489   5.3100  0.00  0.00     0.000 OA
ATOM     93   O  Z9L D   5      12.461  54.082   6.8260  0.00  0.00     0.000 O
ATOM     94   O  Z9L D   5      10.613  52.698   6.7620  0.00  0.00     0.000 OA
ENDBRANCH 79 90
BRANCH 81 95
ATOM     95   C  Z9L D   5      16.312  52.217   2.8320  0.00  0.00     0.000 C
ATOM     96   S  Z9L D   5      18.138  52.260   2.0380  0.00  0.00     0.000 S
ATOM     97   O  Z9L D   5      16.672  52.455   1.4970  0.00  0.00     0.000 O
ATOM     98   O  Z9L D   5      18.297  50.854   2.3090  0.00  0.00     0.000 OA
ATOM     99   O  Z9L D   5      18.596  53.248   2.9560  0.00  0.00     0.000 OA
ATOM    100   O  Z9L D   5      18.447  52.494   0.6490  0.00  0.00     0.000 O
ENDBRANCH 81 95
ENDBRANCH 76 80
ENDBRANCH 60 76
ENDBRANCH 59 63
ENDBRANCH 37 59
ENDBRANCH 36 40
ENDBRANCH 23 36
ENDBRANCH 22 26
ENDBRANCH 1 22
TORSDOF 19
ENDMDL
MODEL 34
REMARK VINA RESULT:      -2.0      8.976     20.133
ROOT
ATOM      1  C1  Z9H D   1      12.364  54.156  20.2120  0.00  0.00     0.000 C
ATOM      2  C2  Z9H D   1      11.423  54.247  21.4370  0.00  0.00     0.000 C
ATOM      3  C3  Z9H D   1      10.224  54.963  20.7420  0.00  0.00     0.000 C
ATOM      4  C4  Z9H D   1      10.596  56.259  19.9100  0.00  0.00     0.000 C
ATOM      5  C5  Z9H D   1      11.793  56.309  18.8790  0.00  0.00     0.000 C
ATOM      6  O5  Z9H D   1      12.713  55.351  19.4600  0.00  0.00     0.000 O
ATOM      7   O  Z9H D   1       9.175  55.252  21.6690  0.00  0.00     0.000 O
ATOM      8   C  Z9H D   1       8.085  54.314  21.6770  0.00  0.00     0.000 C
ATOM      9   O  Z9H D   1       9.408  56.616  19.1950  0.00  0.00     0.000 O
ATOM     10   C  Z9H D   1       8.628  57.664  19.7800  0.00  0.00     0.000 C
ENDROOT
BRANCH 2 11
ATOM     11   O  Z9H D   1      11.013  52.913  21.5900  0.00  0.00     0.000 O
ATOM     12   O  Z9H D   1      11.446  51.837  23.0780  0.00  0.00     0.000 OA
ATOM     13   S  Z9H D   1      11.814  53.205  22.9310  0.00  0.00     0.000 S
ATOM     14   O  Z9H D   1      11.036  54.104  23.7350  0.00  0.00     0.000 OA
ATOM     15   O  Z9H D   1      13.234  53.322  22.6910  0.00  0.00     0.000 O
ENDBRANCH 2 11
BRANCH 5 16
ATOM     16   C  Z9H D   1      12.294  57.847  18.4500  0.00  0.00     0.000 C
ATOM     17   S  Z9H D   1      12.069  59.805  18.8460  0.00  0.00     0.000 S
ATOM     18   O  Z9H D   1      12.174  58.449  19.7160  0.00  0.00     0.000 O
ATOM     19   O  Z9H D   1      10.875  59.924  18.0580  0.00  0.00     0.000 O
ATOM     20   O  Z9H D   1      13.354  60.187  18.3760  0.00  0.00     0.000 OA
ATOM     21   O  Z9H D   1      11.901  60.356  20.1590  0.00  0.00     0.000 OA
ENDBRANCH 5 16
BRANCH 1 22
ATOM     22  O4  GU1 D   2      11.882  53.287  19.1240  0.00  0.00     0.000 O
BRANCH 22 26
ATOM     23  C1  GU1 D   2      13.017  50.562  16.2510  0.00  0.00     0.000 C
ATOM     24  C2  GU1 D   2      13.848  50.531  17.5250  0.00  0.00     0.000 C
ATOM     25  C3  GU1 D   2      13.120  51.270  18.6110  0.00  0.00     0.000 C
ATOM     26  C4  GU1 D   2      12.733  52.668  18.1520  0.00  0.00     0.000 C
ATOM     27  C5  GU1 D   2      11.994  52.595  16.8120  0.00  0.00     0.000 C
ATOM     28  O5  GU1 D   2      12.782  51.905  15.8460  0.00  0.00     0.000 O
ATOM     29   O  GU1 D   2      14.085  49.202  17.9740  0.00  0.00     0.000 O
ATOM     30   C  GU1 D   2      15.341  48.675  17.5700  0.00  0.00     0.000 C
ATOM     31   C  GU1 D   2      13.714  50.473  20.8030  0.00  0.00     0.000 C
ATOM     32   O  GU1 D   2      13.990  51.384  19.7410  0.00  0.00     0.000 O
BRANCH 27 33
ATOM     33   C  GU1 D   2      11.703  53.975  16.2720  0.00  0.00     0.000 C
ATOM     34   O  GU1 D   2      12.636  54.659  15.9030  0.00  0.00     0.000 OA
ATOM     35   O  GU1 D   2      10.556  54.387  16.2070  0.00  0.00     0.000 O
ENDBRANCH 27 33
BRANCH 23 36
ATOM     36  O4  GU6 D   3      13.598  50.138  15.0020  0.00  0.00     0.000 O
BRANCH 36 40
ATOM     37  C1  GU6 D   3      13.016  48.005  11.5660  0.00  0.00     0.000 C
ATOM     38  C2  GU6 D   3      12.683  49.486  11.4380  0.00  0.00     0.000 C
ATOM     39  C3  GU6 D   3      13.183  50.222  12.6530  0.00  0.00     0.000 C
ATOM     40  C4  GU6 D   3      13.664  49.422  13.7850  0.00  0.00     0.000 C
ATOM     41  C5  GU6 D   3      12.765  48.153  13.9470  0.00  0.00     0.000 C
ATOM     42  O5  GU6 D   3      12.384  47.498  12.7320  0.00  0.00     0.000 O
BRANCH 38 43
ATOM     43   O  GU6 D   3      13.269  50.028  10.2700  0.00  0.00     0.000 O
ATOM     44   S  GU6 D   3      12.285  50.292   9.1380  0.00  0.00     0.000 S
ATOM     45   O  GU6 D   3      12.045  49.027   8.4220  0.00  0.00     0.000 OA
ATOM     46   O  GU6 D   3      11.019  50.775   9.7170  0.00  0.00     0.000 O
ATOM     47   O  GU6 D   3      12.849  51.306   8.2520  0.00  0.00     0.000 OA
ENDBRANCH 38 43
BRANCH 39 48
ATOM     48   O  GU6 D   3      13.400  51.620  12.6180  0.00  0.00     0.000 O
ATOM     49   S  GU6 D   3      14.703  52.407  12.4810  0.00  0.00     0.000 S
ATOM     50   O  GU6 D   3      15.426  51.983  11.2770  0.00  0.00     0.000 OA
ATOM     51   O  GU6 D   3      14.241  53.797  12.3620  0.00  0.00     0.000 OA
ATOM     52   O  GU6 D   3      15.535  52.170  13.6820  0.00  0.00     0.000 O
ENDBRANCH 39 48
BRANCH 41 53
ATOM     53   C  GU6 D   3      12.253  47.509  15.2070  0.00  0.00     0.000 C
ATOM     54   O  GU6 D   3      13.197  46.472  15.2890  0.00  0.00     0.000 O
ATOM     55   S  GU6 D   3      13.078  45.394  16.3750  0.00  0.00     0.000 S
ATOM     56   O  GU6 D   3      11.845  44.627  16.0820  0.00  0.00     0.000 O
ATOM     57   O  GU6 D   3      14.261  44.524  16.3030  0.00  0.00     0.000 OA
ATOM     58   O  GU6 D   3      12.975  46.092  17.6760  0.00  0.00     0.000 OA
ENDBRANCH 41 53
BRANCH 37 59
ATOM     59  O4  Z9K D   4      14.346  47.447  11.5230  0.00  0.00     0.000 O
BRANCH 59 63
ATOM     60  C1  Z9K D   4      16.309  44.455   9.8970  0.00  0.00     0.000 C
ATOM     61  C2  Z9K D   4      14.991  43.753  10.3280  0.00  0.00     0.000 C
ATOM     62  C3  Z9K D   4      14.131  44.998  10.8150  0.00  0.00     0.000 C
ATOM     63  C4  Z9K D   4      14.804  46.081  11.7410  0.00  0.00     0.000 C
ATOM     64  C5  Z9K D   4      16.329  46.221  11.6170  0.00  0.00     0.000 C
ATOM     65  O5  Z9K D   4      16.569  45.900  10.2220  0.00  0.00     0.000 O
ATOM     66   O  Z9K D   4      12.924  44.622  11.5030  0.00  0.00     0.000 O
ATOM     67   C  Z9K D   4      11.820  44.366  10.6510  0.00  0.00     0.000 C
BRANCH 61 68
ATOM     68   O  Z9K D   4      14.376  43.281   9.1600  0.00  0.00     0.000 O
ATOM     69   O  Z9K D   4      13.905  41.735  11.1440  0.00  0.00     0.000 OA
ATOM     70   S  Z9K D   4      14.685  41.904   9.9550  0.00  0.00     0.000 S
ATOM     71   O  Z9K D   4      16.073  41.586   9.8130  0.00  0.00     0.000 OA
ATOM     72   O  Z9K D   4      13.972  41.443   8.8080  0.00  0.00     0.000 OA
ENDBRANCH 61 68
BRANCH 64 73
ATOM     73   C  Z9K D   4      16.800  47.589  12.1560  0.00  0.00     0.000 C
ATOM     74   O  Z9K D   4      16.827  47.830  13.3980  0.00  0.00     0.000 O
ATOM     75   O  Z9K D   4      17.179  48.507  11.3880  0.00  0.00     0.000 OA
ENDBRANCH 64 73
BRANCH 60 76
ATOM     76  O4  Z9L D   5      17.664  44.038  10.1360  0.00  0.00     0.000 O
BRANCH 76 80
ATOM     77  C1  Z9L D   5      21.209  43.453   8.3860  0.00  0.00     0.000 C
ATOM     78  C2  Z9L D   5      21.414  44.596   9.4920  0.00  0.00     0.000 C
ATOM     79  C3  Z9L D   5      20.075  44.520  10.5230  0.00  0.00     0.000 C
ATOM     80  C4  Z9L D   5      18.853  44.306   9.4390  0.00  0.00     0.000 C
ATOM     81  C5  Z9L D   5      18.728  43.314   8.1740  0.00  0.00     0.000 C
ATOM     82  O5  Z9L D   5      20.007  43.326   7.5230  0.00  0.00     0.000 O
ATOM     83   C  Z9L D   5      21.350  41.044   8.1180  0.00  0.00     0.000 C
ATOM     84   C  Z9L D   5      21.350  41.044   8.1180  0.00  0.00     0.000 C
BRANCH 78 85
ATOM     85   O  Z9L D   5      22.565  44.295  10.2150  0.00  0.00     0.000 O
ATOM     86   O  Z9L D   5      24.209  45.296  10.1450  0.00  0.00     0.000 OA
ATOM     87   S  Z9L D   5      22.987  45.672   9.5020  0.00  0.00     0.000 S
ATOM     88   O  Z9L D   5      22.542  46.851  10.2030  0.00  0.00     0.000 OA
ATOM     89   O  Z9L D   5      23.262  45.604   8.1080  0.00  0.00     0.000 OA
ENDBRANCH 78 85
BRANCH 79 90
ATOM     90   O  Z9L D   5      19.783  45.768  11.0660  0.00  0.00     0.000 O
ATOM     91   S  Z9L D   5      20.009  44.939  12.4070  0.00  0.00     0.000 S
ATOM     92   O  Z9L D   5      21.227  44.219  12.6710  0.00  0.00     0.000 OA
ATOM     93   O  Z9L D   5      18.740  44.451  12.8870  0.00  0.00     0.000 O
ATOM     94   O  Z9L D   5      20.177  46.258  12.9260  0.00  0.00     0.000 OA
ENDBRANCH 79 90
BRANCH 81 95
ATOM     95   C  Z9L D   5      17.349  43.443   7.2280  0.00  0.00     0.000 C
ATOM     96   S  Z9L D   5      16.635  44.033   5.4650  0.00  0.00     0.000 S
ATOM     97   O  Z9L D   5      17.742  44.548   6.4590  0.00  0.00     0.000 O
ATOM     98   O  Z9L D   5      15.363  44.330   6.0710  0.00  0.00     0.000 OA
ATOM     99   O  Z9L D   5      16.889  42.771   4.8550  0.00  0.00     0.000 OA
ATOM    100   O  Z9L D   5      17.070  45.192   4.7260  0.00  0.00     0.000 O
ENDBRANCH 81 95
ENDBRANCH 76 80
ENDBRANCH 60 76
ENDBRANCH 59 63
ENDBRANCH 37 59
ENDBRANCH 36 40
ENDBRANCH 23 36
ENDBRANCH 22 26
ENDBRANCH 1 22
TORSDOF 19
ENDMDL
MODEL 35
REMARK VINA RESULT:      -1.8     15.856     21.795
ROOT
ATOM      1  C1  Z9H D   1      41.382  45.621   7.6630  0.00  0.00     0.000 C
ATOM      2  C2  Z9H D   1      42.566  46.602   7.4890  0.00  0.00     0.000 C
ATOM      3  C3  Z9H D   1      43.589  45.606   6.8600  0.00  0.00     0.000 C
ATOM      4  C4  Z9H D   1      43.777  44.241   7.6430  0.00  0.00     0.000 C
ATOM      5  C5  Z9H D   1      42.565  43.363   8.1520  0.00  0.00     0.000 C
ATOM      6  O5  Z9H D   1      41.557  44.376   8.3950  0.00  0.00     0.000 O
ATOM      7   O  Z9H D   1      44.855  46.227   6.6320  0.00  0.00     0.000 O
ATOM      8   C  Z9H D   1      45.086  46.680   5.2880  0.00  0.00     0.000 C
ATOM      9   O  Z9H D   1      44.572  43.411   6.7910  0.00  0.00     0.000 O
ATOM     10   C  Z9H D   1      45.967  43.359   7.1060  0.00  0.00     0.000 C
ENDROOT
BRANCH 2 11
ATOM     11   O  Z9H D   1      42.130  47.401   6.4210  0.00  0.00     0.000 O
ATOM     12   O  Z9H D   1      41.719  49.236   6.5690  0.00  0.00     0.000 OA
ATOM     13   S  Z9H D   1      42.209  48.425   7.6330  0.00  0.00     0.000 S
ATOM     14   O  Z9H D   1      43.591  48.649   7.9440  0.00  0.00     0.000 OA
ATOM     15   O  Z9H D   1      41.166  48.185   8.6040  0.00  0.00     0.000 O
ENDBRANCH 2 11
BRANCH 5 16
ATOM     16   C  Z9H D   1      42.954  42.225   9.3160  0.00  0.00     0.000 C
ATOM     17   S  Z9H D   1      42.601  40.348   9.9420  0.00  0.00     0.000 S
ATOM     18   O  Z9H D   1      42.811  41.076   8.5160  0.00  0.00     0.000 O
ATOM     19   O  Z9H D   1      41.391  40.701  10.6260  0.00  0.00     0.000 O
ATOM     20   O  Z9H D   1      43.851  40.188  10.6000  0.00  0.00     0.000 OA
ATOM     21   O  Z9H D   1      42.417  39.221   9.0740  0.00  0.00     0.000 OA
ENDBRANCH 5 16
BRANCH 1 22
ATOM     22  O4  GU1 D   2      40.809  45.113   6.4040  0.00  0.00     0.000 O
BRANCH 22 26
ATOM     23  C1  GU1 D   2      37.328  44.001   4.5020  0.00  0.00     0.000 C
ATOM     24  C2  GU1 D   2      37.175  45.136   5.5040  0.00  0.00     0.000 C
ATOM     25  C3  GU1 D   2      38.529  45.696   5.8320  0.00  0.00     0.000 C
ATOM     26  C4  GU1 D   2      39.480  44.594   6.2770  0.00  0.00     0.000 C
ATOM     27  C5  GU1 D   2      39.481  43.456   5.2520  0.00  0.00     0.000 C
ATOM     28  O5  GU1 D   2      38.156  42.976   5.0380  0.00  0.00     0.000 O
ATOM     29   O  GU1 D   2      36.369  46.191   4.9940  0.00  0.00     0.000 O
ATOM     30   C  GU1 D   2      35.011  46.127   5.4030  0.00  0.00     0.000 C
ATOM     31   C  GU1 D   2      38.415  48.004   6.5050  0.00  0.00     0.000 C
ATOM     32   O  GU1 D   2      38.383  46.635   6.9020  0.00  0.00     0.000 O
BRANCH 27 33
ATOM     33   C  GU1 D   2      40.323  42.295   5.7250  0.00  0.00     0.000 C
ATOM     34   O  GU1 D   2      39.942  41.659   6.6870  0.00  0.00     0.000 OA
ATOM     35   O  GU1 D   2      41.360  42.004   5.1490  0.00  0.00     0.000 O
ENDBRANCH 27 33
BRANCH 23 36
ATOM     36  O4  GU6 D   3      36.209  43.140   4.2130  0.00  0.00     0.000 O
BRANCH 36 40
ATOM     37  C1  GU6 D   3      35.007  39.701   2.3630  0.00  0.00     0.000 C
ATOM     38  C2  GU6 D   3      35.445  39.505   3.8090  0.00  0.00     0.000 C
ATOM     39  C3  GU6 D   3      35.604  40.846   4.4750  0.00  0.00     0.000 C
ATOM     40  C4  GU6 D   3      35.544  42.040   3.6240  0.00  0.00     0.000 C
ATOM     41  C5  GU6 D   3      36.253  41.748   2.2610  0.00  0.00     0.000 C
ATOM     42  O5  GU6 D   3      35.998  40.460   1.6890  0.00  0.00     0.000 O
BRANCH 38 43
ATOM     43   O  GU6 D   3      34.499  38.725   4.5140  0.00  0.00     0.000 O
ATOM     44   S  GU6 D   3      35.006  37.352   4.9370  0.00  0.00     0.000 S
ATOM     45   O  GU6 D   3      34.893  36.437   3.7880  0.00  0.00     0.000 OA
ATOM     46   O  GU6 D   3      36.422  37.473   5.3300  0.00  0.00     0.000 O
ATOM     47   O  GU6 D   3      34.211  36.885   6.0690  0.00  0.00     0.000 OA
ENDBRANCH 38 43
BRANCH 39 48
ATOM     48   O  GU6 D   3      35.578  40.966   5.8840  0.00  0.00     0.000 O
ATOM     49   S  GU6 D   3      34.433  41.369   6.8130  0.00  0.00     0.000 S
ATOM     50   O  GU6 D   3      33.269  40.504   6.5860  0.00  0.00     0.000 OA
ATOM     51   O  GU6 D   3      35.000  41.155   8.1520  0.00  0.00     0.000 OA
ATOM     52   O  GU6 D   3      34.075  42.780   6.5490  0.00  0.00     0.000 O
ENDBRANCH 39 48
BRANCH 41 53
ATOM     53   C  GU6 D   3      37.158  42.638   1.4540  0.00  0.00     0.000 C
ATOM     54   O  GU6 D   3      38.379  42.040   1.8060  0.00  0.00     0.000 O
ATOM     55   S  GU6 D   3      39.707  42.644   1.3320  0.00  0.00     0.000 S
ATOM     56   O  GU6 D   3      39.840  43.961   1.9970  0.00  0.00     0.000 O
ATOM     57   O  GU6 D   3      40.800  41.747   1.7340  0.00  0.00     0.000 OA
ATOM     58   O  GU6 D   3      39.621  42.796  -0.1380  0.00  0.00     0.000 OA
ENDBRANCH 41 53
BRANCH 37 59
ATOM     59  O4  Z9K D   4      33.721  40.209   1.9490  0.00  0.00     0.000 O
BRANCH 59 63
ATOM     60  C1  Z9K D   4      30.858  37.781   3.1130  0.00  0.00     0.000 C
ATOM     61  C2  Z9K D   4      31.379  37.047   1.8470  0.00  0.00     0.000 C
ATOM     62  C3  Z9K D   4      32.651  37.932   1.4870  0.00  0.00     0.000 C
ATOM     63  C4  Z9K D   4      32.525  39.503   1.5100  0.00  0.00     0.000 C
ATOM     64  C5  Z9K D   4      31.444  40.079   2.4370  0.00  0.00     0.000 C
ATOM     65  O5  Z9K D   4      31.408  39.119   3.5260  0.00  0.00     0.000 O
ATOM     66   O  Z9K D   4      33.211  37.625   0.1970  0.00  0.00     0.000 O
ATOM     67   C  Z9K D   4      34.133  36.547   0.2010  0.00  0.00     0.000 C
BRANCH 61 68
ATOM     68   O  Z9K D   4      31.871  35.803   2.2650  0.00  0.00     0.000 O
ATOM     69   O  Z9K D   4      30.951  35.680  -0.1200  0.00  0.00     0.000 OA
ATOM     70   S  Z9K D   4      30.683  35.370   1.2530  0.00  0.00     0.000 S
ATOM     71   O  Z9K D   4      29.425  35.529   1.9150  0.00  0.00     0.000 OA
ATOM     72   O  Z9K D   4      31.254  34.113   1.6120  0.00  0.00     0.000 OA
ENDBRANCH 61 68
BRANCH 64 73
ATOM     73   C  Z9K D   4      31.733  41.560   2.7630  0.00  0.00     0.000 C
ATOM     74   O  Z9K D   4      32.057  41.923   3.9310  0.00  0.00     0.000 O
ATOM     75   O  Z9K D   4      31.665  42.456   1.8860  0.00  0.00     0.000 OA
ENDBRANCH 64 73
BRANCH 60 76
ATOM     76  O4  Z9L D   5      29.502  38.101   3.4670  0.00  0.00     0.000 O
BRANCH 76 80
ATOM     77  C1  Z9L D   5      26.775  38.017   6.3870  0.00  0.00     0.000 C
ATOM     78  C2  Z9L D   5      27.113  39.559   6.1040  0.00  0.00     0.000 C
ATOM     79  C3  Z9L D   5      27.888  39.619   4.6020  0.00  0.00     0.000 C
ATOM     80  C4  Z9L D   5      28.895  38.320   4.7140  0.00  0.00     0.000 C
ATOM     81  C5  Z9L D   5      28.621  36.814   5.2190  0.00  0.00     0.000 C
ATOM     82  O5  Z9L D   5      27.779  36.923   6.3770  0.00  0.00     0.000 O
ATOM     83   C  Z9L D   5      25.230  36.272   5.7100  0.00  0.00     0.000 C
ATOM     84   C  Z9L D   5      25.230  36.272   5.7100  0.00  0.00     0.000 C
BRANCH 78 85
ATOM     85   O  Z9L D   5      25.911  40.257   6.0260  0.00  0.00     0.000 O
ATOM     86   O  Z9L D   5      25.285  41.532   7.3270  0.00  0.00     0.000 OA
ATOM     87   S  Z9L D   5      26.573  40.907   7.3380  0.00  0.00     0.000 S
ATOM     88   O  Z9L D   5      27.506  41.969   7.0540  0.00  0.00     0.000 OA
ATOM     89   O  Z9L D   5      26.586  40.098   8.5080  0.00  0.00     0.000 OA
ENDBRANCH 78 85
BRANCH 79 90
ATOM     90   O  Z9L D   5      28.778  40.687   4.5320  0.00  0.00     0.000 O
ATOM     91   S  Z9L D   5      27.809  41.067   3.3260  0.00  0.00     0.000 S
ATOM     92   O  Z9L D   5      26.389  41.221   3.4980  0.00  0.00     0.000 OA
ATOM     93   O  Z9L D   5      28.356  40.554   2.0950  0.00  0.00     0.000 O
ATOM     94   O  Z9L D   5      28.404  42.345   3.5510  0.00  0.00     0.000 OA
ENDBRANCH 79 90
BRANCH 81 95
ATOM     95   C  Z9L D   5      29.934  35.772   5.2810  0.00  0.00     0.000 C
ATOM     96   S  Z9L D   5      30.555  33.971   5.8630  0.00  0.00     0.000 S
ATOM     97   O  Z9L D   5      29.559  35.053   6.4260  0.00  0.00     0.000 O
ATOM     98   O  Z9L D   5      31.885  34.487   6.0640  0.00  0.00     0.000 OA
ATOM     99   O  Z9L D   5      30.176  33.360   4.6340  0.00  0.00     0.000 OA
ATOM    100   O  Z9L D   5      30.145  33.287   7.0640  0.00  0.00     0.000 O
ENDBRANCH 81 95
ENDBRANCH 76 80
ENDBRANCH 60 76
ENDBRANCH 59 63
ENDBRANCH 37 59
ENDBRANCH 36 40
ENDBRANCH 23 36
ENDBRANCH 22 26
ENDBRANCH 1 22
TORSDOF 19
ENDMDL
MODEL 36
REMARK VINA RESULT:      -1.8     11.473     22.374
ROOT
ATOM      1  C1  Z9H D   1      11.337  55.519  24.2030  0.00  0.00     0.000 C
ATOM      2  C2  Z9H D   1      10.694  56.812  24.7580  0.00  0.00     0.000 C
ATOM      3  C3  Z9H D   1      11.809  57.816  24.3310  0.00  0.00     0.000 C
ATOM      4  C4  Z9H D   1      13.284  57.405  24.7400  0.00  0.00     0.000 C
ATOM      5  C5  Z9H D   1      13.878  55.961  24.4980  0.00  0.00     0.000 C
ATOM      6  O5  Z9H D   1      12.686  55.141  24.5930  0.00  0.00     0.000 O
ATOM      7   O  Z9H D   1      11.521  59.143  24.7760  0.00  0.00     0.000 O
ATOM      8   C  Z9H D   1      10.932  60.008  23.7900  0.00  0.00     0.000 C
ATOM      9   O  Z9H D   1      14.145  58.333  24.0720  0.00  0.00     0.000 O
ATOM     10   C  Z9H D   1      14.620  59.421  24.8710  0.00  0.00     0.000 C
ENDROOT
BRANCH 2 11
ATOM     11   O  Z9H D   1       9.643  57.028  23.8530  0.00  0.00     0.000 O
ATOM     12   O  Z9H D   1       7.815  56.947  24.3130  0.00  0.00     0.000 OA
ATOM     13   S  Z9H D   1       8.892  56.778  25.2310  0.00  0.00     0.000 S
ATOM     14   O  Z9H D   1       9.115  57.914  26.0790  0.00  0.00     0.000 OA
ATOM     15   O  Z9H D   1       8.987  55.398  25.6480  0.00  0.00     0.000 O
ENDBRANCH 2 11
BRANCH 5 16
ATOM     16   C  Z9H D   1      15.254  55.603  25.3810  0.00  0.00     0.000 C
ATOM     17   S  Z9H D   1      16.472  56.260  26.8380  0.00  0.00     0.000 S
ATOM     18   O  Z9H D   1      14.878  56.229  26.5840  0.00  0.00     0.000 O
ATOM     19   O  Z9H D   1      17.205  57.131  25.9640  0.00  0.00     0.000 O
ATOM     20   O  Z9H D   1      16.933  54.971  27.2210  0.00  0.00     0.000 OA
ATOM     21   O  Z9H D   1      16.033  56.937  28.0230  0.00  0.00     0.000 OA
ENDBRANCH 5 16
BRANCH 1 22
ATOM     22  O4  GU1 D   2      11.459  55.469  22.7350  0.00  0.00     0.000 O
BRANCH 22 26
ATOM     23  C1  GU1 D   2      11.213  53.020  19.4320  0.00  0.00     0.000 C
ATOM     24  C2  GU1 D   2      10.274  52.654  20.5700  0.00  0.00     0.000 C
ATOM     25  C3  GU1 D   2      10.177  53.808  21.5260  0.00  0.00     0.000 C
ATOM     26  C4  GU1 D   2      11.559  54.257  21.9780  0.00  0.00     0.000 C
ATOM     27  C5  GU1 D   2      12.456  54.499  20.7600  0.00  0.00     0.000 C
ATOM     28  O5  GU1 D   2      12.505  53.336  19.9380  0.00  0.00     0.000 O
ATOM     29   O  GU1 D   2       8.964  52.353  20.1040  0.00  0.00     0.000 O
ATOM     30   C  GU1 D   2       8.720  50.963  19.9330  0.00  0.00     0.000 C
ATOM     31   C  GU1 D   2       8.082  53.828  22.7110  0.00  0.00     0.000 C
ATOM     32   O  GU1 D   2       9.436  53.383  22.6740  0.00  0.00     0.000 O
BRANCH 27 33
ATOM     33   C  GU1 D   2      13.869  54.830  21.1790  0.00  0.00     0.000 C
ATOM     34   O  GU1 D   2      14.283  55.953  20.9800  0.00  0.00     0.000 OA
ATOM     35   O  GU1 D   2      14.573  53.984  21.7090  0.00  0.00     0.000 O
ENDBRANCH 27 33
BRANCH 23 36
ATOM     36  O4  GU6 D   3      11.667  52.004  18.5160  0.00  0.00     0.000 O
BRANCH 36 40
ATOM     37  C1  GU6 D   3      13.141  51.081  14.8190  0.00  0.00     0.000 C
ATOM     38  C2  GU6 D   3      14.101  50.775  15.9620  0.00  0.00     0.000 C
ATOM     39  C3  GU6 D   3      13.375  50.890  17.2760  0.00  0.00     0.000 C
ATOM     40  C4  GU6 D   3      12.024  51.463  17.2600  0.00  0.00     0.000 C
ATOM     41  C5  GU6 D   3      11.964  52.631  16.2210  0.00  0.00     0.000 C
ATOM     42  O5  GU6 D   3      12.648  52.401  14.9840  0.00  0.00     0.000 O
BRANCH 38 43
ATOM     43   O  GU6 D   3      14.643  49.475  15.8220  0.00  0.00     0.000 O
ATOM     44   S  GU6 D   3      16.143  49.444  15.5570  0.00  0.00     0.000 S
ATOM     45   O  GU6 D   3      16.370  49.686  14.1210  0.00  0.00     0.000 OA
ATOM     46   O  GU6 D   3      16.782  50.517  16.3410  0.00  0.00     0.000 O
ATOM     47   O  GU6 D   3      16.666  48.145  15.9670  0.00  0.00     0.000 OA
ENDBRANCH 38 43
BRANCH 39 48
ATOM     48   O  GU6 D   3      13.875  50.260  18.4400  0.00  0.00     0.000 O
ATOM     49   S  GU6 D   3      13.438  48.961  19.1170  0.00  0.00     0.000 S
ATOM     50   O  GU6 D   3      13.485  47.851  18.1590  0.00  0.00     0.000 OA
ATOM     51   O  GU6 D   3      14.437  48.788  20.1800  0.00  0.00     0.000 OA
ATOM     52   O  GU6 D   3      12.061  49.128  19.6320  0.00  0.00     0.000 O
ENDBRANCH 39 48
BRANCH 41 53
ATOM     53   C  GU6 D   3      11.273  53.963  16.3320  0.00  0.00     0.000 C
ATOM     54   O  GU6 D   3      10.885  54.088  14.9880  0.00  0.00     0.000 O
ATOM     55   S  GU6 D   3      10.208  55.372  14.4900  0.00  0.00     0.000 S
ATOM     56   O  GU6 D   3      11.214  56.454  14.5930  0.00  0.00     0.000 O
ATOM     57   O  GU6 D   3       9.798  55.174  13.0920  0.00  0.00     0.000 OA
ATOM     58   O  GU6 D   3       9.054  55.633  15.3800  0.00  0.00     0.000 OA
ENDBRANCH 41 53
BRANCH 37 59
ATOM     59  O4  Z9K D   4      12.026  50.251  14.4290  0.00  0.00     0.000 O
BRANCH 59 63
ATOM     60  C1  Z9K D   4      12.816  48.629  10.9370  0.00  0.00     0.000 C
ATOM     61  C2  Z9K D   4      12.307  50.033  10.5090  0.00  0.00     0.000 C
ATOM     62  C3  Z9K D   4      12.165  50.747  11.9230  0.00  0.00     0.000 C
ATOM     63  C4  Z9K D   4      11.476  49.970  13.1090  0.00  0.00     0.000 C
ATOM     64  C5  Z9K D   4      11.547  48.437  13.0430  0.00  0.00     0.000 C
ATOM     65  O5  Z9K D   4      12.817  48.202  12.3790  0.00  0.00     0.000 O
ATOM     66   O  Z9K D   4      11.474  52.008  11.8570  0.00  0.00     0.000 O
ATOM     67   C  Z9K D   4      12.303  53.113  11.5360  0.00  0.00     0.000 C
BRANCH 61 68
ATOM     68   O  Z9K D   4      13.366  50.672   9.8500  0.00  0.00     0.000 O
ATOM     69   O  Z9K D   4      11.107  51.417   8.9080  0.00  0.00     0.000 OA
ATOM     70   S  Z9K D   4      12.249  50.584   8.6810  0.00  0.00     0.000 S
ATOM     71   O  Z9K D   4      12.222  49.251   8.1610  0.00  0.00     0.000 OA
ATOM     72   O  Z9K D   4      13.298  51.319   8.0500  0.00  0.00     0.000 OA
ENDBRANCH 61 68
BRANCH 64 73
ATOM     73   C  Z9K D   4      11.312  47.816  14.4360  0.00  0.00     0.000 C
ATOM     74   O  Z9K D   4      10.171  47.845  14.9820  0.00  0.00     0.000 O
ATOM     75   O  Z9K D   4      12.236  47.256  15.0750  0.00  0.00     0.000 OA
ENDBRANCH 64 73
BRANCH 60 76
ATOM     76  O4  Z9L D   5      12.416  47.342  10.4370  0.00  0.00     0.000 O
BRANCH 76 80
ATOM     77  C1  Z9L D   5      13.702  43.796   9.1180  0.00  0.00     0.000 C
ATOM     78  C2  Z9L D   5      12.968  43.537  10.5200  0.00  0.00     0.000 C
ATOM     79  C3  Z9L D   5      12.042  44.915  10.8450  0.00  0.00     0.000 C
ATOM     80  C4  Z9L D   5      13.088  46.109  10.4040  0.00  0.00     0.000 C
ATOM     81  C5  Z9L D   5      14.013  46.270   9.0940  0.00  0.00     0.000 C
ATOM     82  O5  Z9L D   5      14.562  44.971   8.8250  0.00  0.00     0.000 O
ATOM     83   C  Z9L D   5      13.247  43.846   6.7340  0.00  0.00     0.000 C
ATOM     84   C  Z9L D   5      13.247  43.846   6.7340  0.00  0.00     0.000 C
BRANCH 78 85
ATOM     85   O  Z9L D   5      12.121  42.443  10.3690  0.00  0.00     0.000 O
ATOM     86   O  Z9L D   5      12.361  40.731  11.2180  0.00  0.00     0.000 OA
ATOM     87   S  Z9L D   5      13.157  41.894  11.4680  0.00  0.00     0.000 S
ATOM     88   O  Z9L D   5      12.833  42.286  12.8180  0.00  0.00     0.000 OA
ATOM     89   O  Z9L D   5      14.460  41.565  11.0010  0.00  0.00     0.000 OA
ENDBRANCH 78 85
BRANCH 79 90
ATOM     90   O  Z9L D   5      11.905  45.122  12.2140  0.00  0.00     0.000 O
ATOM     91   S  Z9L D   5      10.374  44.926  11.8190  0.00  0.00     0.000 S
ATOM     92   O  Z9L D   5       9.899  43.751  11.1380  0.00  0.00     0.000 OA
ATOM     93   O  Z9L D   5       9.774  46.215  11.5810  0.00  0.00     0.000 O
ATOM     94   O  Z9L D   5      10.281  44.670  13.2200  0.00  0.00     0.000 OA
ENDBRANCH 79 90
BRANCH 81 95
ATOM     95   C  Z9L D   5      15.036  47.598   9.0330  0.00  0.00     0.000 C
ATOM     96   S  Z9L D   5      16.918  48.213   9.2510  0.00  0.00     0.000 S
ATOM     97   O  Z9L D   5      15.993  47.150   9.9550  0.00  0.00     0.000 O
ATOM     98   O  Z9L D   5      16.453  49.510   9.6720  0.00  0.00     0.000 OA
ATOM     99   O  Z9L D   5      17.242  47.947   7.8900  0.00  0.00     0.000 OA
ATOM    100   O  Z9L D   5      17.854  47.724  10.2330  0.00  0.00     0.000 O
ENDBRANCH 81 95
ENDBRANCH 76 80
ENDBRANCH 60 76
ENDBRANCH 59 63
ENDBRANCH 37 59
ENDBRANCH 36 40
ENDBRANCH 23 36
ENDBRANCH 22 26
ENDBRANCH 1 22
TORSDOF 19
ENDMDL
MODEL 37
REMARK VINA RESULT:      -1.7     10.638     17.075
ROOT
ATOM      1  C1  Z9H D   1      36.839  42.980   9.9220  0.00  0.00     0.000 C
ATOM      2  C2  Z9H D   1      38.200  43.454   9.3590  0.00  0.00     0.000 C
ATOM      3  C3  Z9H D   1      38.373  42.369   8.2530  0.00  0.00     0.000 C
ATOM      4  C4  Z9H D   1      38.174  40.872   8.7340  0.00  0.00     0.000 C
ATOM      5  C5  Z9H D   1      36.951  40.404   9.6190  0.00  0.00     0.000 C
ATOM      6  O5  Z9H D   1      36.666  41.609  10.3750  0.00  0.00     0.000 O
ATOM      7   O  Z9H D   1      39.620  42.509   7.5680  0.00  0.00     0.000 O
ATOM      8   C  Z9H D   1      39.557  43.200   6.3100  0.00  0.00     0.000 C
ATOM      9   O  Z9H D   1      38.160  40.079   7.5420  0.00  0.00     0.000 O
ATOM     10   C  Z9H D   1      39.391  39.425   7.2210  0.00  0.00     0.000 C
ENDROOT
BRANCH 2 11
ATOM     11   O  Z9H D   1      37.840  44.623   8.6700  0.00  0.00     0.000 O
ATOM     12   O  Z9H D   1      38.392  46.358   9.1660  0.00  0.00     0.000 OA
ATOM     13   S  Z9H D   1      38.788  45.160   9.8260  0.00  0.00     0.000 S
ATOM     14   O  Z9H D   1      40.133  44.753   9.5320  0.00  0.00     0.000 OA
ATOM     15   O  Z9H D   1      38.156  45.066  11.1220  0.00  0.00     0.000 O
ENDBRANCH 2 11
BRANCH 5 16
ATOM     16   C  Z9H D   1      37.151  38.927  10.3800  0.00  0.00     0.000 C
ATOM     17   S  Z9H D   1      37.968  38.010  11.9710  0.00  0.00     0.000 S
ATOM     18   O  Z9H D   1      37.184  39.396  11.7060  0.00  0.00     0.000 O
ATOM     19   O  Z9H D   1      39.271  37.931  11.3760  0.00  0.00     0.000 O
ATOM     20   O  Z9H D   1      37.051  36.924  11.9860  0.00  0.00     0.000 OA
ATOM     21   O  Z9H D   1      38.014  38.561  13.2930  0.00  0.00     0.000 OA
ENDBRANCH 5 16
BRANCH 1 22
ATOM     22  O4  GU1 D   2      35.707  43.097   8.9860  0.00  0.00     0.000 O
BRANCH 22 26
ATOM     23  C1  GU1 D   2      31.698  43.986   8.6570  0.00  0.00     0.000 C
ATOM     24  C2  GU1 D   2      32.440  44.766   9.7320  0.00  0.00     0.000 C
ATOM     25  C3  GU1 D   2      33.919  44.647   9.5010  0.00  0.00     0.000 C
ATOM     26  C4  GU1 D   2      34.336  43.187   9.3900  0.00  0.00     0.000 C
ATOM     27  C5  GU1 D   2      33.460  42.469   8.3580  0.00  0.00     0.000 C
ATOM     28  O5  GU1 D   2      32.081  42.616   8.6850  0.00  0.00     0.000 O
ATOM     29   O  GU1 D   2      32.098  46.147   9.7190  0.00  0.00     0.000 O
ATOM     30   C  GU1 D   2      31.095  46.499  10.6610  0.00  0.00     0.000 C
ATOM     31   C  GU1 D   2      35.126  46.535  10.3780  0.00  0.00     0.000 C
ATOM     32   O  GU1 D   2      34.598  45.232  10.6160  0.00  0.00     0.000 O
BRANCH 27 33
ATOM     33   C  GU1 D   2      33.770  40.992   8.3120  0.00  0.00     0.000 C
ATOM     34   O  GU1 D   2      33.575  40.330   9.3100  0.00  0.00     0.000 OA
ATOM     35   O  GU1 D   2      34.202  40.480   7.2910  0.00  0.00     0.000 O
ENDBRANCH 27 33
BRANCH 23 36
ATOM     36  O4  GU6 D   3      30.284  43.739   8.7910  0.00  0.00     0.000 O
BRANCH 36 40
ATOM     37  C1  GU6 D   3      26.365  42.741   8.2100  0.00  0.00     0.000 C
ATOM     38  C2  GU6 D   3      26.842  43.904   7.3480  0.00  0.00     0.000 C
ATOM     39  C3  GU6 D   3      28.342  44.013   7.4330  0.00  0.00     0.000 C
ATOM     40  C4  GU6 D   3      29.029  43.195   8.4380  0.00  0.00     0.000 C
ATOM     41  C5  GU6 D   3      28.167  43.136   9.7420  0.00  0.00     0.000 C
ATOM     42  O5  GU6 D   3      26.756  42.984   9.5520  0.00  0.00     0.000 O
BRANCH 38 43
ATOM     43   O  GU6 D   3      26.447  43.721   6.0020  0.00  0.00     0.000 O
ATOM     44   S  GU6 D   3      25.101  44.342   5.6510  0.00  0.00     0.000 S
ATOM     45   O  GU6 D   3      24.034  43.423   6.0820  0.00  0.00     0.000 OA
ATOM     46   O  GU6 D   3      24.969  45.619   6.3750  0.00  0.00     0.000 O
ATOM     47   O  GU6 D   3      25.052  44.576   4.2110  0.00  0.00     0.000 OA
ENDBRANCH 38 43
BRANCH 39 48
ATOM     48   O  GU6 D   3      29.078  44.695   6.4350  0.00  0.00     0.000 O
ATOM     49   S  GU6 D   3      29.263  46.194   6.2050  0.00  0.00     0.000 S
ATOM     50   O  GU6 D   3      29.784  46.832   7.4190  0.00  0.00     0.000 OA
ATOM     51   O  GU6 D   3      30.246  46.245   5.1140  0.00  0.00     0.000 OA
ATOM     52   O  GU6 D   3      27.957  46.788   5.8420  0.00  0.00     0.000 O
ENDBRANCH 39 48
BRANCH 41 53
ATOM     53   C  GU6 D   3      28.616  43.203  11.1770  0.00  0.00     0.000 C
ATOM     54   O  GU6 D   3      29.120  41.897  11.2810  0.00  0.00     0.000 O
ATOM     55   S  GU6 D   3      29.627  41.363  12.6270  0.00  0.00     0.000 S
ATOM     56   O  GU6 D   3      28.452  41.281  13.5250  0.00  0.00     0.000 O
ATOM     57   O  GU6 D   3      30.212  40.031  12.4120  0.00  0.00     0.000 OA
ATOM     58   O  GU6 D   3      30.621  42.334  13.1380  0.00  0.00     0.000 OA
ENDBRANCH 41 53
BRANCH 37 59
ATOM     59  O4  Z9K D   4      26.617  41.347   7.9340  0.00  0.00     0.000 O
BRANCH 59 63
ATOM     60  C1  Z9K D   4      25.262  37.688   8.4000  0.00  0.00     0.000 C
ATOM     61  C2  Z9K D   4      24.843  38.338   9.7470  0.00  0.00     0.000 C
ATOM     62  C3  Z9K D   4      25.226  39.858   9.4810  0.00  0.00     0.000 C
ATOM     63  C4  Z9K D   4      26.620  40.195   8.8250  0.00  0.00     0.000 C
ATOM     64  C5  Z9K D   4      27.233  39.097   7.9430  0.00  0.00     0.000 C
ATOM     65  O5  Z9K D   4      26.064  38.447   7.3780  0.00  0.00     0.000 O
ATOM     66   O  Z9K D   4      25.167  40.676  10.6630  0.00  0.00     0.000 O
ATOM     67   C  Z9K D   4      23.879  41.194  10.9530  0.00  0.00     0.000 C
BRANCH 61 68
ATOM     68   O  Z9K D   4      23.444  38.290   9.8090  0.00  0.00     0.000 O
ATOM     69   O  Z9K D   4      24.481  38.092  12.1400  0.00  0.00     0.000 OA
ATOM     70   S  Z9K D   4      23.866  37.365  11.0700  0.00  0.00     0.000 S
ATOM     71   O  Z9K D   4      24.274  36.080  10.5900  0.00  0.00     0.000 OA
ATOM     72   O  Z9K D   4      22.444  37.402  11.1790  0.00  0.00     0.000 OA
ENDBRANCH 61 68
BRANCH 64 73
ATOM     73   C  Z9K D   4      28.288  39.690   6.9840  0.00  0.00     0.000 C
ATOM     74   O  Z9K D   4      29.449  39.985   7.3890  0.00  0.00     0.000 O
ATOM     75   O  Z9K D   4      28.038  39.894   5.7710  0.00  0.00     0.000 OA
ENDBRANCH 64 73
BRANCH 60 76
ATOM     76  O4  Z9L D   5      25.951  36.444   8.1830  0.00  0.00     0.000 O
BRANCH 76 80
ATOM     77  C1  Z9L D   5      26.066  33.110   5.9830  0.00  0.00     0.000 C
ATOM     78  C2  Z9L D   5      27.386  33.950   5.6310  0.00  0.00     0.000 C
ATOM     79  C3  Z9L D   5      27.573  35.097   6.8610  0.00  0.00     0.000 C
ATOM     80  C4  Z9L D   5      26.019  35.605   7.0590  0.00  0.00     0.000 C
ATOM     81  C5  Z9L D   5      24.645  34.770   7.1850  0.00  0.00     0.000 C
ATOM     82  O5  Z9L D   5      24.728  33.708   6.2220  0.00  0.00     0.000 O
ATOM     83   C  Z9L D   5      25.284  31.375   7.4900  0.00  0.00     0.000 C
ATOM     84   C  Z9L D   5      25.284  31.375   7.4900  0.00  0.00     0.000 C
BRANCH 78 85
ATOM     85   O  Z9L D   5      28.471  33.079   5.6500  0.00  0.00     0.000 O
ATOM     86   O  Z9L D   5      29.419  32.458   4.0920  0.00  0.00     0.000 OA
ATOM     87   S  Z9L D   5      28.386  33.449   4.0880  0.00  0.00     0.000 S
ATOM     88   O  Z9L D   5      29.051  34.682   3.7460  0.00  0.00     0.000 OA
ATOM     89   O  Z9L D   5      27.313  32.868   3.3570  0.00  0.00     0.000 OA
ENDBRANCH 78 85
BRANCH 79 90
ATOM     90   O  Z9L D   5      28.209  36.243   6.3920  0.00  0.00     0.000 O
ATOM     91   S  Z9L D   5      29.245  35.806   7.5200  0.00  0.00     0.000 S
ATOM     92   O  Z9L D   5      29.858  34.504   7.5400  0.00  0.00     0.000 OA
ATOM     93   O  Z9L D   5      28.936  36.499   8.7460  0.00  0.00     0.000 O
ATOM     94   O  Z9L D   5      30.092  36.662   6.7550  0.00  0.00     0.000 OA
ENDBRANCH 79 90
BRANCH 81 95
ATOM     95   C  Z9L D   5      23.219  35.646   7.2860  0.00  0.00     0.000 C
ATOM     96   S  Z9L D   5      21.798  36.568   6.2380  0.00  0.00     0.000 S
ATOM     97   O  Z9L D   5      23.355  36.380   6.0990  0.00  0.00     0.000 O
ATOM     98   O  Z9L D   5      21.588  37.493   7.3220  0.00  0.00     0.000 OA
ATOM     99   O  Z9L D   5      21.017  35.384   6.1120  0.00  0.00     0.000 OA
ATOM    100   O  Z9L D   5      22.002  37.324   5.0270  0.00  0.00     0.000 O
ENDBRANCH 81 95
ENDBRANCH 76 80
ENDBRANCH 60 76
ENDBRANCH 59 63
ENDBRANCH 37 59
ENDBRANCH 36 40
ENDBRANCH 23 36
ENDBRANCH 22 26
ENDBRANCH 1 22
TORSDOF 19
ENDMDL
MODEL 38
REMARK VINA RESULT:      -1.5     11.338     17.783
ROOT
ATOM      1  C1  Z9H D   1      37.483  43.197  10.3380  0.00  0.00     0.000 C
ATOM      2  C2  Z9H D   1      38.922  43.566   9.9060  0.00  0.00     0.000 C
ATOM      3  C3  Z9H D   1      39.354  42.170   9.3610  0.00  0.00     0.000 C
ATOM      4  C4  Z9H D   1      39.090  40.949  10.3360  0.00  0.00     0.000 C
ATOM      5  C5  Z9H D   1      37.716  40.721  11.0830  0.00  0.00     0.000 C
ATOM      6  O5  Z9H D   1      37.248  42.084  11.2440  0.00  0.00     0.000 O
ATOM      7   O  Z9H D   1      40.716  42.173   8.9270  0.00  0.00     0.000 O
ATOM      8   C  Z9H D   1      40.910  42.335   7.5120  0.00  0.00     0.000 C
ATOM      9   O  Z9H D   1      39.351  39.772   9.5630  0.00  0.00     0.000 O
ATOM     10   C  Z9H D   1      40.637  39.176   9.7610  0.00  0.00     0.000 C
ENDROOT
BRANCH 2 11
ATOM     11   O  Z9H D   1      38.693  44.349   8.7650  0.00  0.00     0.000 O
ATOM     12   O  Z9H D   1      39.088  46.190   8.6460  0.00  0.00     0.000 OA
ATOM     13   S  Z9H D   1      39.359  45.373   9.7800  0.00  0.00     0.000 S
ATOM     14   O  Z9H D   1      40.744  45.026   9.9270  0.00  0.00     0.000 OA
ATOM     15   O  Z9H D   1      38.466  45.706  10.8660  0.00  0.00     0.000 O
ENDBRANCH 2 11
BRANCH 5 16
ATOM     16   C  Z9H D   1      37.780  39.663  12.3780  0.00  0.00     0.000 C
ATOM     17   S  Z9H D   1      38.201  39.509  14.3370  0.00  0.00     0.000 S
ATOM     18   O  Z9H D   1      37.450  40.581  13.3920  0.00  0.00     0.000 O
ATOM     19   O  Z9H D   1      39.616  39.403  14.1220  0.00  0.00     0.000 O
ATOM     20   O  Z9H D   1      37.361  38.386  14.5680  0.00  0.00     0.000 OA
ATOM     21   O  Z9H D   1      37.881  40.503  15.3190  0.00  0.00     0.000 OA
ENDBRANCH 5 16
BRANCH 1 22
ATOM     22  O4  GU1 D   2      36.577  42.839   9.2330  0.00  0.00     0.000 O
BRANCH 22 26
ATOM     23  C1  GU1 D   2      32.704  43.120   7.8590  0.00  0.00     0.000 C
ATOM     24  C2  GU1 D   2      33.161  44.284   8.7240  0.00  0.00     0.000 C
ATOM     25  C3  GU1 D   2      34.658  44.262   8.8360  0.00  0.00     0.000 C
ATOM     26  C4  GU1 D   2      35.148  42.902   9.3110  0.00  0.00     0.000 C
ATOM     27  C5  GU1 D   2      34.548  41.794   8.4390  0.00  0.00     0.000 C
ATOM     28  O5  GU1 D   2      33.126  41.885   8.4260  0.00  0.00     0.000 O
ATOM     29   O  GU1 D   2      32.775  45.539   8.1760  0.00  0.00     0.000 O
ATOM     30   C  GU1 D   2      31.578  46.064   8.7310  0.00  0.00     0.000 C
ATOM     31   C  GU1 D   2      35.569  46.455   9.2300  0.00  0.00     0.000 C
ATOM     32   O  GU1 D   2      35.055  45.250   9.7930  0.00  0.00     0.000 O
BRANCH 27 33
ATOM     33   C  GU1 D   2      34.920  40.427   8.9600  0.00  0.00     0.000 C
ATOM     34   O  GU1 D   2      35.706  39.759   8.3200  0.00  0.00     0.000 OA
ATOM     35   O  GU1 D   2      34.441  40.008  10.0030  0.00  0.00     0.000 O
ENDBRANCH 27 33
BRANCH 23 36
ATOM     36  O4  GU6 D   3      31.306  42.774   7.7970  0.00  0.00     0.000 O
BRANCH 36 40
ATOM     37  C1  GU6 D   3      27.677  41.366   6.5530  0.00  0.00     0.000 C
ATOM     38  C2  GU6 D   3      28.505  42.006   5.4460  0.00  0.00     0.000 C
ATOM     39  C3  GU6 D   3      29.910  42.240   5.9360  0.00  0.00     0.000 C
ATOM     40  C4  GU6 D   3      30.173  42.046   7.3660  0.00  0.00     0.000 C
ATOM     41  C5  GU6 D   3      28.951  42.560   8.1980  0.00  0.00     0.000 C
ATOM     42  O5  GU6 D   3      27.659  42.243   7.6690  0.00  0.00     0.000 O
BRANCH 38 43
ATOM     43   O  GU6 D   3      28.526  41.179   4.2980  0.00  0.00     0.000 O
ATOM     44   S  GU6 D   3      27.503  41.553   3.2340  0.00  0.00     0.000 S
ATOM     45   O  GU6 D   3      26.200  40.980   3.6140  0.00  0.00     0.000 OA
ATOM     46   O  GU6 D   3      27.395  43.022   3.1810  0.00  0.00     0.000 O
ATOM     47   O  GU6 D   3      27.955  41.037   1.9450  0.00  0.00     0.000 OA
ENDBRANCH 38 43
BRANCH 39 48
ATOM     48   O  GU6 D   3      30.978  42.411   5.0250  0.00  0.00     0.000 O
ATOM     49   S  GU6 D   3      31.390  43.641   4.2170  0.00  0.00     0.000 S
ATOM     50   O  GU6 D   3      31.601  44.786   5.1090  0.00  0.00     0.000 OA
ATOM     51   O  GU6 D   3      32.650  43.219   3.5880  0.00  0.00     0.000 OA
ATOM     52   O  GU6 D   3      30.324  43.951   3.2380  0.00  0.00     0.000 O
ENDBRANCH 39 48
BRANCH 41 53
ATOM     53   C  GU6 D   3      28.942  43.331   9.4900  0.00  0.00     0.000 C
ATOM     54   O  GU6 D   3      29.172  42.251  10.3580  0.00  0.00     0.000 O
ATOM     55   S  GU6 D   3      29.149  42.457  11.8790  0.00  0.00     0.000 S
ATOM     56   O  GU6 D   3      27.757  42.814  12.2400  0.00  0.00     0.000 O
ATOM     57   O  GU6 D   3      29.548  41.199  12.5270  0.00  0.00     0.000 OA
ATOM     58   O  GU6 D   3      30.080  43.565  12.1860  0.00  0.00     0.000 OA
ENDBRANCH 41 53
BRANCH 37 59
ATOM     59  O4  Z9K D   4      27.867  40.028   7.0610  0.00  0.00     0.000 O
BRANCH 59 63
ATOM     60  C1  Z9K D   4      28.439  36.169   7.5410  0.00  0.00     0.000 C
ATOM     61  C2  Z9K D   4      29.645  36.542   6.6340  0.00  0.00     0.000 C
ATOM     62  C3  Z9K D   4      29.514  38.126   6.5960  0.00  0.00     0.000 C
ATOM     63  C4  Z9K D   4      28.097  38.775   6.3550  0.00  0.00     0.000 C
ATOM     64  C5  Z9K D   4      26.888  37.929   6.7820  0.00  0.00     0.000 C
ATOM     65  O5  Z9K D   4      27.399  37.187   7.9200  0.00  0.00     0.000 O
ATOM     66   O  Z9K D   4      30.373  38.744   5.6210  0.00  0.00     0.000 O
ATOM     67   C  Z9K D   4      31.690  39.001   6.0800  0.00  0.00     0.000 C
BRANCH 61 68
ATOM     68   O  Z9K D   4      30.809  36.261   7.3620  0.00  0.00     0.000 O
ATOM     69   O  Z9K D   4      31.162  35.862   4.8590  0.00  0.00     0.000 OA
ATOM     70   S  Z9K D   4      30.931  35.227   6.1220  0.00  0.00     0.000 S
ATOM     71   O  Z9K D   4      30.057  34.117   6.3520  0.00  0.00     0.000 OA
ATOM     72   O  Z9K D   4      32.159  35.017   6.8190  0.00  0.00     0.000 OA
ENDBRANCH 61 68
BRANCH 64 73
ATOM     73   C  Z9K D   4      25.639  38.816   6.9740  0.00  0.00     0.000 C
ATOM     74   O  Z9K D   4      24.949  39.200   5.9850  0.00  0.00     0.000 O
ATOM     75   O  Z9K D   4      25.257  39.183   8.1120  0.00  0.00     0.000 OA
ENDBRANCH 64 73
BRANCH 60 76
ATOM     76  O4  Z9L D   5      27.495  35.097   7.3770  0.00  0.00     0.000 O
BRANCH 76 80
ATOM     77  C1  Z9L D   5      25.087  32.592   9.3510  0.00  0.00     0.000 C
ATOM     78  C2  Z9L D   5      24.153  33.504   8.4180  0.00  0.00     0.000 C
ATOM     79  C3  Z9L D   5      25.167  34.221   7.2700  0.00  0.00     0.000 C
ATOM     80  C4  Z9L D   5      26.457  34.640   8.2060  0.00  0.00     0.000 C
ATOM     81  C5  Z9L D   5      27.266  33.804   9.3220  0.00  0.00     0.000 C
ATOM     82  O5  Z9L D   5      26.282  33.086  10.0810  0.00  0.00     0.000 O
ATOM     83   C  Z9L D   5      26.280  30.479   9.3300  0.00  0.00     0.000 C
ATOM     84   C  Z9L D   5      26.280  30.479   9.3300  0.00  0.00     0.000 C
BRANCH 78 85
ATOM     85   O  Z9L D   5      23.247  32.671   7.7690  0.00  0.00     0.000 O
ATOM     86   O  Z9L D   5      21.349  32.633   8.0960  0.00  0.00     0.000 OA
ATOM     87   S  Z9L D   5      22.265  33.571   8.6680  0.00  0.00     0.000 S
ATOM     88   O  Z9L D   5      21.926  34.838   8.0680  0.00  0.00     0.000 OA
ATOM     89   O  Z9L D   5      22.257  33.299  10.0640  0.00  0.00     0.000 OA
ENDBRANCH 78 85
BRANCH 79 90
ATOM     90   O  Z9L D   5      24.675  35.457   6.8610  0.00  0.00     0.000 O
ATOM     91   S  Z9L D   5      24.848  34.757   5.4420  0.00  0.00     0.000 S
ATOM     92   O  Z9L D   5      24.221  33.502   5.1210  0.00  0.00     0.000 OA
ATOM     93   O  Z9L D   5      26.134  35.105   4.8910  0.00  0.00     0.000 O
ATOM     94   O  Z9L D   5      23.937  35.791   5.0730  0.00  0.00     0.000 OA
ENDBRANCH 79 90
BRANCH 81 95
ATOM     95   C  Z9L D   5      28.486  34.604  10.1480  0.00  0.00     0.000 C
ATOM     96   S  Z9L D   5      28.950  35.572  11.8260  0.00  0.00     0.000 S
ATOM     97   O  Z9L D   5      27.677  35.465  10.9050  0.00  0.00     0.000 O
ATOM     98   O  Z9L D   5      29.914  36.367  11.1100  0.00  0.00     0.000 OA
ATOM     99   O  Z9L D   5      29.329  34.376  12.5010  0.00  0.00     0.000 OA
ATOM    100   O  Z9L D   5      28.077  36.461  12.5540  0.00  0.00     0.000 O
ENDBRANCH 81 95
ENDBRANCH 76 80
ENDBRANCH 60 76
ENDBRANCH 59 63
ENDBRANCH 37 59
ENDBRANCH 36 40
ENDBRANCH 23 36
ENDBRANCH 22 26
ENDBRANCH 1 22
TORSDOF 19
ENDMDL
MODEL 39
REMARK VINA RESULT:      -1.2     14.170     20.026
ROOT
ATOM      1  C1  Z9H D   1      39.796  44.790  10.5530  0.00  0.00     0.000 C
ATOM      2  C2  Z9H D   1      41.332  44.816  10.3690  0.00  0.00     0.000 C
ATOM      3  C3  Z9H D   1      41.502  43.405   9.7250  0.00  0.00     0.000 C
ATOM      4  C4  Z9H D   1      40.800  42.215  10.5020  0.00  0.00     0.000 C
ATOM      5  C5  Z9H D   1      39.309  42.283  11.0220  0.00  0.00     0.000 C
ATOM      6  O5  Z9H D   1      39.159  43.702  11.2790  0.00  0.00     0.000 O
ATOM      7   O  Z9H D   1      42.876  43.099   9.4840  0.00  0.00     0.000 O
ATOM      8   C  Z9H D   1      43.330  43.321   8.1390  0.00  0.00     0.000 C
ATOM      9   O  Z9H D   1      40.895  41.078   9.6380  0.00  0.00     0.000 O
ATOM     10   C  Z9H D   1      41.952  40.162   9.9370  0.00  0.00     0.000 C
ENDROOT
BRANCH 2 11
ATOM     11   O  Z9H D   1      41.484  45.722   9.3080  0.00  0.00     0.000 O
ATOM     12   O  Z9H D   1      42.342  47.395   9.4590  0.00  0.00     0.000 OA
ATOM     13   S  Z9H D   1      42.223  46.446  10.5140  0.00  0.00     0.000 S
ATOM     14   O  Z9H D   1      43.437  45.732  10.7910  0.00  0.00     0.000 OA
ATOM     15   O  Z9H D   1      41.288  46.914  11.5100  0.00  0.00     0.000 O
ENDBRANCH 2 11
BRANCH 5 16
ATOM     16   C  Z9H D   1      38.909  41.142  12.1780  0.00  0.00     0.000 C
ATOM     17   S  Z9H D   1      38.713  40.821  14.1530  0.00  0.00     0.000 S
ATOM     18   O  Z9H D   1      38.355  42.018  13.1300  0.00  0.00     0.000 O
ATOM     19   O  Z9H D   1      40.116  40.598  14.3530  0.00  0.00     0.000 O
ATOM     20   O  Z9H D   1      37.767  39.768  14.0250  0.00  0.00     0.000 OA
ATOM     21   O  Z9H D   1      38.183  41.775  15.0830  0.00  0.00     0.000 OA
ENDBRANCH 5 16
BRANCH 1 22
ATOM     22  O4  GU1 D   2      39.022  44.764   9.3000  0.00  0.00     0.000 O
BRANCH 22 26
ATOM     23  C1  GU1 D   2      35.648  46.175   7.4030  0.00  0.00     0.000 C
ATOM     24  C2  GU1 D   2      36.279  47.144   8.3910  0.00  0.00     0.000 C
ATOM     25  C3  GU1 D   2      37.672  46.688   8.7160  0.00  0.00     0.000 C
ATOM     26  C4  GU1 D   2      37.676  45.237   9.1760  0.00  0.00     0.000 C
ATOM     27  C5  GU1 D   2      36.928  44.364   8.1640  0.00  0.00     0.000 C
ATOM     28  O5  GU1 D   2      35.610  44.863   7.9530  0.00  0.00     0.000 O
ATOM     29   O  GU1 D   2      36.355  48.465   7.8670  0.00  0.00     0.000 O
ATOM     30   C  GU1 D   2      35.285  49.307   8.2740  0.00  0.00     0.000 C
ATOM     31   C  GU1 D   2      39.096  48.517   9.3620  0.00  0.00     0.000 C
ATOM     32   O  GU1 D   2      38.181  47.505   9.7740  0.00  0.00     0.000 O
BRANCH 27 33
ATOM     33   C  GU1 D   2      36.810  42.940   8.6530  0.00  0.00     0.000 C
ATOM     34   O  GU1 D   2      37.402  42.070   8.0470  0.00  0.00     0.000 OA
ATOM     35   O  GU1 D   2      36.139  42.675   9.6380  0.00  0.00     0.000 O
ENDBRANCH 27 33
BRANCH 23 36
ATOM     36  O4  GU6 D   3      34.237  46.250   7.1220  0.00  0.00     0.000 O
BRANCH 36 40
ATOM     37  C1  GU6 D   3      30.631  46.126   5.2040  0.00  0.00     0.000 C
ATOM     38  C2  GU6 D   3      31.783  46.595   4.3250  0.00  0.00     0.000 C
ATOM     39  C3  GU6 D   3      33.090  46.348   5.0310  0.00  0.00     0.000 C
ATOM     40  C4  GU6 D   3      33.037  45.942   6.4400  0.00  0.00     0.000 C
ATOM     41  C5  GU6 D   3      31.884  46.713   7.1630  0.00  0.00     0.000 C
ATOM     42  O5  GU6 D   3      30.666  46.852   6.4230  0.00  0.00     0.000 O
BRANCH 38 43
ATOM     43   O  GU6 D   3      31.769  45.918   3.0830  0.00  0.00     0.000 O
ATOM     44   S  GU6 D   3      30.929  46.595   2.0070  0.00  0.00     0.000 S
ATOM     45   O  GU6 D   3      29.518  46.227   2.2150  0.00  0.00     0.000 OA
ATOM     46   O  GU6 D   3      31.080  48.055   2.1410  0.00  0.00     0.000 O
ATOM     47   O  GU6 D   3      31.405  46.160   0.6970  0.00  0.00     0.000 OA
ENDBRANCH 38 43
BRANCH 39 48
ATOM     48   O  GU6 D   3      34.305  46.280   4.3080  0.00  0.00     0.000 O
ATOM     49   S  GU6 D   3      35.128  47.397   3.6680  0.00  0.00     0.000 S
ATOM     50   O  GU6 D   3      35.456  48.420   4.6670  0.00  0.00     0.000 OA
ATOM     51   O  GU6 D   3      36.336  46.698   3.2080  0.00  0.00     0.000 OA
ATOM     52   O  GU6 D   3      34.345  47.998   2.5650  0.00  0.00     0.000 O
ENDBRANCH 39 48
BRANCH 41 53
ATOM     53   C  GU6 D   3      31.868  47.318   8.5410  0.00  0.00     0.000 C
ATOM     54   O  GU6 D   3      31.605  46.143   9.2630  0.00  0.00     0.000 O
ATOM     55   S  GU6 D   3      31.366  46.198  10.7780  0.00  0.00     0.000 S
ATOM     56   O  GU6 D   3      30.102  46.942  10.9840  0.00  0.00     0.000 O
ATOM     57   O  GU6 D   3      31.248  44.822  11.2830  0.00  0.00     0.000 OA
ATOM     58   O  GU6 D   3      32.512  46.918  11.3770  0.00  0.00     0.000 OA
ENDBRANCH 41 53
BRANCH 37 59
ATOM     59  O4  Z9K D   4      30.347  44.749   5.5330  0.00  0.00     0.000 O
BRANCH 59 63
ATOM     60  C1  Z9K D   4      29.692  40.874   5.5060  0.00  0.00     0.000 C
ATOM     61  C2  Z9K D   4      30.940  40.975   4.5850  0.00  0.00     0.000 C
ATOM     62  C3  Z9K D   4      31.310  42.513   4.7470  0.00  0.00     0.000 C
ATOM     63  C4  Z9K D   4      30.163  43.592   4.6670  0.00  0.00     0.000 C
ATOM     64  C5  Z9K D   4      28.757  43.111   5.0560  0.00  0.00     0.000 C
ATOM     65  O5  Z9K D   4      29.028  42.103   6.0650  0.00  0.00     0.000 O
ATOM     66   O  Z9K D   4      32.304  42.961   3.8080  0.00  0.00     0.000 O
ATOM     67   C  Z9K D   4      33.642  42.736   4.2190  0.00  0.00     0.000 C
BRANCH 61 68
ATOM     68   O  Z9K D   4      31.969  40.255   5.2070  0.00  0.00     0.000 O
ATOM     69   O  Z9K D   4      32.151  40.119   2.6580  0.00  0.00     0.000 OA
ATOM     70   S  Z9K D   4      31.751  39.415   3.8390  0.00  0.00     0.000 S
ATOM     71   O  Z9K D   4      30.580  38.603   3.9720  0.00  0.00     0.000 OA
ATOM     72   O  Z9K D   4      32.862  38.747   4.4360  0.00  0.00     0.000 OA
ENDBRANCH 61 68
BRANCH 64 73
ATOM     73   C  Z9K D   4      27.851  44.304   5.4240  0.00  0.00     0.000 C
ATOM     74   O  Z9K D   4      27.327  45.030   4.5300  0.00  0.00     0.000 O
ATOM     75   O  Z9K D   4      27.594  44.596   6.6180  0.00  0.00     0.000 OA
ENDBRANCH 64 73
BRANCH 60 76
ATOM     76  O4  Z9L D   5      28.458  40.176   5.2670  0.00  0.00     0.000 O
BRANCH 76 80
ATOM     77  C1  Z9L D   5      25.689  37.807   6.9070  0.00  0.00     0.000 C
ATOM     78  C2  Z9L D   5      24.976  39.206   6.5780  0.00  0.00     0.000 C
ATOM     79  C3  Z9L D   5      25.984  40.021   5.4930  0.00  0.00     0.000 C
ATOM     80  C4  Z9L D   5      27.465  39.719   6.1480  0.00  0.00     0.000 C
ATOM     81  C5  Z9L D   5      28.114  38.350   6.6990  0.00  0.00     0.000 C
ATOM     82  O5  Z9L D   5      27.075  37.673   7.4220  0.00  0.00     0.000 O
ATOM     83   C  Z9L D   5      26.108  35.629   5.9210  0.00  0.00     0.000 C
ATOM     84   C  Z9L D   5      26.108  35.629   5.9210  0.00  0.00     0.000 C
BRANCH 78 85
ATOM     85   O  Z9L D   5      23.760  38.935   5.9570  0.00  0.00     0.000 O
ATOM     86   O  Z9L D   5      22.026  39.224   6.7450  0.00  0.00     0.000 OA
ATOM     87   S  Z9L D   5      23.272  39.617   7.3280  0.00  0.00     0.000 S
ATOM     88   O  Z9L D   5      23.266  41.058   7.2910  0.00  0.00     0.000 OA
ATOM     89   O  Z9L D   5      23.398  38.829   8.5070  0.00  0.00     0.000 OA
ENDBRANCH 78 85
BRANCH 79 90
ATOM     90   O  Z9L D   5      25.867  41.402   5.6320  0.00  0.00     0.000 O
ATOM     91   S  Z9L D   5      25.455  41.252   4.1010  0.00  0.00     0.000 S
ATOM     92   O  Z9L D   5      24.378  40.399   3.6720  0.00  0.00     0.000 OA
ATOM     93   O  Z9L D   5      26.618  41.451   3.2720  0.00  0.00     0.000 O
ATOM     94   O  Z9L D   5      24.897  42.540   4.3600  0.00  0.00     0.000 OA
ENDBRANCH 79 90
BRANCH 81 95
ATOM     95   C  Z9L D   5      29.638  38.446   7.3920  0.00  0.00     0.000 C
ATOM     96   S  Z9L D   5      30.638  38.598   9.1080  0.00  0.00     0.000 S
ATOM     97   O  Z9L D   5      29.285  39.171   8.5400  0.00  0.00     0.000 O
ATOM     98   O  Z9L D   5      31.701  39.300   8.4360  0.00  0.00     0.000 OA
ATOM     99   O  Z9L D   5      30.683  37.187   9.2950  0.00  0.00     0.000 OA
ATOM    100   O  Z9L D   5      30.231  39.376  10.2530  0.00  0.00     0.000 O
ENDBRANCH 81 95
ENDBRANCH 76 80
ENDBRANCH 60 76
ENDBRANCH 59 63
ENDBRANCH 37 59
ENDBRANCH 36 40
ENDBRANCH 23 36
ENDBRANCH 22 26
ENDBRANCH 1 22
TORSDOF 19
ENDMDL
MODEL 40
REMARK VINA RESULT:      -1.2     15.097     21.564
ROOT
ATOM      1  C1  Z9H D   1      41.494  45.848   7.1230  0.00  0.00     0.000 C
ATOM      2  C2  Z9H D   1      42.355  46.618   6.0930  0.00  0.00     0.000 C
ATOM      3  C3  Z9H D   1      42.898  45.392   5.2960  0.00  0.00     0.000 C
ATOM      4  C4  Z9H D   1      43.531  44.236   6.1770  0.00  0.00     0.000 C
ATOM      5  C5  Z9H D   1      42.827  43.646   7.4630  0.00  0.00     0.000 C
ATOM      6  O5  Z9H D   1      42.084  44.797   7.9380  0.00  0.00     0.000 O
ATOM      7   O  Z9H D   1      43.809  45.792   4.2720  0.00  0.00     0.000 O
ATOM      8   C  Z9H D   1      43.249  45.888   2.9510  0.00  0.00     0.000 C
ATOM      9   O  Z9H D   1      43.756  43.143   5.2800  0.00  0.00     0.000 O
ATOM     10   C  Z9H D   1      45.096  43.007   4.7970  0.00  0.00     0.000 C
ENDROOT
BRANCH 2 11
ATOM     11   O  Z9H D   1      41.377  47.189   5.2640  0.00  0.00     0.000 O
ATOM     12   O  Z9H D   1      41.073  49.043   5.1050  0.00  0.00     0.000 OA
ATOM     13   S  Z9H D   1      42.093  48.453   5.9050  0.00  0.00     0.000 S
ATOM     14   O  Z9H D   1      43.408  48.561   5.3410  0.00  0.00     0.000 OA
ATOM     15   O  Z9H D   1      41.776  48.592   7.3080  0.00  0.00     0.000 O
ENDBRANCH 2 11
BRANCH 5 16
ATOM     16   C  Z9H D   1      43.830  42.777   8.4830  0.00  0.00     0.000 C
ATOM     17   S  Z9H D   1      44.124  42.217  10.3910  0.00  0.00     0.000 S
ATOM     18   O  Z9H D   1      42.852  42.365   9.4080  0.00  0.00     0.000 O
ATOM     19   O  Z9H D   1      44.750  43.455  10.7580  0.00  0.00     0.000 O
ATOM     20   O  Z9H D   1      44.854  41.039  10.0750  0.00  0.00     0.000 OA
ATOM     21   O  Z9H D   1      43.080  41.854  11.3030  0.00  0.00     0.000 OA
ENDBRANCH 5 16
BRANCH 1 22
ATOM     22  O4  GU1 D   2      40.342  45.128   6.5520  0.00  0.00     0.000 O
BRANCH 22 26
ATOM     23  C1  GU1 D   2      36.410  44.066   7.1680  0.00  0.00     0.000 C
ATOM     24  C2  GU1 D   2      36.810  45.408   7.7610  0.00  0.00     0.000 C
ATOM     25  C3  GU1 D   2      38.111  45.850   7.1560  0.00  0.00     0.000 C
ATOM     26  C4  GU1 D   2      39.171  44.767   7.2940  0.00  0.00     0.000 C
ATOM     27  C5  GU1 D   2      38.631  43.435   6.7640  0.00  0.00     0.000 C
ATOM     28  O5  GU1 D   2      37.416  43.092   7.4240  0.00  0.00     0.000 O
ATOM     29   O  GU1 D   2      35.837  46.414   7.5060  0.00  0.00     0.000 O
ATOM     30   C  GU1 D   2      34.927  46.618   8.5770  0.00  0.00     0.000 C
ATOM     31   C  GU1 D   2      38.342  48.246   7.1590  0.00  0.00     0.000 C
ATOM     32   O  GU1 D   2      38.558  47.019   7.8510  0.00  0.00     0.000 O
BRANCH 27 33
ATOM     33   C  GU1 D   2      39.617  42.315   6.9980  0.00  0.00     0.000 C
ATOM     34   O  GU1 D   2      39.803  41.938   8.1370  0.00  0.00     0.000 OA
ATOM     35   O  GU1 D   2      40.206  41.800   6.0600  0.00  0.00     0.000 O
ENDBRANCH 27 33
BRANCH 23 36
ATOM     36  O4  GU6 D   3      35.332  43.311   7.7560  0.00  0.00     0.000 O
BRANCH 36 40
ATOM     37  C1  GU6 D   3      32.939  40.367   9.2720  0.00  0.00     0.000 C
ATOM     38  C2  GU6 D   3      32.181  41.452   8.5170  0.00  0.00     0.000 C
ATOM     39  C3  GU6 D   3      33.158  42.326   7.7760  0.00  0.00     0.000 C
ATOM     40  C4  GU6 D   3      34.586  42.151   8.0660  0.00  0.00     0.000 C
ATOM     41  C5  GU6 D   3      34.779  41.872   9.5930  0.00  0.00     0.000 C
ATOM     42  O5  GU6 D   3      33.823  40.989  10.1910  0.00  0.00     0.000 O
BRANCH 38 43
ATOM     43   O  GU6 D   3      31.262  40.876   7.6080  0.00  0.00     0.000 O
ATOM     44   S  GU6 D   3      29.816  40.886   8.0850  0.00  0.00     0.000 S
ATOM     45   O  GU6 D   3      29.616  39.747   8.9970  0.00  0.00     0.000 OA
ATOM     46   O  GU6 D   3      29.568  42.145   8.8110  0.00  0.00     0.000 O
ATOM     47   O  GU6 D   3      28.937  40.798   6.9230  0.00  0.00     0.000 OA
ENDBRANCH 38 43
BRANCH 39 48
ATOM     48   O  GU6 D   3      32.739  43.117   6.6800  0.00  0.00     0.000 O
ATOM     49   S  GU6 D   3      32.758  42.808   5.1830  0.00  0.00     0.000 S
ATOM     50   O  GU6 D   3      32.038  41.558   4.9160  0.00  0.00     0.000 OA
ATOM     51   O  GU6 D   3      32.060  43.959   4.5960  0.00  0.00     0.000 OA
ATOM     52   O  GU6 D   3      34.164  42.687   4.7360  0.00  0.00     0.000 O
ENDBRANCH 39 48
BRANCH 41 53
ATOM     53   C  GU6 D   3      35.841  42.390  10.5240  0.00  0.00     0.000 C
ATOM     54   O  GU6 D   3      35.131  43.492  11.0280  0.00  0.00     0.000 O
ATOM     55   S  GU6 D   3      35.810  44.485  11.9810  0.00  0.00     0.000 S
ATOM     56   O  GU6 D   3      36.871  45.167  11.2030  0.00  0.00     0.000 O
ATOM     57   O  GU6 D   3      34.804  45.451  12.4460  0.00  0.00     0.000 OA
ATOM     58   O  GU6 D   3      36.388  43.700  13.0940  0.00  0.00     0.000 OA
ENDBRANCH 41 53
BRANCH 37 59
ATOM     59  O4  Z9K D   4      33.656  39.276   8.6570  0.00  0.00     0.000 O
BRANCH 59 63
ATOM     60  C1  Z9K D   4      31.076  36.480   7.6700  0.00  0.00     0.000 C
ATOM     61  C2  Z9K D   4      31.303  36.163   9.1740  0.00  0.00     0.000 C
ATOM     62  C3  Z9K D   4      32.199  37.401   9.6120  0.00  0.00     0.000 C
ATOM     63  C4  Z9K D   4      33.402  37.841   8.6930  0.00  0.00     0.000 C
ATOM     64  C5  Z9K D   4      33.275  37.492   7.2020  0.00  0.00     0.000 C
ATOM     65  O5  Z9K D   4      31.844  37.570   6.9740  0.00  0.00     0.000 O
ATOM     66   O  Z9K D   4      32.770  37.255  10.9240  0.00  0.00     0.000 O
ATOM     67   C  Z9K D   4      31.922  37.670  11.9820  0.00  0.00     0.000 C
BRANCH 61 68
ATOM     68   O  Z9K D   4      30.068  36.323   9.8180  0.00  0.00     0.000 O
ATOM     69   O  Z9K D   4      31.442  34.455  10.9010  0.00  0.00     0.000 OA
ATOM     70   S  Z9K D   4      30.349  34.740  10.0210  0.00  0.00     0.000 S
ATOM     71   O  Z9K D   4      30.058  34.055   8.7990  0.00  0.00     0.000 OA
ATOM     72   O  Z9K D   4      29.141  34.935  10.7560  0.00  0.00     0.000 OA
ENDBRANCH 61 68
BRANCH 64 73
ATOM     73   C  Z9K D   4      34.212  38.375   6.3510  0.00  0.00     0.000 C
ATOM     74   O  Z9K D   4      33.750  39.196   5.5060  0.00  0.00     0.000 O
ATOM     75   O  Z9K D   4      35.461  38.318   6.4660  0.00  0.00     0.000 OA
ENDBRANCH 64 73
BRANCH 60 76
ATOM     76  O4  Z9L D   5      31.118  35.579   6.5500  0.00  0.00     0.000 O
BRANCH 76 80
ATOM     77  C1  Z9L D   5      29.295  34.661   3.1140  0.00  0.00     0.000 C
ATOM     78  C2  Z9L D   5      30.810  35.046   2.7540  0.00  0.00     0.000 C
ATOM     79  C3  Z9L D   5      31.684  34.983   4.2000  0.00  0.00     0.000 C
ATOM     80  C4  Z9L D   5      30.628  35.704   5.2400  0.00  0.00     0.000 C
ATOM     81  C5  Z9L D   5      29.045  35.486   5.4540  0.00  0.00     0.000 C
ATOM     82  O5  Z9L D   5      28.475  35.349   4.1430  0.00  0.00     0.000 O
ATOM     83   C  Z9L D   5      27.921  32.736   3.6640  0.00  0.00     0.000 C
ATOM     84   C  Z9L D   5      27.921  32.736   3.6640  0.00  0.00     0.000 C
BRANCH 78 85
ATOM     85   O  Z9L D   5      31.304  34.084   1.8790  0.00  0.00     0.000 O
ATOM     86   O  Z9L D   5      31.694  34.377   0.0160  0.00  0.00     0.000 OA
ATOM     87   S  Z9L D   5      31.305  35.393   0.9470  0.00  0.00     0.000 S
ATOM     88   O  Z9L D   5      32.476  36.220   1.1080  0.00  0.00     0.000 OA
ATOM     89   O  Z9L D   5      30.036  35.850   0.4950  0.00  0.00     0.000 OA
ENDBRANCH 78 85
BRANCH 79 90
ATOM     90   O  Z9L D   5      32.752  35.875   4.1870  0.00  0.00     0.000 O
ATOM     91   S  Z9L D   5      33.540  34.519   4.4690  0.00  0.00     0.000 S
ATOM     92   O  Z9L D   5      33.443  33.377   3.6000  0.00  0.00     0.000 OA
ATOM     93   O  Z9L D   5      33.716  34.357   5.8910  0.00  0.00     0.000 O
ATOM     94   O  Z9L D   5      34.625  35.318   3.9980  0.00  0.00     0.000 OA
ENDBRANCH 79 90
BRANCH 81 95
ATOM     95   C  Z9L D   5      28.274  36.484   6.5600  0.00  0.00     0.000 C
ATOM     96   S  Z9L D   5      26.560  36.841   7.5090  0.00  0.00     0.000 S
ATOM     97   O  Z9L D   5      26.967  36.344   6.0720  0.00  0.00     0.000 O
ATOM     98   O  Z9L D   5      26.876  38.245   7.5670  0.00  0.00     0.000 OA
ATOM     99   O  Z9L D   5      26.884  35.964   8.5830  0.00  0.00     0.000 OA
ATOM    100   O  Z9L D   5      25.240  36.694   6.9470  0.00  0.00     0.000 O
ENDBRANCH 81 95
ENDBRANCH 76 80
ENDBRANCH 60 76
ENDBRANCH 59 63
ENDBRANCH 37 59
ENDBRANCH 36 40
ENDBRANCH 23 36
ENDBRANCH 22 26
ENDBRANCH 1 22
TORSDOF 19
ENDMDL
MODEL 41
REMARK VINA RESULT:      -1.0     13.869     20.029
ROOT
ATOM      1  C1  Z9H D   1      39.878  46.643  11.3110  0.00  0.00     0.000 C
ATOM      2  C2  Z9H D   1      40.943  47.666  10.8470  0.00  0.00     0.000 C
ATOM      3  C3  Z9H D   1      41.948  46.664  10.2020  0.00  0.00     0.000 C
ATOM      4  C4  Z9H D   1      42.354  45.430  11.1100  0.00  0.00     0.000 C
ATOM      5  C5  Z9H D   1      41.300  44.550  11.8930  0.00  0.00     0.000 C
ATOM      6  O5  Z9H D   1      40.254  45.520  12.1550  0.00  0.00     0.000 O
ATOM      7   O  Z9H D   1      43.116  47.329   9.7170  0.00  0.00     0.000 O
ATOM      8   C  Z9H D   1      43.123  47.614   8.3080  0.00  0.00     0.000 C
ATOM      9   O  Z9H D   1      43.091  44.546  10.2580  0.00  0.00     0.000 O
ATOM     10   C  Z9H D   1      44.515  44.627  10.3700  0.00  0.00     0.000 C
ENDROOT
BRANCH 2 11
ATOM     11   O  Z9H D   1      40.300  48.287   9.7650  0.00  0.00     0.000 O
ATOM     12   O  Z9H D   1      39.781  50.100   9.7390  0.00  0.00     0.000 OA
ATOM     13   S  Z9H D   1      40.476  49.470  10.8100  0.00  0.00     0.000 S
ATOM     14   O  Z9H D   1      41.869  49.809  10.8770  0.00  0.00     0.000 OA
ATOM     15   O  Z9H D   1      39.604  49.309  11.9510  0.00  0.00     0.000 O
ENDBRANCH 2 11
BRANCH 5 16
ATOM     16   C  Z9H D   1      41.937  43.604  13.1180  0.00  0.00     0.000 C
ATOM     17   S  Z9H D   1      41.809  41.819  14.0330  0.00  0.00     0.000 S
ATOM     18   O  Z9H D   1      41.749  42.350  12.5090  0.00  0.00     0.000 O
ATOM     19   O  Z9H D   1      40.698  42.211  14.8520  0.00  0.00     0.000 O
ATOM     20   O  Z9H D   1      43.152  41.808  14.4960  0.00  0.00     0.000 OA
ATOM     21   O  Z9H D   1      41.568  40.576  13.3610  0.00  0.00     0.000 OA
ENDBRANCH 5 16
BRANCH 1 22
ATOM     22  O4  GU1 D   2      39.183  45.937  10.2200  0.00  0.00     0.000 O
BRANCH 22 26
ATOM     23  C1  GU1 D   2      35.574  44.393   8.9690  0.00  0.00     0.000 C
ATOM     24  C2  GU1 D   2      35.473  45.665   9.7970  0.00  0.00     0.000 C
ATOM     25  C3  GU1 D   2      36.820  46.325   9.8600  0.00  0.00     0.000 C
ATOM     26  C4  GU1 D   2      37.882  45.349  10.3440  0.00  0.00     0.000 C
ATOM     27  C5  GU1 D   2      37.831  44.064   9.5130  0.00  0.00     0.000 C
ATOM     28  O5  GU1 D   2      36.522  43.501   9.5450  0.00  0.00     0.000 O
ATOM     29   O  GU1 D   2      34.549  46.591   9.2380  0.00  0.00     0.000 O
ATOM     30   C  GU1 D   2      33.255  46.535   9.8220  0.00  0.00     0.000 C
ATOM     31   C  GU1 D   2      36.646  48.704  10.1830  0.00  0.00     0.000 C
ATOM     32   O  GU1 D   2      36.745  47.415  10.7850  0.00  0.00     0.000 O
BRANCH 27 33
ATOM     33   C  GU1 D   2      38.792  43.029  10.0470  0.00  0.00     0.000 C
ATOM     34   O  GU1 D   2      39.737  42.707   9.3560  0.00  0.00     0.000 OA
ATOM     35   O  GU1 D   2      38.622  42.534  11.1500  0.00  0.00     0.000 O
ENDBRANCH 27 33
BRANCH 23 36
ATOM     36  O4  GU6 D   3      34.484  43.450   8.9590  0.00  0.00     0.000 O
BRANCH 36 40
ATOM     37  C1  GU6 D   3      33.396  39.594   8.1600  0.00  0.00     0.000 C
ATOM     38  C2  GU6 D   3      34.056  39.781   9.5200  0.00  0.00     0.000 C
ATOM     39  C3  GU6 D   3      34.167  41.251   9.8290  0.00  0.00     0.000 C
ATOM     40  C4  GU6 D   3      33.860  42.199   8.7520  0.00  0.00     0.000 C
ATOM     41  C5  GU6 D   3      34.393  41.636   7.3930  0.00  0.00     0.000 C
ATOM     42  O5  GU6 D   3      34.195  40.235   7.1770  0.00  0.00     0.000 O
BRANCH 38 43
ATOM     43   O  GU6 D   3      33.308  39.130  10.5290  0.00  0.00     0.000 O
ATOM     44   S  GU6 D   3      34.110  38.146  11.3710  0.00  0.00     0.000 S
ATOM     45   O  GU6 D   3      34.210  36.874  10.6350  0.00  0.00     0.000 OA
ATOM     46   O  GU6 D   3      35.460  38.698  11.5810  0.00  0.00     0.000 O
ATOM     47   O  GU6 D   3      33.437  37.967  12.6540  0.00  0.00     0.000 OA
ENDBRANCH 38 43
BRANCH 39 48
ATOM     48   O  GU6 D   3      34.331  41.703  11.1600  0.00  0.00     0.000 O
ATOM     49   S  GU6 D   3      33.305  42.283  12.1320  0.00  0.00     0.000 S
ATOM     50   O  GU6 D   3      32.178  41.356  12.2910  0.00  0.00     0.000 OA
ATOM     51   O  GU6 D   3      34.066  42.412  13.3820  0.00  0.00     0.000 OA
ATOM     52   O  GU6 D   3      32.823  43.579  11.6050  0.00  0.00     0.000 O
ENDBRANCH 39 48
BRANCH 41 53
ATOM     53   C  GU6 D   3      35.074  42.367   6.2680  0.00  0.00     0.000 C
ATOM     54   O  GU6 D   3      34.324  41.828   5.2090  0.00  0.00     0.000 O
ATOM     55   S  GU6 D   3      34.682  42.159   3.7540  0.00  0.00     0.000 S
ATOM     56   O  GU6 D   3      36.009  41.554   3.4930  0.00  0.00     0.000 O
ATOM     57   O  GU6 D   3      33.661  41.572   2.8750  0.00  0.00     0.000 OA
ATOM     58   O  GU6 D   3      34.738  43.634   3.6400  0.00  0.00     0.000 OA
ENDBRANCH 41 53
BRANCH 37 59
ATOM     59  O4  Z9K D   4      32.018  39.899   7.8580  0.00  0.00     0.000 O
BRANCH 59 63
ATOM     60  C1  Z9K D   4      28.088  39.865   7.8340  0.00  0.00     0.000 C
ATOM     61  C2  Z9K D   4      28.372  41.032   8.8190  0.00  0.00     0.000 C
ATOM     62  C3  Z9K D   4      29.952  41.163   8.6830  0.00  0.00     0.000 C
ATOM     63  C4  Z9K D   4      30.835  39.857   8.7080  0.00  0.00     0.000 C
ATOM     64  C5  Z9K D   4      30.143  38.566   8.2450  0.00  0.00     0.000 C
ATOM     65  O5  Z9K D   4      29.203  39.044   7.2470  0.00  0.00     0.000 O
ATOM     66   O  Z9K D   4      30.538  42.025   9.6740  0.00  0.00     0.000 O
ATOM     67   C  Z9K D   4      30.533  43.401   9.3310  0.00  0.00     0.000 C
BRANCH 61 68
ATOM     68   O  Z9K D   4      27.832  42.193   8.2480  0.00  0.00     0.000 O
ATOM     69   O  Z9K D   4      27.675  42.256  10.8020  0.00  0.00     0.000 OA
ATOM     70   S  Z9K D   4      26.941  42.034   9.5920  0.00  0.00     0.000 S
ATOM     71   O  Z9K D   4      25.962  41.011   9.3840  0.00  0.00     0.000 OA
ATOM     72   O  Z9K D   4      26.464  43.265   9.0510  0.00  0.00     0.000 OA
ENDBRANCH 61 68
BRANCH 64 73
ATOM     73   C  Z9K D   4      31.183  37.502   7.8360  0.00  0.00     0.000 C
ATOM     74   O  Z9K D   4      31.496  37.324   6.6230  0.00  0.00     0.000 O
ATOM     75   O  Z9K D   4      31.762  36.782   8.6850  0.00  0.00     0.000 OA
ENDBRANCH 64 73
BRANCH 60 76
ATOM     76  O4  Z9L D   5      27.201  38.746   8.0060  0.00  0.00     0.000 O
BRANCH 76 80
ATOM     77  C1  Z9L D   5      24.558  36.392   6.1510  0.00  0.00     0.000 C
ATOM     78  C2  Z9L D   5      25.791  35.463   6.5830  0.00  0.00     0.000 C
ATOM     79  C3  Z9L D   5      26.668  36.329   7.7420  0.00  0.00     0.000 C
ATOM     80  C4  Z9L D   5      26.663  37.837   7.0800  0.00  0.00     0.000 C
ATOM     81  C5  Z9L D   5      25.466  38.698   6.4270  0.00  0.00     0.000 C
ATOM     82  O5  Z9L D   5      24.691  37.781   5.6410  0.00  0.00     0.000 O
ATOM     83   C  Z9L D   5      22.403  37.161   6.9620  0.00  0.00     0.000 C
ATOM     84   C  Z9L D   5      22.403  37.161   6.9620  0.00  0.00     0.000 C
BRANCH 78 85
ATOM     85   O  Z9L D   5      25.278  34.309   7.1680  0.00  0.00     0.000 O
ATOM     86   O  Z9L D   5      25.360  32.546   6.3940  0.00  0.00     0.000 OA
ATOM     87   S  Z9L D   5      25.994  33.712   5.8580  0.00  0.00     0.000 S
ATOM     88   O  Z9L D   5      27.407  33.479   6.0240  0.00  0.00     0.000 OA
ATOM     89   O  Z9L D   5      25.345  33.954   4.6160  0.00  0.00     0.000 OA
ENDBRANCH 78 85
BRANCH 79 90
ATOM     90   O  Z9L D   5      28.018  35.990   7.7140  0.00  0.00     0.000 O
ATOM     91   S  Z9L D   5      27.681  35.618   9.2260  0.00  0.00     0.000 S
ATOM     92   O  Z9L D   5      26.634  34.696   9.5770  0.00  0.00     0.000 OA
ATOM     93   O  Z9L D   5      27.998  36.740  10.0750  0.00  0.00     0.000 O
ATOM     94   O  Z9L D   5      28.879  34.858   9.0670  0.00  0.00     0.000 OA
ENDBRANCH 79 90
BRANCH 81 95
ATOM     95   C  Z9L D   5      25.863  40.185   5.7610  0.00  0.00     0.000 C
ATOM     96   S  Z9L D   5      26.514  41.111   4.1220  0.00  0.00     0.000 S
ATOM     97   O  Z9L D   5      26.808  39.734   4.8280  0.00  0.00     0.000 O
ATOM     98   O  Z9L D   5      27.125  42.132   4.9330  0.00  0.00     0.000 OA
ATOM     99   O  Z9L D   5      25.199  41.269   3.5970  0.00  0.00     0.000 OA
ATOM    100   O  Z9L D   5      27.505  40.602   3.2060  0.00  0.00     0.000 O
ENDBRANCH 81 95
ENDBRANCH 76 80
ENDBRANCH 60 76
ENDBRANCH 59 63
ENDBRANCH 37 59
ENDBRANCH 36 40
ENDBRANCH 23 36
ENDBRANCH 22 26
ENDBRANCH 1 22
TORSDOF 19
ENDMDL
MODEL 42
REMARK VINA RESULT:      -0.9     15.135     26.196
ROOT
ATOM      1  C1  Z9H D   1       9.707  58.473  25.6780  0.00  0.00     0.000 C
ATOM      2  C2  Z9H D   1       8.882  59.181  26.7790  0.00  0.00     0.000 C
ATOM      3  C3  Z9H D   1       9.104  60.652  26.3110  0.00  0.00     0.000 C
ATOM      4  C4  Z9H D   1      10.612  61.060  26.0410  0.00  0.00     0.000 C
ATOM      5  C5  Z9H D   1      11.607  60.174  25.1910  0.00  0.00     0.000 C
ATOM      6  O5  Z9H D   1      11.095  58.842  25.4450  0.00  0.00     0.000 O
ATOM      7   O  Z9H D   1       8.489  61.586  27.2010  0.00  0.00     0.000 O
ATOM      8   C  Z9H D   1       7.203  62.076  26.7860  0.00  0.00     0.000 C
ATOM      9   O  Z9H D   1      10.561  62.350  25.4240  0.00  0.00     0.000 O
ATOM     10   C  Z9H D   1      10.802  63.460  26.2940  0.00  0.00     0.000 C
ENDROOT
BRANCH 2 11
ATOM     11   O  Z9H D   1       7.566  58.872  26.4030  0.00  0.00     0.000 O
ATOM     12   O  Z9H D   1       6.402  57.788  27.4150  0.00  0.00     0.000 OA
ATOM     13   S  Z9H D   1       7.722  58.148  27.8080  0.00  0.00     0.000 S
ATOM     14   O  Z9H D   1       7.769  59.154  28.8310  0.00  0.00     0.000 OA
ATOM     15   O  Z9H D   1       8.602  57.005  27.7250  0.00  0.00     0.000 O
ENDBRANCH 2 11
BRANCH 5 16
ATOM     16   C  Z9H D   1      13.228  60.537  25.3930  0.00  0.00     0.000 C
ATOM     17   S  Z9H D   1      14.532  61.630  26.4620  0.00  0.00     0.000 S
ATOM     18   O  Z9H D   1      13.200  60.776  26.7790  0.00  0.00     0.000 O
ATOM     19   O  Z9H D   1      14.316  62.819  25.6890  0.00  0.00     0.000 O
ATOM     20   O  Z9H D   1      15.637  60.759  26.2590  0.00  0.00     0.000 OA
ATOM     21   O  Z9H D   1      14.424  61.879  27.8700  0.00  0.00     0.000 OA
ENDBRANCH 5 16
BRANCH 1 22
ATOM     22  O4  GU1 D   2       9.162  58.606  24.3150  0.00  0.00     0.000 O
BRANCH 22 26
ATOM     23  C1  GU1 D   2       8.585  56.664  20.7280  0.00  0.00     0.000 C
ATOM     24  C2  GU1 D   2       8.527  55.769  21.9560  0.00  0.00     0.000 C
ATOM     25  C3  GU1 D   2       8.366  56.618  23.1840  0.00  0.00     0.000 C
ATOM     26  C4  GU1 D   2       9.441  57.694  23.2460  0.00  0.00     0.000 C
ATOM     27  C5  GU1 D   2       9.486  58.468  21.9250  0.00  0.00     0.000 C
ATOM     28  O5  GU1 D   2       9.674  57.575  20.8310  0.00  0.00     0.000 O
ATOM     29   O  GU1 D   2       7.436  54.858  21.9000  0.00  0.00     0.000 O
ATOM     30   C  GU1 D   2       7.788  53.568  21.4190  0.00  0.00     0.000 C
ATOM     31   C  GU1 D   2       7.259  55.435  24.9640  0.00  0.00     0.000 C
ATOM     32   O  GU1 D   2       8.492  55.778  24.3350  0.00  0.00     0.000 O
BRANCH 27 33
ATOM     33   C  GU1 D   2      10.623  59.461  21.9130  0.00  0.00     0.000 C
ATOM     34   O  GU1 D   2      10.357  60.644  21.9680  0.00  0.00     0.000 OA
ATOM     35   O  GU1 D   2      11.781  59.079  21.8520  0.00  0.00     0.000 O
ENDBRANCH 27 33
BRANCH 23 36
ATOM     36  O4  GU6 D   3       8.981  56.116  19.4550  0.00  0.00     0.000 O
BRANCH 36 40
ATOM     37  C1  GU6 D   3       8.183  56.030  15.4480  0.00  0.00     0.000 C
ATOM     38  C2  GU6 D   3       9.065  57.196  15.8790  0.00  0.00     0.000 C
ATOM     39  C3  GU6 D   3       9.519  56.988  17.3000  0.00  0.00     0.000 C
ATOM     40  C4  GU6 D   3       8.898  55.898  18.0610  0.00  0.00     0.000 C
ATOM     41  C5  GU6 D   3       7.380  55.806  17.6970  0.00  0.00     0.000 C
ATOM     42  O5  GU6 D   3       7.058  55.971  16.3110  0.00  0.00     0.000 O
BRANCH 38 43
ATOM     43   O  GU6 D   3      10.187  57.313  15.0250  0.00  0.00     0.000 O
ATOM     44   S  GU6 D   3      10.256  58.625  14.2540  0.00  0.00     0.000 S
ATOM     45   O  GU6 D   3       9.379  58.523  13.0750  0.00  0.00     0.000 OA
ATOM     46   O  GU6 D   3       9.777  59.711  15.1290  0.00  0.00     0.000 O
ATOM     47   O  GU6 D   3      11.642  58.870  13.8670  0.00  0.00     0.000 OA
ENDBRANCH 38 43
BRANCH 39 48
ATOM     48   O  GU6 D   3      10.658  57.659  17.8040  0.00  0.00     0.000 O
ATOM     49   S  GU6 D   3      12.089  57.156  17.9920  0.00  0.00     0.000 S
ATOM     50   O  GU6 D   3      12.613  56.635  16.7240  0.00  0.00     0.000 OA
ATOM     51   O  GU6 D   3      12.814  58.364  18.4090  0.00  0.00     0.000 OA
ATOM     52   O  GU6 D   3      12.092  56.090  19.0180  0.00  0.00     0.000 O
ENDBRANCH 39 48
BRANCH 41 53
ATOM     53   C  GU6 D   3       6.203  55.551  18.6000  0.00  0.00     0.000 C
ATOM     54   O  GU6 D   3       5.806  54.321  18.0530  0.00  0.00     0.000 O
ATOM     55   S  GU6 D   3       4.528  53.627  18.5450  0.00  0.00     0.000 S
ATOM     56   O  GU6 D   3       3.392  54.490  18.1460  0.00  0.00     0.000 O
ATOM     57   O  GU6 D   3       4.432  52.310  17.8980  0.00  0.00     0.000 OA
ATOM     58   O  GU6 D   3       4.625  53.521  20.0180  0.00  0.00     0.000 OA
ENDBRANCH 41 53
BRANCH 37 59
ATOM     59  O4  Z9K D   4       8.641  54.676  15.2460  0.00  0.00     0.000 O
BRANCH 59 63
ATOM     60  C1  Z9K D   4       9.017  51.515  12.9420  0.00  0.00     0.000 C
ATOM     61  C2  Z9K D   4       7.737  52.167  12.3510  0.00  0.00     0.000 C
ATOM     62  C3  Z9K D   4       7.694  53.534  13.1610  0.00  0.00     0.000 C
ATOM     63  C4  Z9K D   4       7.940  53.513  14.7180  0.00  0.00     0.000 C
ATOM     64  C5  Z9K D   4       8.788  52.348  15.2510  0.00  0.00     0.000 C
ATOM     65  O5  Z9K D   4       9.702  52.086  14.1530  0.00  0.00     0.000 O
ATOM     66   O  Z9K D   4       6.461  54.258  12.9920  0.00  0.00     0.000 O
ATOM     67   C  Z9K D   4       6.425  55.093  11.8470  0.00  0.00     0.000 C
BRANCH 61 68
ATOM     68   O  Z9K D   4       8.023  52.505  11.0220  0.00  0.00     0.000 O
ATOM     69   O  Z9K D   4       5.560  51.870  11.3060  0.00  0.00     0.000 OA
ATOM     70   S  Z9K D   4       6.837  51.417  10.8420  0.00  0.00     0.000 S
ATOM     71   O  Z9K D   4       7.377  50.105  11.0290  0.00  0.00     0.000 OA
ATOM     72   O  Z9K D   4       7.072  51.840   9.5000  0.00  0.00     0.000 OA
ENDBRANCH 61 68
BRANCH 64 73
ATOM     73   C  Z9K D   4       9.373  52.685  16.6390  0.00  0.00     0.000 C
ATOM     74   O  Z9K D   4       8.678  52.567  17.6900  0.00  0.00     0.000 O
ATOM     75   O  Z9K D   4      10.556  53.081  16.7800  0.00  0.00     0.000 OA
ENDBRANCH 64 73
BRANCH 60 76
ATOM     76  O4  Z9L D   5       9.227  50.146  13.3280  0.00  0.00     0.000 O
BRANCH 76 80
ATOM     77  C1  Z9L D   5      11.771  47.066  13.1910  0.00  0.00     0.000 C
ATOM     78  C2  Z9L D   5      11.665  47.520  14.7250  0.00  0.00     0.000 C
ATOM     79  C3  Z9L D   5      10.281  48.483  14.8520  0.00  0.00     0.000 C
ATOM     80  C4  Z9L D   5      10.405  49.396  13.4870  0.00  0.00     0.000 C
ATOM     81  C5  Z9L D   5      10.740  48.978  11.9660  0.00  0.00     0.000 C
ATOM     82  O5  Z9L D   5      11.790  48.002  12.0380  0.00  0.00     0.000 O
ATOM     83   C  Z9L D   5      10.760  45.529  11.6070  0.00  0.00     0.000 C
ATOM     84   C  Z9L D   5      10.760  45.529  11.6070  0.00  0.00     0.000 C
BRANCH 78 85
ATOM     85   O  Z9L D   5      11.499  46.378  15.5030  0.00  0.00     0.000 O
ATOM     86   O  Z9L D   5      12.814  45.664  16.7170  0.00  0.00     0.000 OA
ATOM     87   S  Z9L D   5      12.930  46.904  16.0110  0.00  0.00     0.000 S
ATOM     88   O  Z9L D   5      12.847  47.923  17.0280  0.00  0.00     0.000 OA
ATOM     89   O  Z9L D   5      14.024  46.726  15.1190  0.00  0.00     0.000 OA
ENDBRANCH 78 85
BRANCH 79 90
ATOM     90   O  Z9L D   5      10.414  49.431  15.8630  0.00  0.00     0.000 O
ATOM     91   S  Z9L D   5       9.134  48.649  16.3980  0.00  0.00     0.000 S
ATOM     92   O  Z9L D   5       9.140  47.228  16.6290  0.00  0.00     0.000 OA
ATOM     93   O  Z9L D   5       7.941  49.321  15.9480  0.00  0.00     0.000 O
ATOM     94   O  Z9L D   5       9.538  49.277  17.6140  0.00  0.00     0.000 OA
ENDBRANCH 79 90
BRANCH 81 95
ATOM     95   C  Z9L D   5      10.874  50.214  10.8400  0.00  0.00     0.000 C
ATOM     96   S  Z9L D   5      12.127  51.191   9.6380  0.00  0.00     0.000 S
ATOM     97   O  Z9L D   5      12.218  50.544  11.0710  0.00  0.00     0.000 O
ATOM     98   O  Z9L D   5      11.335  52.387   9.7730  0.00  0.00     0.000 OA
ATOM     99   O  Z9L D   5      11.921  50.283   8.5610  0.00  0.00     0.000 OA
ATOM    100   O  Z9L D   5      13.499  51.517   9.9390  0.00  0.00     0.000 O
ENDBRANCH 81 95
ENDBRANCH 76 80
ENDBRANCH 60 76
ENDBRANCH 59 63
ENDBRANCH 37 59
ENDBRANCH 36 40
ENDBRANCH 23 36
ENDBRANCH 22 26
ENDBRANCH 1 22
TORSDOF 19
ENDMDL
MODEL 43
REMARK VINA RESULT:      -0.8     14.713     21.028
ROOT
ATOM      1  C1  Z9H D   1      40.667  46.555  11.3360  0.00  0.00     0.000 C
ATOM      2  C2  Z9H D   1      41.525  47.696  10.7390  0.00  0.00     0.000 C
ATOM      3  C3  Z9H D   1      42.629  46.819  10.0720  0.00  0.00     0.000 C
ATOM      4  C4  Z9H D   1      43.282  45.721  11.0100  0.00  0.00     0.000 C
ATOM      5  C5  Z9H D   1      42.434  44.744  11.9170  0.00  0.00     0.000 C
ATOM      6  O5  Z9H D   1      41.270  45.558  12.2070  0.00  0.00     0.000 O
ATOM      7   O  Z9H D   1      43.643  47.621   9.4650  0.00  0.00     0.000 O
ATOM      8   C  Z9H D   1      43.509  47.813   8.0460  0.00  0.00     0.000 C
ATOM      9   O  Z9H D   1      44.089  44.908  10.1520  0.00  0.00     0.000 O
ATOM     10   C  Z9H D   1      45.488  45.210  10.1500  0.00  0.00     0.000 C
ENDROOT
BRANCH 2 11
ATOM     11   O  Z9H D   1      40.721  48.141   9.6780  0.00  0.00     0.000 O
ATOM     12   O  Z9H D   1      39.939  49.855   9.5880  0.00  0.00     0.000 OA
ATOM     13   S  Z9H D   1      40.795  49.408  10.6340  0.00  0.00     0.000 S
ATOM     14   O  Z9H D   1      42.124  49.946  10.5670  0.00  0.00     0.000 OA
ATOM     15   O  Z9H D   1      40.041  49.204  11.8500  0.00  0.00     0.000 O
ENDBRANCH 2 11
BRANCH 5 16
ATOM     16   C  Z9H D   1      43.293  43.986  13.1380  0.00  0.00     0.000 C
ATOM     17   S  Z9H D   1      45.067  43.912  14.0780  0.00  0.00     0.000 S
ATOM     18   O  Z9H D   1      44.105  45.075  13.5060  0.00  0.00     0.000 O
ATOM     19   O  Z9H D   1      45.671  43.082  13.0760  0.00  0.00     0.000 O
ATOM     20   O  Z9H D   1      44.551  43.406  15.3020  0.00  0.00     0.000 OA
ATOM     21   O  Z9H D   1      45.875  45.057  14.3840  0.00  0.00     0.000 OA
ENDBRANCH 5 16
BRANCH 1 22
ATOM     22  O4  GU1 D   2      40.018  45.683  10.3410  0.00  0.00     0.000 O
BRANCH 22 26
ATOM     23  C1  GU1 D   2      36.595  43.579   9.4330  0.00  0.00     0.000 C
ATOM     24  C2  GU1 D   2      36.366  44.875  10.1950  0.00  0.00     0.000 C
ATOM     25  C3  GU1 D   2      37.606  45.718  10.1270  0.00  0.00     0.000 C
ATOM     26  C4  GU1 D   2      38.824  44.931  10.5880  0.00  0.00     0.000 C
ATOM     27  C5  GU1 D   2      38.904  43.600   9.8350  0.00  0.00     0.000 C
ATOM     28  O5  GU1 D   2      37.693  42.866   9.9900  0.00  0.00     0.000 O
ATOM     29   O  GU1 D   2      35.287  45.628   9.6520  0.00  0.00     0.000 O
ATOM     30   C  GU1 D   2      34.053  45.433  10.3280  0.00  0.00     0.000 C
ATOM     31   C  GU1 D   2      37.118  48.066  10.3290  0.00  0.00     0.000 C
ATOM     32   O  GU1 D   2      37.435  46.845  10.9930  0.00  0.00     0.000 O
BRANCH 27 33
ATOM     33   C  GU1 D   2      40.034  42.744  10.3570  0.00  0.00     0.000 C
ATOM     34   O  GU1 D   2      40.978  42.526   9.6260  0.00  0.00     0.000 OA
ATOM     35   O  GU1 D   2      39.996  42.287  11.4890  0.00  0.00     0.000 O
ENDBRANCH 27 33
BRANCH 23 36
ATOM     36  O4  GU6 D   3      35.650  42.497   9.5520  0.00  0.00     0.000 O
BRANCH 36 40
ATOM     37  C1  GU6 D   3      34.600  38.741   8.3310  0.00  0.00     0.000 C
ATOM     38  C2  GU6 D   3      35.216  38.789   9.7240  0.00  0.00     0.000 C
ATOM     39  C3  GU6 D   3      35.313  40.221  10.1840  0.00  0.00     0.000 C
ATOM     40  C4  GU6 D   3      35.037  41.273   9.2000  0.00  0.00     0.000 C
ATOM     41  C5  GU6 D   3      35.615  40.851   7.8080  0.00  0.00     0.000 C
ATOM     42  O5  GU6 D   3      35.428  39.478   7.4450  0.00  0.00     0.000 O
BRANCH 38 43
ATOM     43   O  GU6 D   3      34.438  38.040  10.6380  0.00  0.00     0.000 O
ATOM     44   S  GU6 D   3      35.216  36.976  11.4020  0.00  0.00     0.000 S
ATOM     45   O  GU6 D   3      35.345  35.785  10.5450  0.00  0.00     0.000 OA
ATOM     46   O  GU6 D   3      36.557  37.505  11.7100  0.00  0.00     0.000 O
ATOM     47   O  GU6 D   3      34.503  36.668  12.6370  0.00  0.00     0.000 OA
ENDBRANCH 38 43
BRANCH 39 48
ATOM     48   O  GU6 D   3      35.433  40.535  11.5580  0.00  0.00     0.000 O
ATOM     49   S  GU6 D   3      34.376  41.026  12.5480  0.00  0.00     0.000 S
ATOM     50   O  GU6 D   3      33.238  40.101  12.5730  0.00  0.00     0.000 OA
ATOM     51   O  GU6 D   3      35.094  41.022  13.8300  0.00  0.00     0.000 OA
ATOM     52   O  GU6 D   3      33.924  42.374  12.1370  0.00  0.00     0.000 O
ENDBRANCH 39 48
BRANCH 41 53
ATOM     53   C  GU6 D   3      36.330  41.692   6.7850  0.00  0.00     0.000 C
ATOM     54   O  GU6 D   3      35.709  41.167   5.6400  0.00  0.00     0.000 O
ATOM     55   S  GU6 D   3      36.158  41.607   4.2400  0.00  0.00     0.000 S
ATOM     56   O  GU6 D   3      37.542  41.110   4.0600  0.00  0.00     0.000 O
ATOM     57   O  GU6 D   3      35.256  41.005   3.2480  0.00  0.00     0.000 OA
ATOM     58   O  GU6 D   3      36.115  43.086   4.2100  0.00  0.00     0.000 OA
ENDBRANCH 41 53
BRANCH 37 59
ATOM     59  O4  Z9K D   4      33.232  39.076   8.0180  0.00  0.00     0.000 O
BRANCH 59 63
ATOM     60  C1  Z9K D   4      29.303  39.077   7.9090  0.00  0.00     0.000 C
ATOM     61  C2  Z9K D   4      29.575  40.187   8.9610  0.00  0.00     0.000 C
ATOM     62  C3  Z9K D   4      31.158  40.311   8.8670  0.00  0.00     0.000 C
ATOM     63  C4  Z9K D   4      32.030  38.998   8.8390  0.00  0.00     0.000 C
ATOM     64  C5  Z9K D   4      31.339  37.740   8.2930  0.00  0.00     0.000 C
ATOM     65  O5  Z9K D   4      30.425  38.279   7.3020  0.00  0.00     0.000 O
ATOM     66   O  Z9K D   4      31.730  41.113   9.9160  0.00  0.00     0.000 O
ATOM     67   C  Z9K D   4      31.742  42.505   9.6480  0.00  0.00     0.000 C
BRANCH 61 68
ATOM     68   O  Z9K D   4      29.055  41.381   8.4440  0.00  0.00     0.000 O
ATOM     69   O  Z9K D   4      28.848  41.310  10.9930  0.00  0.00     0.000 OA
ATOM     70   S  Z9K D   4      28.137  41.158   9.7590  0.00  0.00     0.000 S
ATOM     71   O  Z9K D   4      27.154  40.158   9.4770  0.00  0.00     0.000 OA
ATOM     72   O  Z9K D   4      27.681  42.422   9.2760  0.00  0.00     0.000 OA
ENDBRANCH 61 68
BRANCH 64 73
ATOM     73   C  Z9K D   4      32.380  36.691   7.8480  0.00  0.00     0.000 C
ATOM     74   O  Z9K D   4      32.905  35.895   8.6800  0.00  0.00     0.000 O
ATOM     75   O  Z9K D   4      32.740  36.583   6.6500  0.00  0.00     0.000 OA
ENDBRANCH 64 73
BRANCH 60 76
ATOM     76  O4  Z9L D   5      28.405  37.958   8.0010  0.00  0.00     0.000 O
BRANCH 76 80
ATOM     77  C1  Z9L D   5      25.741  35.757   5.9930  0.00  0.00     0.000 C
ATOM     78  C2  Z9L D   5      26.976  34.795   6.3440  0.00  0.00     0.000 C
ATOM     79  C3  Z9L D   5      27.864  35.569   7.5580  0.00  0.00     0.000 C
ATOM     80  C4  Z9L D   5      27.857  37.123   7.0130  0.00  0.00     0.000 C
ATOM     81  C5  Z9L D   5      26.656  38.033   6.4380  0.00  0.00     0.000 C
ATOM     82  O5  Z9L D   5      25.873  37.180   5.5900  0.00  0.00     0.000 O
ATOM     83   C  Z9L D   5      23.595  36.464   6.8790  0.00  0.00     0.000 C
ATOM     84   C  Z9L D   5      23.595  36.464   6.8790  0.00  0.00     0.000 C
BRANCH 78 85
ATOM     85   O  Z9L D   5      26.466  33.600   6.8420  0.00  0.00     0.000 O
ATOM     86   O  Z9L D   5      26.539  31.902   5.9360  0.00  0.00     0.000 OA
ATOM     87   S  Z9L D   5      27.171  33.105   5.4860  0.00  0.00     0.000 S
ATOM     88   O  Z9L D   5      28.585  32.857   5.6230  0.00  0.00     0.000 OA
ATOM     89   O  Z9L D   5      26.513  33.441   4.2710  0.00  0.00     0.000 OA
ENDBRANCH 78 85
BRANCH 79 90
ATOM     90   O  Z9L D   5      29.213  35.231   7.4930  0.00  0.00     0.000 O
ATOM     91   S  Z9L D   5      28.887  34.742   8.9730  0.00  0.00     0.000 S
ATOM     92   O  Z9L D   5      27.841  33.796   9.2580  0.00  0.00     0.000 OA
ATOM     93   O  Z9L D   5      29.212  35.792   9.9060  0.00  0.00     0.000 O
ATOM     94   O  Z9L D   5      30.082  33.995   8.7460  0.00  0.00     0.000 OA
ENDBRANCH 79 90
BRANCH 81 95
ATOM     95   C  Z9L D   5      27.051  39.566   5.8840  0.00  0.00     0.000 C
ATOM     96   S  Z9L D   5      27.545  40.638   4.2790  0.00  0.00     0.000 S
ATOM     97   O  Z9L D   5      27.847  39.181   4.7950  0.00  0.00     0.000 O
ATOM     98   O  Z9L D   5      28.308  41.537   5.1060  0.00  0.00     0.000 OA
ATOM     99   O  Z9L D   5      26.187  40.909   3.9480  0.00  0.00     0.000 OA
ATOM    100   O  Z9L D   5      28.386  40.192   3.1950  0.00  0.00     0.000 O
ENDBRANCH 81 95
ENDBRANCH 76 80
ENDBRANCH 60 76
ENDBRANCH 59 63
ENDBRANCH 37 59
ENDBRANCH 36 40
ENDBRANCH 23 36
ENDBRANCH 22 26
ENDBRANCH 1 22
TORSDOF 19
ENDMDL
MODEL 44
REMARK VINA RESULT:      -0.6     16.337     27.315
ROOT
ATOM      1  C1  Z9H D   1       9.693  58.692  26.1660  0.00  0.00     0.000 C
ATOM      2  C2  Z9H D   1       9.265  59.351  27.4990  0.00  0.00     0.000 C
ATOM      3  C3  Z9H D   1       9.199  60.829  27.0050  0.00  0.00     0.000 C
ATOM      4  C4  Z9H D   1      10.479  61.341  26.2230  0.00  0.00     0.000 C
ATOM      5  C5  Z9H D   1      11.168  60.521  25.0610  0.00  0.00     0.000 C
ATOM      6  O5  Z9H D   1      10.877  59.158  25.4610  0.00  0.00     0.000 O
ATOM      7   O  Z9H D   1       8.875  61.726  28.0690  0.00  0.00     0.000 O
ATOM      8   C  Z9H D   1       7.493  62.116  28.1450  0.00  0.00     0.000 C
ATOM      9   O  Z9H D   1      10.120  62.618  25.6830  0.00  0.00     0.000 O
ATOM     10   C  Z9H D   1      10.573  63.752  26.4280  0.00  0.00     0.000 C
ENDROOT
BRANCH 2 11
ATOM     11   O  Z9H D   1       7.927  58.943  27.6100  0.00  0.00     0.000 O
ATOM     12   O  Z9H D   1       7.282  57.780  28.9480  0.00  0.00     0.000 OA
ATOM     13   S  Z9H D   1       8.626  58.241  28.8520  0.00  0.00     0.000 S
ATOM     14   O  Z9H D   1       8.963  59.253  29.8120  0.00  0.00     0.000 OA
ATOM     15   O  Z9H D   1       9.498  57.166  28.4360  0.00  0.00     0.000 O
ENDBRANCH 2 11
BRANCH 5 16
ATOM     16   C  Z9H D   1      12.725  61.003  24.6800  0.00  0.00     0.000 C
ATOM     17   S  Z9H D   1      14.241  62.200  25.2320  0.00  0.00     0.000 S
ATOM     18   O  Z9H D   1      13.174  61.255  25.9890  0.00  0.00     0.000 O
ATOM     19   O  Z9H D   1      13.679  63.362  24.6040  0.00  0.00     0.000 O
ATOM     20   O  Z9H D   1      15.261  61.409  24.6370  0.00  0.00     0.000 OA
ATOM     21   O  Z9H D   1      14.623  62.457  26.5900  0.00  0.00     0.000 OA
ENDBRANCH 5 16
BRANCH 1 22
ATOM     22  O4  GU1 D   2       8.692  58.769  25.0880  0.00  0.00     0.000 O
BRANCH 22 26
ATOM     23  C1  GU1 D   2       7.032  56.748  21.9050  0.00  0.00     0.000 C
ATOM     24  C2  GU1 D   2       7.497  55.863  23.0520  0.00  0.00     0.000 C
ATOM     25  C3  GU1 D   2       7.715  56.707  24.2740  0.00  0.00     0.000 C
ATOM     26  C4  GU1 D   2       8.644  57.874  23.9700  0.00  0.00     0.000 C
ATOM     27  C5  GU1 D   2       8.144  58.635  22.7390  0.00  0.00     0.000 C
ATOM     28  O5  GU1 D   2       8.001  57.752  21.6300  0.00  0.00     0.000 O
ATOM     29   O  GU1 D   2       6.541  54.859  23.3710  0.00  0.00     0.000 O
ATOM     30   C  GU1 D   2       6.806  53.600  22.7670  0.00  0.00     0.000 C
ATOM     31   C  GU1 D   2       7.430  55.449  26.3060  0.00  0.00     0.000 C
ATOM     32   O  GU1 D   2       8.319  55.893  25.2840  0.00  0.00     0.000 O
BRANCH 27 33
ATOM     33   C  GU1 D   2       9.110  59.725  22.3400  0.00  0.00     0.000 C
ATOM     34   O  GU1 D   2       8.782  60.881  22.5150  0.00  0.00     0.000 OA
ATOM     35   O  GU1 D   2      10.197  59.446  21.8580  0.00  0.00     0.000 O
ENDBRANCH 27 33
BRANCH 23 36
ATOM     36  O4  GU6 D   3       6.988  56.224  20.5630  0.00  0.00     0.000 O
BRANCH 36 40
ATOM     37  C1  GU6 D   3       4.834  56.070  17.0950  0.00  0.00     0.000 C
ATOM     38  C2  GU6 D   3       5.673  57.333  17.2460  0.00  0.00     0.000 C
ATOM     39  C3  GU6 D   3       6.623  57.172  18.4040  0.00  0.00     0.000 C
ATOM     40  C4  GU6 D   3       6.441  56.008  19.2780  0.00  0.00     0.000 C
ATOM     41  C5  GU6 D   3       4.912  55.732  19.4680  0.00  0.00     0.000 C
ATOM     42  O5  GU6 D   3       4.103  55.867  18.2940  0.00  0.00     0.000 O
BRANCH 38 43
ATOM     43   O  GU6 D   3       6.397  57.594  16.0590  0.00  0.00     0.000 O
ATOM     44   S  GU6 D   3       6.039  58.909  15.3800  0.00  0.00     0.000 S
ATOM     45   O  GU6 D   3       4.818  58.706  14.5810  0.00  0.00     0.000 OA
ATOM     46   O  GU6 D   3       5.781  59.922  16.4200  0.00  0.00     0.000 O
ATOM     47   O  GU6 D   3       7.159  59.327  14.5420  0.00  0.00     0.000 OA
ENDBRANCH 38 43
BRANCH 39 48
ATOM     48   O  GU6 D   3       7.784  57.974  18.5080  0.00  0.00     0.000 O
ATOM     49   S  GU6 D   3       9.233  57.654  18.1440  0.00  0.00     0.000 S
ATOM     50   O  GU6 D   3       9.319  57.222  16.7440  0.00  0.00     0.000 OA
ATOM     51   O  GU6 D   3       9.918  58.938  18.3460  0.00  0.00     0.000 OA
ATOM     52   O  GU6 D   3       9.727  56.582  19.0360  0.00  0.00     0.000 O
ENDBRANCH 39 48
BRANCH 41 53
ATOM     53   C  GU6 D   3       4.170  55.327  20.7130  0.00  0.00     0.000 C
ATOM     54   O  GU6 D   3       3.697  54.086  20.2580  0.00  0.00     0.000 O
ATOM     55   S  GU6 D   3       2.744  53.251  21.1250  0.00  0.00     0.000 S
ATOM     56   O  GU6 D   3       1.479  54.014  21.2250  0.00  0.00     0.000 O
ATOM     57   O  GU6 D   3       2.521  51.958  20.4620  0.00  0.00     0.000 OA
ATOM     58   O  GU6 D   3       3.380  53.097  22.4520  0.00  0.00     0.000 OA
ENDBRANCH 41 53
BRANCH 37 59
ATOM     59  O4  Z9K D   4       5.338  54.785  16.6750  0.00  0.00     0.000 O
BRANCH 59 63
ATOM     60  C1  Z9K D   4       5.067  51.836  14.0910  0.00  0.00     0.000 C
ATOM     61  C2  Z9K D   4       3.585  52.297  14.1790  0.00  0.00     0.000 C
ATOM     62  C3  Z9K D   4       3.728  53.601  15.0790  0.00  0.00     0.000 C
ATOM     63  C4  Z9K D   4       4.631  53.548  16.3690  0.00  0.00     0.000 C
ATOM     64  C5  Z9K D   4       5.767  52.514  16.3560  0.00  0.00     0.000 C
ATOM     65  O5  Z9K D   4       6.133  52.456  14.9520  0.00  0.00     0.000 O
ATOM     66   O  Z9K D   4       2.465  54.120  15.5320  0.00  0.00     0.000 O
ATOM     67   C  Z9K D   4       1.825  54.990  14.6130  0.00  0.00     0.000 C
BRANCH 61 68
ATOM     68   O  Z9K D   4       3.215  52.738  12.9020  0.00  0.00     0.000 O
ATOM     69   O  Z9K D   4       1.230  51.691  14.1310  0.00  0.00     0.000 OA
ATOM     70   S  Z9K D   4       2.222  51.477  13.1210  0.00  0.00     0.000 S
ATOM     71   O  Z9K D   4       2.954  50.266  12.9110  0.00  0.00     0.000 OA
ATOM     72   O  Z9K D   4       1.789  51.995  11.8640  0.00  0.00     0.000 OA
ENDBRANCH 61 68
BRANCH 64 73
ATOM     73   C  Z9K D   4       6.853  52.878  17.3910  0.00  0.00     0.000 C
ATOM     74   O  Z9K D   4       6.678  52.668  18.6260  0.00  0.00     0.000 O
ATOM     75   O  Z9K D   4       7.948  53.388  17.0490  0.00  0.00     0.000 OA
ENDBRANCH 64 73
BRANCH 60 76
ATOM     76  O4  Z9L D   5       5.596  50.504  14.1950  0.00  0.00     0.000 O
BRANCH 76 80
ATOM     77  C1  Z9L D   5       8.223  47.918  12.6500  0.00  0.00     0.000 C
ATOM     78  C2  Z9L D   5       8.702  48.236  14.1470  0.00  0.00     0.000 C
ATOM     79  C3  Z9L D   5       7.384  48.939  14.9400  0.00  0.00     0.000 C
ATOM     80  C4  Z9L D   5       6.819  49.956  13.7730  0.00  0.00     0.000 C
ATOM     81  C5  Z9L D   5       6.549  49.711  12.2020  0.00  0.00     0.000 C
ATOM     82  O5  Z9L D   5       7.649  48.924  11.7210  0.00  0.00     0.000 O
ATOM     83   C  Z9L D   5       6.852  46.349  11.4040  0.00  0.00     0.000 C
ATOM     84   C  Z9L D   5       6.852  46.349  11.4040  0.00  0.00     0.000 C
BRANCH 78 85
ATOM     85   O  Z9L D   5       9.016  47.030  14.7660  0.00  0.00     0.000 O
ATOM     86   O  Z9L D   5      10.790  46.471  15.2660  0.00  0.00     0.000 OA
ATOM     87   S  Z9L D   5      10.448  47.760  14.7460  0.00  0.00     0.000 S
ATOM     88   O  Z9L D   5      10.650  48.672  15.8440  0.00  0.00     0.000 OA
ATOM     89   O  Z9L D   5      11.100  47.840  13.4840  0.00  0.00     0.000 OA
ENDBRANCH 78 85
BRANCH 79 90
ATOM     90   O  Z9L D   5       7.800  49.821  15.9330  0.00  0.00     0.000 O
ATOM     91   S  Z9L D   5       6.964  48.796  16.8200  0.00  0.00     0.000 S
ATOM     92   O  Z9L D   5       7.244  47.384  16.8360  0.00  0.00     0.000 OA
ATOM     93   O  Z9L D   5       5.617  49.286  16.9730  0.00  0.00     0.000 O
ATOM     94   O  Z9L D   5       7.750  49.395  17.8490  0.00  0.00     0.000 OA
ENDBRANCH 79 90
BRANCH 81 95
ATOM     95   C  Z9L D   5       6.051  51.029  11.2930  0.00  0.00     0.000 C
ATOM     96   S  Z9L D   5       6.563  52.286   9.8350  0.00  0.00     0.000 S
ATOM     97   O  Z9L D   5       7.317  51.563  11.0130  0.00  0.00     0.000 O
ATOM     98   O  Z9L D   5       5.756  53.319  10.4310  0.00  0.00     0.000 OA
ATOM     99   O  Z9L D   5       6.045  51.436   8.8170  0.00  0.00     0.000 OA
ATOM    100   O  Z9L D   5       7.885  52.816   9.6060  0.00  0.00     0.000 O
ENDBRANCH 81 95
ENDBRANCH 76 80
ENDBRANCH 60 76
ENDBRANCH 59 63
ENDBRANCH 37 59
ENDBRANCH 36 40
ENDBRANCH 23 36
ENDBRANCH 22 26
ENDBRANCH 1 22
TORSDOF 19
ENDMDL
MODEL 45
REMARK VINA RESULT:      -0.5    143.863    149.210
ROOT
ATOM      1  C1  Z9H D   1      60.037 105.357 138.7480  0.00  0.00     0.000 C
ATOM      2  C2  Z9H D   1      61.207 106.089 139.4470  0.00  0.00     0.000 C
ATOM      3  C3  Z9H D   1      61.236 107.366 138.5520  0.00  0.00     0.000 C
ATOM      4  C4  Z9H D   1      61.266 107.100 136.9900  0.00  0.00     0.000 C
ATOM      5  C5  Z9H D   1      60.297 106.081 136.2690  0.00  0.00     0.000 C
ATOM      6  O5  Z9H D   1      60.077 105.103 137.3160  0.00  0.00     0.000 O
ATOM      7   O  Z9H D   1      62.297 108.247 138.9270  0.00  0.00     0.000 O
ATOM      8   C  Z9H D   1      61.917 109.344 139.7740  0.00  0.00     0.000 C
ATOM      9   O  Z9H D   1      61.070 108.377 136.3740  0.00  0.00     0.000 O
ATOM     10   C  Z9H D   1      62.258 109.030 135.9150  0.00  0.00     0.000 C
ENDROOT
BRANCH 2 11
ATOM     11   O  Z9H D   1      60.616 106.501 140.6520  0.00  0.00     0.000 O
ATOM     12   O  Z9H D   1      61.070 105.807 142.3460  0.00  0.00     0.000 OA
ATOM     13   S  Z9H D   1      61.695 105.434 141.1220  0.00  0.00     0.000 S
ATOM     14   O  Z9H D   1      63.000 106.002 140.9400  0.00  0.00     0.000 OA
ATOM     15   O  Z9H D   1      61.314 104.090 140.7510  0.00  0.00     0.000 O
ENDBRANCH 2 11
BRANCH 5 16
ATOM     16   C  Z9H D   1      60.773 105.618 134.7320  0.00  0.00     0.000 C
ATOM     17   S  Z9H D   1      60.119 104.909 132.9680  0.00  0.00     0.000 S
ATOM     18   O  Z9H D   1      59.601 105.992 134.0480  0.00  0.00     0.000 O
ATOM     19   O  Z9H D   1      60.089 103.547 133.4190  0.00  0.00     0.000 O
ATOM     20   O  Z9H D   1      61.185 105.453 132.2010  0.00  0.00     0.000 OA
ATOM     21   O  Z9H D   1      58.888 105.294 132.3420  0.00  0.00     0.000 OA
ENDBRANCH 5 16
BRANCH 1 22
ATOM     22  O4  GU1 D   2      58.730 106.027 138.8650  0.00  0.00     0.000 O
BRANCH 22 26
ATOM     23  C1  GU1 D   2      54.660 105.402 138.7280  0.00  0.00     0.000 C
ATOM     24  C2  GU1 D   2      55.480 104.189 139.1390  0.00  0.00     0.000 C
ATOM     25  C3  GU1 D   2      56.864 104.629 139.5200  0.00  0.00     0.000 C
ATOM     26  C4  GU1 D   2      57.494 105.461 138.4130  0.00  0.00     0.000 C
ATOM     27  C5  GU1 D   2      56.545 106.591 138.0020  0.00  0.00     0.000 C
ATOM     28  O5  GU1 D   2      55.274 106.065 137.6290  0.00  0.00     0.000 O
ATOM     29   O  GU1 D   2      54.907 103.511 140.2510  0.00  0.00     0.000 O
ATOM     30   C  GU1 D   2      54.101 102.397 139.8940  0.00  0.00     0.000 C
ATOM     31   C  GU1 D   2      57.889 103.128 141.0980  0.00  0.00     0.000 C
ATOM     32   O  GU1 D   2      57.667 103.464 139.7300  0.00  0.00     0.000 O
BRANCH 27 33
ATOM     33   C  GU1 D   2      57.091 107.361 136.8220  0.00  0.00     0.000 C
ATOM     34   O  GU1 D   2      56.912 106.914 135.7080  0.00  0.00     0.000 OA
ATOM     35   O  GU1 D   2      57.693 108.410 136.9910  0.00  0.00     0.000 O
ENDBRANCH 27 33
BRANCH 23 36
ATOM     36  O4  GU6 D   3      53.381 105.225 138.0870  0.00  0.00     0.000 O
BRANCH 36 40
ATOM     37  C1  GU6 D   3      50.433 104.776 135.2940  0.00  0.00     0.000 C
ATOM     38  C2  GU6 D   3      49.924 105.191 136.6690  0.00  0.00     0.000 C
ATOM     39  C3  GU6 D   3      51.088 105.591 137.5380  0.00  0.00     0.000 C
ATOM     40  C4  GU6 D   3      52.439 105.314 137.0380  0.00  0.00     0.000 C
ATOM     41  C5  GU6 D   3      52.449 103.940 136.2900  0.00  0.00     0.000 C
ATOM     42  O5  GU6 D   3      51.318 103.678 135.4520  0.00  0.00     0.000 O
BRANCH 38 43
ATOM     43   O  GU6 D   3      49.012 106.267 136.5590  0.00  0.00     0.000 O
ATOM     44   S  GU6 D   3      47.658 106.013 137.2090  0.00  0.00     0.000 S
ATOM     45   O  GU6 D   3      46.832 105.226 136.2780  0.00  0.00     0.000 OA
ATOM     46   O  GU6 D   3      47.869 105.243 138.4490  0.00  0.00     0.000 O
ATOM     47   O  GU6 D   3      47.037 107.297 137.5170  0.00  0.00     0.000 OA
ENDBRANCH 38 43
BRANCH 39 48
ATOM     48   O  GU6 D   3      50.897 106.407 138.6780  0.00  0.00     0.000 O
ATOM     49   S  GU6 D   3      51.097 107.912 138.8520  0.00  0.00     0.000 S
ATOM     50   O  GU6 D   3      50.313 108.645 137.8500  0.00  0.00     0.000 OA
ATOM     51   O  GU6 D   3      50.591 108.161 140.2080  0.00  0.00     0.000 OA
ATOM     52   O  GU6 D   3      52.535 108.225 138.6980  0.00  0.00     0.000 O
ENDBRANCH 39 48
BRANCH 41 53
ATOM     53   C  GU6 D   3      53.491 102.855 136.3160  0.00  0.00     0.000 C
ATOM     54   O  GU6 D   3      54.503 103.547 135.6320  0.00  0.00     0.000 O
ATOM     55   S  GU6 D   3      55.816 102.842 135.2630  0.00  0.00     0.000 S
ATOM     56   O  GU6 D   3      55.475 101.795 134.2730  0.00  0.00     0.000 O
ATOM     57   O  GU6 D   3      56.731 103.833 134.6780  0.00  0.00     0.000 OA
ATOM     58   O  GU6 D   3      56.357 102.245 136.5050  0.00  0.00     0.000 OA
ENDBRANCH 41 53
BRANCH 37 59
ATOM     59  O4  Z9K D   4      51.024 105.668 134.3260  0.00  0.00     0.000 O
BRANCH 59 63
ATOM     60  C1  Z9K D   4      51.115 108.390 131.4920  0.00  0.00     0.000 C
ATOM     61  C2  Z9K D   4      49.607 108.016 131.5020  0.00  0.00     0.000 C
ATOM     62  C3  Z9K D   4      49.543 107.056 132.7680  0.00  0.00     0.000 C
ATOM     63  C4  Z9K D   4      50.647 105.945 132.9450  0.00  0.00     0.000 C
ATOM     64  C5  Z9K D   4      52.004 106.231 132.2850  0.00  0.00     0.000 C
ATOM     65  O5  Z9K D   4      52.106 107.677 132.3710  0.00  0.00     0.000 O
ATOM     66   O  Z9K D   4      48.291 106.355 132.8870  0.00  0.00     0.000 O
ATOM     67   C  Z9K D   4      47.275 107.082 133.5590  0.00  0.00     0.000 C
BRANCH 61 68
ATOM     68   O  Z9K D   4      48.899 109.174 131.8500  0.00  0.00     0.000 O
ATOM     69   O  Z9K D   4      47.560 107.725 130.2200  0.00  0.00     0.000 OA
ATOM     70   S  Z9K D   4      48.370 108.898 130.3440  0.00  0.00     0.000 S
ATOM     71   O  Z9K D   4      49.370 109.326 129.4140  0.00  0.00     0.000 OA
ATOM     72   O  Z9K D   4      47.584 110.020 130.7450  0.00  0.00     0.000 OA
ENDBRANCH 61 68
BRANCH 64 73
ATOM     73   C  Z9K D   4      53.116 105.370 132.9210  0.00  0.00     0.000 C
ATOM     74   O  Z9K D   4      53.173 104.122 132.7220  0.00  0.00     0.000 O
ATOM     75   O  Z9K D   4      54.007 105.872 133.6490  0.00  0.00     0.000 OA
ENDBRANCH 64 73
BRANCH 60 76
ATOM     76  O4  Z9L D   5      52.006 108.481 130.3670  0.00  0.00     0.000 O
BRANCH 76 80
ATOM     77  C1  Z9L D   5      54.946 110.635 128.7280  0.00  0.00     0.000 C
ATOM     78  C2  Z9L D   5      55.560 109.197 129.0840  0.00  0.00     0.000 C
ATOM     79  C3  Z9L D   5      54.249 108.159 129.3370  0.00  0.00     0.000 C
ATOM     80  C4  Z9L D   5      53.245 109.126 130.2140  0.00  0.00     0.000 C
ATOM     81  C5  Z9L D   5      52.797 110.659 129.9920  0.00  0.00     0.000 C
ATOM     82  O5  Z9L D   5      53.975 111.368 129.5790  0.00  0.00     0.000 O
ATOM     83   C  Z9L D   5      53.869 111.825 126.9060  0.00  0.00     0.000 C
ATOM     84   C  Z9L D   5      53.869 111.825 126.9060  0.00  0.00     0.000 C
BRANCH 78 85
ATOM     85   O  Z9L D   5      56.289 108.754 127.9840  0.00  0.00     0.000 O
ATOM     86   O  Z9L D   5      58.206 108.580 127.9230  0.00  0.00     0.000 OA
ATOM     87   S  Z9L D   5      57.445 108.914 129.0880  0.00  0.00     0.000 S
ATOM     88   O  Z9L D   5      57.578 107.774 129.9620  0.00  0.00     0.000 OA
ATOM     89   O  Z9L D   5      57.827 110.245 129.4160  0.00  0.00     0.000 OA
ENDBRANCH 78 85
BRANCH 79 90
ATOM     90   O  Z9L D   5      54.568 107.151 130.2430  0.00  0.00     0.000 O
ATOM     91   S  Z9L D   5      54.169 106.261 128.9840  0.00  0.00     0.000 S
ATOM     92   O  Z9L D   5      54.805 106.412 127.7020  0.00  0.00     0.000 OA
ATOM     93   O  Z9L D   5      52.780 105.888 129.0830  0.00  0.00     0.000 O
ATOM     94   O  Z9L D   5      54.919 105.293 129.7170  0.00  0.00     0.000 OA
ENDBRANCH 79 90
BRANCH 81 95
ATOM     95   C  Z9L D   5      51.816 111.351 131.1630  0.00  0.00     0.000 C
ATOM     96   S  Z9L D   5      51.794 112.453 132.8220  0.00  0.00     0.000 S
ATOM     97   O  Z9L D   5      52.740 111.349 132.2170  0.00  0.00     0.000 O
ATOM     98   O  Z9L D   5      50.599 111.780 133.2620  0.00  0.00     0.000 OA
ATOM     99   O  Z9L D   5      51.730 113.678 132.0980  0.00  0.00     0.000 OA
ATOM    100   O  Z9L D   5      52.767 112.395 133.8840  0.00  0.00     0.000 O
ENDBRANCH 81 95
ENDBRANCH 76 80
ENDBRANCH 60 76
ENDBRANCH 59 63
ENDBRANCH 37 59
ENDBRANCH 36 40
ENDBRANCH 23 36
ENDBRANCH 22 26
ENDBRANCH 1 22
TORSDOF 19
ENDMDL
MODEL 46
REMARK VINA RESULT:      -0.5     25.391     32.425
ROOT
ATOM      1  C1  Z9H D   1      54.395  23.605  10.1130  0.00  0.00     0.000 C
ATOM      2  C2  Z9H D   1      55.008  22.562  11.0780  0.00  0.00     0.000 C
ATOM      3  C3  Z9H D   1      55.331  23.521  12.2650  0.00  0.00     0.000 C
ATOM      4  C4  Z9H D   1      56.130  24.834  11.8800  0.00  0.00     0.000 C
ATOM      5  C5  Z9H D   1      55.733  25.761  10.6630  0.00  0.00     0.000 C
ATOM      6  O5  Z9H D   1      55.140  24.801   9.7520  0.00  0.00     0.000 O
ATOM      7   O  Z9H D   1      55.988  22.834  13.3320  0.00  0.00     0.000 O
ATOM      8   C  Z9H D   1      55.139  22.431  14.4200  0.00  0.00     0.000 C
ATOM      9   O  Z9H D   1      56.123  25.652  13.0540  0.00  0.00     0.000 O
ATOM     10   C  Z9H D   1      57.312  25.603  13.8480  0.00  0.00     0.000 C
ENDROOT
BRANCH 2 11
ATOM     11   O  Z9H D   1      53.875  21.842  11.4870  0.00  0.00     0.000 O
ATOM     12   O  Z9H D   1      53.565  20.028  11.0720  0.00  0.00     0.000 OA
ATOM     13   S  Z9H D   1      54.732  20.758  10.7040  0.00  0.00     0.000 S
ATOM     14   O  Z9H D   1      55.887  20.440  11.4930  0.00  0.00     0.000 OA
ATOM     15   O  Z9H D   1      54.741  21.010   9.2810  0.00  0.00     0.000 O
ENDBRANCH 2 11
BRANCH 5 16
ATOM     16   C  Z9H D   1      56.929  26.817  10.1570  0.00  0.00     0.000 C
ATOM     17   S  Z9H D   1      57.772  27.673   8.5460  0.00  0.00     0.000 S
ATOM     18   O  Z9H D   1      56.270  27.324   9.0210  0.00  0.00     0.000 O
ATOM     19   O  Z9H D   1      58.591  26.533   8.2500  0.00  0.00     0.000 O
ATOM     20   O  Z9H D   1      58.251  28.819   9.2370  0.00  0.00     0.000 OA
ATOM     21   O  Z9H D   1      57.050  28.128   7.3940  0.00  0.00     0.000 OA
ENDBRANCH 5 16
BRANCH 1 22
ATOM     22  O4  GU1 D   2      53.130  24.205  10.5720  0.00  0.00     0.000 O
BRANCH 22 26
ATOM     23  C1  GU1 D   2      49.435  25.577   9.3770  0.00  0.00     0.000 C
ATOM     24  C2  GU1 D   2      49.972  24.404   8.5720  0.00  0.00     0.000 C
ATOM     25  C3  GU1 D   2      51.104  23.763   9.3210  0.00  0.00     0.000 C
ATOM     26  C4  GU1 D   2      52.157  24.794   9.7010  0.00  0.00     0.000 C
ATOM     27  C5  GU1 D   2      51.499  25.980  10.4130  0.00  0.00     0.000 C
ATOM     28  O5  GU1 D   2      50.463  26.533   9.6050  0.00  0.00     0.000 O
ATOM     29   O  GU1 D   2      48.976  23.415   8.3420  0.00  0.00     0.000 O
ATOM     30   C  GU1 D   2      48.337  23.526   7.0770  0.00  0.00     0.000 C
ATOM     31   C  GU1 D   2      51.351  21.434   8.7700  0.00  0.00     0.000 C
ATOM     32   O  GU1 D   2      51.709  22.782   8.4740  0.00  0.00     0.000 O
BRANCH 27 33
ATOM     33   C  GU1 D   2      52.501  27.074  10.6940  0.00  0.00     0.000 C
ATOM     34   O  GU1 D   2      52.960  27.692   9.7560  0.00  0.00     0.000 OA
ATOM     35   O  GU1 D   2      52.836  27.329  11.8410  0.00  0.00     0.000 O
ENDBRANCH 27 33
BRANCH 23 36
ATOM     36  O4  GU6 D   3      48.513  26.506   8.7710  0.00  0.00     0.000 O
BRANCH 36 40
ATOM     37  C1  GU6 D   3      45.219  28.501   7.4080  0.00  0.00     0.000 C
ATOM     38  C2  GU6 D   3      46.328  28.359   6.3730  0.00  0.00     0.000 C
ATOM     39  C3  GU6 D   3      47.365  27.388   6.8740  0.00  0.00     0.000 C
ATOM     40  C4  GU6 D   3      47.268  26.949   8.2710  0.00  0.00     0.000 C
ATOM     41  C5  GU6 D   3      46.812  28.148   9.1660  0.00  0.00     0.000 C
ATOM     42  O5  GU6 D   3      45.786  28.983   8.6160  0.00  0.00     0.000 O
BRANCH 38 43
ATOM     43   O  GU6 D   3      45.802  27.909   5.1390  0.00  0.00     0.000 O
ATOM     44   S  GU6 D   3      45.571  29.012   4.1140  0.00  0.00     0.000 S
ATOM     45   O  GU6 D   3      44.286  29.667   4.4140  0.00  0.00     0.000 OA
ATOM     46   O  GU6 D   3      46.661  29.997   4.2280  0.00  0.00     0.000 O
ATOM     47   O  GU6 D   3      45.567  28.420   2.7800  0.00  0.00     0.000 OA
ENDBRANCH 38 43
BRANCH 39 48
ATOM     48   O  GU6 D   3      48.253  26.748   5.9790  0.00  0.00     0.000 O
ATOM     49   S  GU6 D   3      49.584  27.231   5.4040  0.00  0.00     0.000 S
ATOM     50   O  GU6 D   3      50.501  27.597   6.4900  0.00  0.00     0.000 OA
ATOM     51   O  GU6 D   3      50.075  26.057   4.6680  0.00  0.00     0.000 OA
ATOM     52   O  GU6 D   3      49.334  28.402   4.5350  0.00  0.00     0.000 O
ENDBRANCH 39 48
BRANCH 41 53
ATOM     53   C  GU6 D   3      47.290  28.542  10.5370  0.00  0.00     0.000 C
ATOM     54   O  GU6 D   3      46.553  27.601  11.2740  0.00  0.00     0.000 O
ATOM     55   S  GU6 D   3      46.575  27.623  12.8080  0.00  0.00     0.000 S
ATOM     56   O  GU6 D   3      45.917  28.882  13.2270  0.00  0.00     0.000 O
ATOM     57   O  GU6 D   3      45.829  26.457  13.3040  0.00  0.00     0.000 OA
ATOM     58   O  GU6 D   3      47.994  27.599  13.2270  0.00  0.00     0.000 OA
ENDBRANCH 41 53
BRANCH 37 59
ATOM     59  O4  Z9K D   4      44.276  27.466   7.7590  0.00  0.00     0.000 O
BRANCH 59 63
ATOM     60  C1  Z9K D   4      41.597  27.421   4.8830  0.00  0.00     0.000 C
ATOM     61  C2  Z9K D   4      41.010  28.510   5.8240  0.00  0.00     0.000 C
ATOM     62  C3  Z9K D   4      42.185  28.655   6.8860  0.00  0.00     0.000 C
ATOM     63  C4  Z9K D   4      42.850  27.354   7.4780  0.00  0.00     0.000 C
ATOM     64  C5  Z9K D   4      42.786  26.101   6.5930  0.00  0.00     0.000 C
ATOM     65  O5  Z9K D   4      42.837  26.652   5.2500  0.00  0.00     0.000 O
ATOM     66   O  Z9K D   4      41.819  29.439   8.0350  0.00  0.00     0.000 O
ATOM     67   C  Z9K D   4      41.983  30.838   7.8670  0.00  0.00     0.000 C
BRANCH 61 68
ATOM     68   O  Z9K D   4      40.984  29.709   5.0990  0.00  0.00     0.000 O
ATOM     69   O  Z9K D   4      39.057  29.600   6.7790  0.00  0.00     0.000 OA
ATOM     70   S  Z9K D   4      39.411  29.464   5.3980  0.00  0.00     0.000 S
ATOM     71   O  Z9K D   4      38.917  28.463   4.5030  0.00  0.00     0.000 OA
ATOM     72   O  Z9K D   4      39.406  30.732   4.7440  0.00  0.00     0.000 OA
ENDBRANCH 61 68
BRANCH 64 73
ATOM     73   C  Z9K D   4      43.860  25.076   7.0140  0.00  0.00     0.000 C
ATOM     74   O  Z9K D   4      43.747  24.410   8.0850  0.00  0.00     0.000 O
ATOM     75   O  Z9K D   4      44.878  24.858   6.3130  0.00  0.00     0.000 OA
ENDBRANCH 64 73
BRANCH 60 76
ATOM     76  O4  Z9L D   5      40.930  26.289   4.2990  0.00  0.00     0.000 O
BRANCH 76 80
ATOM     77  C1  Z9L D   5      40.370  24.184   0.9480  0.00  0.00     0.000 C
ATOM     78  C2  Z9L D   5      41.191  23.249   1.9590  0.00  0.00     0.000 C
ATOM     79  C3  Z9L D   5      41.029  23.935   3.4970  0.00  0.00     0.000 C
ATOM     80  C4  Z9L D   5      41.216  25.535   3.1500  0.00  0.00     0.000 C
ATOM     81  C5  Z9L D   5      40.568  26.444   1.9860  0.00  0.00     0.000 C
ATOM     82  O5  Z9L D   5      40.587  25.645   0.7930  0.00  0.00     0.000 O
ATOM     83   C  Z9L D   5      38.091  24.704   0.2920  0.00  0.00     0.000 C
ATOM     84   C  Z9L D   5      38.091  24.704   0.2920  0.00  0.00     0.000 C
BRANCH 78 85
ATOM     85   O  Z9L D   5      40.600  21.988   1.9580  0.00  0.00     0.000 O
ATOM     86   O  Z9L D   5      41.393  20.395   1.2200  0.00  0.00     0.000 OA
ATOM     87   S  Z9L D   5      42.047  21.664   1.3370  0.00  0.00     0.000 S
ATOM     88   O  Z9L D   5      43.074  21.465   2.3290  0.00  0.00     0.000 OA
ATOM     89   O  Z9L D   5      42.273  22.093  -0.0010  0.00  0.00     0.000 OA
ENDBRANCH 78 85
BRANCH 79 90
ATOM     90   O  Z9L D   5      42.140  23.666   4.2920  0.00  0.00     0.000 O
ATOM     91   S  Z9L D   5      41.007  22.979   5.1750  0.00  0.00     0.000 S
ATOM     92   O  Z9L D   5      40.133  21.961   4.6520  0.00  0.00     0.000 OA
ATOM     93   O  Z9L D   5      40.543  23.915   6.1690  0.00  0.00     0.000 O
ATOM     94   O  Z9L D   5      42.149  22.318   5.7180  0.00  0.00     0.000 OA
ENDBRANCH 79 90
BRANCH 81 95
ATOM     95   C  Z9L D   5      41.072  28.040   1.8870  0.00  0.00     0.000 C
ATOM     96   S  Z9L D   5      42.188  29.333   0.8620  0.00  0.00     0.000 S
ATOM     97   O  Z9L D   5      42.310  27.816   1.2680  0.00  0.00     0.000 O
ATOM     98   O  Z9L D   5      42.410  30.102   2.0600  0.00  0.00     0.000 OA
ATOM     99   O  Z9L D   5      41.131  29.650  -0.0370  0.00  0.00     0.000 OA
ATOM    100   O  Z9L D   5      43.468  29.048   0.2600  0.00  0.00     0.000 O
ENDBRANCH 81 95
ENDBRANCH 76 80
ENDBRANCH 60 76
ENDBRANCH 59 63
ENDBRANCH 37 59
ENDBRANCH 36 40
ENDBRANCH 23 36
ENDBRANCH 22 26
ENDBRANCH 1 22
TORSDOF 19
ENDMDL
MODEL 47
REMARK VINA RESULT:      -0.5    142.589    150.485
ROOT
ATOM      1  C1  Z9H D   1      74.630 136.940 113.9450  0.00  0.00     0.000 C
ATOM      2  C2  Z9H D   1      75.728 138.029 114.0100  0.00  0.00     0.000 C
ATOM      3  C3  Z9H D   1      76.903 137.196 113.4110  0.00  0.00     0.000 C
ATOM      4  C4  Z9H D   1      77.133 135.774 114.0720  0.00  0.00     0.000 C
ATOM      5  C5  Z9H D   1      75.962 134.748 114.3440  0.00  0.00     0.000 C
ATOM      6  O5  Z9H D   1      74.842 135.642 114.5650  0.00  0.00     0.000 O
ATOM      7   O  Z9H D   1      78.122 137.941 113.3970  0.00  0.00     0.000 O
ATOM      8   C  Z9H D   1      78.453 138.556 112.1400  0.00  0.00     0.000 C
ATOM      9   O  Z9H D   1      78.092 135.111 113.2410  0.00  0.00     0.000 O
ATOM     10   C  Z9H D   1      79.442 135.141 113.7130  0.00  0.00     0.000 C
ENDROOT
BRANCH 2 11
ATOM     11   O  Z9H D   1      75.336 138.901 112.9830  0.00  0.00     0.000 O
ATOM     12   O  Z9H D   1      74.707 140.656 113.2640  0.00  0.00     0.000 OA
ATOM     13   S  Z9H D   1      75.152 139.779 114.2940  0.00  0.00     0.000 S
ATOM     14   O  Z9H D   1      76.453 140.100 114.8080  0.00  0.00     0.000 OA
ATOM     15   O  Z9H D   1      74.034 139.324 115.0880  0.00  0.00     0.000 O
ENDBRANCH 2 11
BRANCH 5 16
ATOM     16   C  Z9H D   1      76.328 133.526 115.4280  0.00  0.00     0.000 C
ATOM     17   S  Z9H D   1      76.048 131.580 115.8450  0.00  0.00     0.000 S
ATOM     18   O  Z9H D   1      76.325 132.454 114.5160  0.00  0.00     0.000 O
ATOM     19   O  Z9H D   1      74.766 131.797 116.4530  0.00  0.00     0.000 O
ATOM     20   O  Z9H D   1      77.248 131.428 116.5910  0.00  0.00     0.000 OA
ATOM     21   O  Z9H D   1      76.007 130.535 114.8650  0.00  0.00     0.000 OA
ENDBRANCH 5 16
BRANCH 1 22
ATOM     22  O4  GU1 D   2      74.249 136.527 112.5830  0.00  0.00     0.000 O
BRANCH 22 26
ATOM     23  C1  GU1 D   2      71.138 135.277 110.1890  0.00  0.00     0.000 C
ATOM     24  C2  GU1 D   2      70.754 136.283 111.2640  0.00  0.00     0.000 C
ATOM     25  C3  GU1 D   2      71.995 136.937 111.7990  0.00  0.00     0.000 C
ATOM     26  C4  GU1 D   2      73.006 135.895 112.2530  0.00  0.00     0.000 C
ATOM     27  C5  GU1 D   2      73.243 134.873 111.1370  0.00  0.00     0.000 C
ATOM     28  O5  GU1 D   2      72.010 134.290 110.7250  0.00  0.00     0.000 O
ATOM     29   O  GU1 D   2      69.897 137.301 110.7590  0.00  0.00     0.000 O
ATOM     30   C  GU1 D   2      68.518 137.061 110.9960  0.00  0.00     0.000 C
ATOM     31   C  GU1 D   2      71.556 139.142 112.6590  0.00  0.00     0.000 C
ATOM     32   O  GU1 D   2      71.631 137.744 112.9240  0.00  0.00     0.000 O
BRANCH 27 33
ATOM     33   C  GU1 D   2      74.151 133.759 111.6010  0.00  0.00     0.000 C
ATOM     34   O  GU1 D   2      73.719 132.959 112.4060  0.00  0.00     0.000 OA
ATOM     35   O  GU1 D   2      75.290 133.665 111.1700  0.00  0.00     0.000 O
ENDBRANCH 27 33
BRANCH 23 36
ATOM     36  O4  GU6 D   3      70.158 134.344 109.6930  0.00  0.00     0.000 O
BRANCH 36 40
ATOM     37  C1  GU6 D   3      67.869 131.022 109.0450  0.00  0.00     0.000 C
ATOM     38  C2  GU6 D   3      67.955 131.958 107.8450  0.00  0.00     0.000 C
ATOM     39  C3  GU6 D   3      69.024 132.992 108.0870  0.00  0.00     0.000 C
ATOM     40  C4  GU6 D   3      69.603 133.070 109.4320  0.00  0.00     0.000 C
ATOM     41  C5  GU6 D   3      68.485 132.828 110.4990  0.00  0.00     0.000 C
ATOM     42  O5  GU6 D   3      67.547 131.789 110.1940  0.00  0.00     0.000 O
BRANCH 38 43
ATOM     43   O  GU6 D   3      68.245 131.230 106.6670  0.00  0.00     0.000 O
ATOM     44   S  GU6 D   3      67.246 131.439 105.5370  0.00  0.00     0.000 S
ATOM     45   O  GU6 D   3      66.080 130.571 105.7770  0.00  0.00     0.000 OA
ATOM     46   O  GU6 D   3      66.817 132.849 105.5420  0.00  0.00     0.000 O
ATOM     47   O  GU6 D   3      67.895 131.119 104.2700  0.00  0.00     0.000 OA
ENDBRANCH 38 43
BRANCH 39 48
ATOM     48   O  GU6 D   3      69.609 133.697 107.0100  0.00  0.00     0.000 O
ATOM     49   S  GU6 D   3      70.924 133.446 106.2720  0.00  0.00     0.000 S
ATOM     50   O  GU6 D   3      70.960 132.072 105.7570  0.00  0.00     0.000 OA
ATOM     51   O  GU6 D   3      70.882 134.423 105.1750  0.00  0.00     0.000 OA
ATOM     52   O  GU6 D   3      72.049 133.666 107.2080  0.00  0.00     0.000 O
ENDBRANCH 39 48
BRANCH 41 53
ATOM     53   C  GU6 D   3      68.263 133.524 111.8140  0.00  0.00     0.000 C
ATOM     54   O  GU6 D   3      69.429 133.087 112.4610  0.00  0.00     0.000 O
ATOM     55   S  GU6 D   3      69.673 133.424 113.9380  0.00  0.00     0.000 S
ATOM     56   O  GU6 D   3      68.636 132.709 114.7170  0.00  0.00     0.000 O
ATOM     57   O  GU6 D   3      71.017 132.958 114.3100  0.00  0.00     0.000 OA
ATOM     58   O  GU6 D   3      69.530 134.890 114.0830  0.00  0.00     0.000 OA
ENDBRANCH 41 53
BRANCH 37 59
ATOM     59  O4  Z9K D   4      68.887 130.075 109.4320  0.00  0.00     0.000 O
BRANCH 59 63
ATOM     60  C1  Z9K D   4      70.921 126.713 109.3490  0.00  0.00     0.000 C
ATOM     61  C2  Z9K D   4      69.680 126.335 108.4940  0.00  0.00     0.000 C
ATOM     62  C3  Z9K D   4      68.954 127.746 108.3770  0.00  0.00     0.000 C
ATOM     63  C4  Z9K D   4      68.800 128.640 109.6660  0.00  0.00     0.000 C
ATOM     64  C5  Z9K D   4      69.848 128.421 110.7670  0.00  0.00     0.000 C
ATOM     65  O5  Z9K D   4      71.035 128.057 110.0150  0.00  0.00     0.000 O
ATOM     66   O  Z9K D   4      67.627 127.658 107.8260  0.00  0.00     0.000 O
ATOM     67   C  Z9K D   4      67.579 127.670 106.4090  0.00  0.00     0.000 C
BRANCH 61 68
ATOM     68   O  Z9K D   4      70.145 126.024 107.2100  0.00  0.00     0.000 O
ATOM     69   O  Z9K D   4      68.119 124.590 107.8340  0.00  0.00     0.000 OA
ATOM     70   S  Z9K D   4      69.545 124.602 107.7030  0.00  0.00     0.000 S
ATOM     71   O  Z9K D   4      70.473 123.993 108.6050  0.00  0.00     0.000 OA
ATOM     72   O  Z9K D   4      69.935 124.322 106.3590  0.00  0.00     0.000 OA
ENDBRANCH 61 68
BRANCH 64 73
ATOM     73   C  Z9K D   4      69.913 129.640 111.7120  0.00  0.00     0.000 C
ATOM     74   O  Z9K D   4      68.988 129.876 112.5430  0.00  0.00     0.000 O
ATOM     75   O  Z9K D   4      70.884 130.436 111.6990  0.00  0.00     0.000 OA
ENDBRANCH 64 73
BRANCH 60 76
ATOM     76  O4  Z9L D   5      71.503 125.992 110.4480  0.00  0.00     0.000 O
BRANCH 76 80
ATOM     77  C1  Z9L D   5      74.946 125.074 112.2590  0.00  0.00     0.000 C
ATOM     78  C2  Z9L D   5      74.081 125.933 113.3010  0.00  0.00     0.000 C
ATOM     79  C3  Z9L D   5      72.488 125.925 112.7340  0.00  0.00     0.000 C
ATOM     80  C4  Z9L D   5      72.726 126.152 111.1190  0.00  0.00     0.000 C
ATOM     81  C5  Z9L D   5      73.760 125.452 110.0980  0.00  0.00     0.000 C
ATOM     82  O5  Z9L D   5      75.007 125.340 110.7990  0.00  0.00     0.000 O
ATOM     83   C  Z9L D   5      75.367 122.774 111.6060  0.00  0.00     0.000 C
ATOM     84   C  Z9L D   5      75.367 122.774 111.6060  0.00  0.00     0.000 C
BRANCH 78 85
ATOM     85   O  Z9L D   5      74.129 125.290 114.5350  0.00  0.00     0.000 O
ATOM     86   O  Z9L D   5      75.043 125.956 116.0950  0.00  0.00     0.000 OA
ATOM     87   S  Z9L D   5      74.885 126.670 114.8640  0.00  0.00     0.000 S
ATOM     88   O  Z9L D   5      73.994 127.760 115.1760  0.00  0.00     0.000 OA
ATOM     89   O  Z9L D   5      76.200 126.812 114.3420  0.00  0.00     0.000 OA
ENDBRANCH 78 85
BRANCH 79 90
ATOM     90   O  Z9L D   5      71.812 127.084 113.1050  0.00  0.00     0.000 O
ATOM     91   S  Z9L D   5      70.849 125.993 113.7530  0.00  0.00     0.000 S
ATOM     92   O  Z9L D   5      71.321 125.009 114.6910  0.00  0.00     0.000 OA
ATOM     93   O  Z9L D   5      69.784 125.688 112.8310  0.00  0.00     0.000 O
ATOM     94   O  Z9L D   5      70.439 127.133 114.5080  0.00  0.00     0.000 OA
ENDBRANCH 79 90
BRANCH 81 95
ATOM     95   C  Z9L D   5      73.778 126.014 108.5180  0.00  0.00     0.000 C
ATOM     96   S  Z9L D   5      74.661 127.270 107.2490  0.00  0.00     0.000 S
ATOM     97   O  Z9L D   5      74.272 127.301 108.7740  0.00  0.00     0.000 O
ATOM     98   O  Z9L D   5      73.434 127.393 106.5050  0.00  0.00     0.000 OA
ATOM     99   O  Z9L D   5      75.657 126.320 106.8830  0.00  0.00     0.000 OA
ATOM    100   O  Z9L D   5      75.136 128.594 107.5680  0.00  0.00     0.000 O
ENDBRANCH 81 95
ENDBRANCH 76 80
ENDBRANCH 60 76
ENDBRANCH 59 63
ENDBRANCH 37 59
ENDBRANCH 36 40
ENDBRANCH 23 36
ENDBRANCH 22 26
ENDBRANCH 1 22
TORSDOF 19
ENDMDL
MODEL 48
REMARK VINA RESULT:      -0.5    154.226    159.185
ROOT
ATOM      1  C1  Z9H D   1     109.882  34.267 146.5730  0.00  0.00     0.000 C
ATOM      2  C2  Z9H D   1     111.301  34.636 147.0670  0.00  0.00     0.000 C
ATOM      3  C3  Z9H D   1     112.073  34.381 145.7360  0.00  0.00     0.000 C
ATOM      4  C4  Z9H D   1     111.794  32.982 145.0460  0.00  0.00     0.000 C
ATOM      5  C5  Z9H D   1     110.341  32.399 144.8290  0.00  0.00     0.000 C
ATOM      6  O5  Z9H D   1     109.630  32.975 145.9530  0.00  0.00     0.000 O
ATOM      7   O  Z9H D   1     113.478  34.586 145.8950  0.00  0.00     0.000 O
ATOM      8   C  Z9H D   1     113.967  35.866 145.4600  0.00  0.00     0.000 C
ATOM      9   O  Z9H D   1     112.419  33.051 143.7600  0.00  0.00     0.000 O
ATOM     10   C  Z9H D   1     113.704  32.429 143.6630  0.00  0.00     0.000 C
ENDROOT
BRANCH 2 11
ATOM     11   O  Z9H D   1     111.217  36.033 147.1800  0.00  0.00     0.000 O
ATOM     12   O  Z9H D   1     111.261  36.968 148.8170  0.00  0.00     0.000 OA
ATOM     13   S  Z9H D   1     111.393  35.556 148.6850  0.00  0.00     0.000 S
ATOM     14   O  Z9H D   1     112.736  35.081 148.8540  0.00  0.00     0.000 OA
ATOM     15   O  Z9H D   1     110.207  34.891 149.1760  0.00  0.00     0.000 O
ENDBRANCH 2 11
BRANCH 5 16
ATOM     16   C  Z9H D   1     110.276  30.759 144.5060  0.00  0.00     0.000 C
ATOM     17   S  Z9H D   1     109.396  29.356 143.3660  0.00  0.00     0.000 S
ATOM     18   O  Z9H D   1     109.974  30.845 143.1340  0.00  0.00     0.000 O
ATOM     19   O  Z9H D   1     108.224  29.286 144.1900  0.00  0.00     0.000 O
ATOM     20   O  Z9H D   1     110.465  28.423 143.4510  0.00  0.00     0.000 OA
ATOM     21   O  Z9H D   1     109.069  29.520 141.9800  0.00  0.00     0.000 OA
ENDBRANCH 5 16
BRANCH 1 22
ATOM     22  O4  GU1 D   2     109.330  35.168 145.5450  0.00  0.00     0.000 O
BRANCH 22 26
ATOM     23  C1  GU1 D   2     105.888  36.874 144.0590  0.00  0.00     0.000 C
ATOM     24  C2  GU1 D   2     105.905  36.678 145.5670  0.00  0.00     0.000 C
ATOM     25  C3  GU1 D   2     107.313  36.421 146.0190  0.00  0.00     0.000 C
ATOM     26  C4  GU1 D   2     107.936  35.276 145.2350  0.00  0.00     0.000 C
ATOM     27  C5  GU1 D   2     107.774  35.521 143.7320  0.00  0.00     0.000 C
ATOM     28  O5  GU1 D   2     106.401  35.720 143.4040  0.00  0.00     0.000 O
ATOM     29   O  GU1 D   2     105.417  37.822 146.2580  0.00  0.00     0.000 O
ATOM     30   C  GU1 D   2     104.047  37.733 146.6220  0.00  0.00     0.000 C
ATOM     31   C  GU1 D   2     107.670  37.106 148.2990  0.00  0.00     0.000 C
ATOM     32   O  GU1 D   2     107.284  36.064 147.4050  0.00  0.00     0.000 O
BRANCH 27 33
ATOM     33   C  GU1 D   2     108.275  34.344 142.9290  0.00  0.00     0.000 C
ATOM     34   O  GU1 D   2     107.622  33.321 142.9350  0.00  0.00     0.000 OA
ATOM     35   O  GU1 D   2     109.311  34.426 142.2880  0.00  0.00     0.000 O
ENDBRANCH 27 33
BRANCH 23 36
ATOM     36  O4  GU6 D   3     104.634  36.891 143.3480  0.00  0.00     0.000 O
BRANCH 36 40
ATOM     37  C1  GU6 D   3     101.336  35.849 141.1730  0.00  0.00     0.000 C
ATOM     38  C2  GU6 D   3     101.683  37.331 141.0980  0.00  0.00     0.000 C
ATOM     39  C3  GU6 D   3     103.046  37.560 141.6970  0.00  0.00     0.000 C
ATOM     40  C4  GU6 D   3     103.673  36.444 142.4140  0.00  0.00     0.000 C
ATOM     41  C5  GU6 D   3     102.582  35.659 143.2140  0.00  0.00     0.000 C
ATOM     42  O5  GU6 D   3     101.337  35.453 142.5360  0.00  0.00     0.000 O
BRANCH 38 43
ATOM     43   O  GU6 D   3     101.664  37.779 139.7560  0.00  0.00     0.000 O
ATOM     44   S  GU6 D   3     100.737  38.960 139.5010  0.00  0.00     0.000 S
ATOM     45   O  GU6 D   3      99.363  38.452 139.3440  0.00  0.00     0.000 OA
ATOM     46   O  GU6 D   3     100.795  39.864 140.6640  0.00  0.00     0.000 O
ATOM     47   O  GU6 D   3     101.186  39.660 138.3010  0.00  0.00     0.000 OA
ENDBRANCH 38 43
BRANCH 39 48
ATOM     48   O  GU6 D   3     103.791  38.722 141.3840  0.00  0.00     0.000 O
ATOM     49   S  GU6 D   3     104.921  38.919 140.3740  0.00  0.00     0.000 S
ATOM     50   O  GU6 D   3     104.484  38.500 139.0370  0.00  0.00     0.000 OA
ATOM     51   O  GU6 D   3     105.163  40.367 140.4240  0.00  0.00     0.000 OA
ATOM     52   O  GU6 D   3     106.090  38.117 140.7990  0.00  0.00     0.000 O
ENDBRANCH 39 48
BRANCH 41 53
ATOM     53   C  GU6 D   3     102.660  35.072 144.5980  0.00  0.00     0.000 C
ATOM     54   O  GU6 D   3     103.632  34.094 144.3350  0.00  0.00     0.000 O
ATOM     55   S  GU6 D   3     104.033  33.085 145.4200  0.00  0.00     0.000 S
ATOM     56   O  GU6 D   3     102.845  32.237 145.6740  0.00  0.00     0.000 O
ATOM     57   O  GU6 D   3     105.151  32.275 144.9150  0.00  0.00     0.000 OA
ATOM     58   O  GU6 D   3     104.403  33.859 146.6250  0.00  0.00     0.000 OA
ENDBRANCH 41 53
BRANCH 37 59
ATOM     59  O4  Z9K D   4     101.990  34.805 140.4220  0.00  0.00     0.000 O
BRANCH 59 63
ATOM     60  C1  Z9K D   4     102.782  32.512 137.3290  0.00  0.00     0.000 C
ATOM     61  C2  Z9K D   4     101.465  33.194 136.8690  0.00  0.00     0.000 C
ATOM     62  C3  Z9K D   4     101.248  34.252 138.0360  0.00  0.00     0.000 C
ATOM     63  C4  Z9K D   4     101.435  33.793 139.5330  0.00  0.00     0.000 C
ATOM     64  C5  Z9K D   4     102.378  32.602 139.7600  0.00  0.00     0.000 C
ATOM     65  O5  Z9K D   4     103.356  32.758 138.6980  0.00  0.00     0.000 O
ATOM     66   O  Z9K D   4      99.955  34.882 138.0010  0.00  0.00     0.000 O
ATOM     67   C  Z9K D   4      99.877  36.012 137.1490  0.00  0.00     0.000 C
BRANCH 61 68
ATOM     68   O  Z9K D   4     101.765  33.935 135.7180  0.00  0.00     0.000 O
ATOM     69   O  Z9K D   4      99.384  33.002 135.6220  0.00  0.00     0.000 OA
ATOM     70   S  Z9K D   4     100.724  32.834 135.1450  0.00  0.00     0.000 S
ATOM     71   O  Z9K D   4     101.405  31.586 134.9870  0.00  0.00     0.000 OA
ATOM     72   O  Z9K D   4     100.964  33.654 134.0020  0.00  0.00     0.000 OA
ENDBRANCH 61 68
BRANCH 64 73
ATOM     73   C  Z9K D   4     102.871  32.564 141.2220  0.00  0.00     0.000 C
ATOM     74   O  Z9K D   4     102.092  32.248 142.1680  0.00  0.00     0.000 O
ATOM     75   O  Z9K D   4     104.058  32.836 141.5280  0.00  0.00     0.000 OA
ENDBRANCH 64 73
BRANCH 60 76
ATOM     76  O4  Z9L D   5     103.118  31.114 137.3150  0.00  0.00     0.000 O
BRANCH 76 80
ATOM     77  C1  Z9L D   5     106.092  28.496 136.7890  0.00  0.00     0.000 C
ATOM     78  C2  Z9L D   5     105.611  28.361 138.3140  0.00  0.00     0.000 C
ATOM     79  C3  Z9L D   5     104.095  29.104 138.4120  0.00  0.00     0.000 C
ATOM     80  C4  Z9L D   5     104.343  30.452 137.4980  0.00  0.00     0.000 C
ATOM     81  C5  Z9L D   5     105.038  30.633 136.0540  0.00  0.00     0.000 C
ATOM     82  O5  Z9L D   5     106.193  29.781 136.0520  0.00  0.00     0.000 O
ATOM     83   C  Z9L D   5     105.674  27.553 134.5920  0.00  0.00     0.000 C
ATOM     84   C  Z9L D   5     105.674  27.553 134.5920  0.00  0.00     0.000 C
BRANCH 78 85
ATOM     85   O  Z9L D   5     105.476  27.007 138.6060  0.00  0.00     0.000 O
ATOM     86   O  Z9L D   5     106.611  26.015 139.8040  0.00  0.00     0.000 OA
ATOM     87   S  Z9L D   5     106.667  27.430 139.5970  0.00  0.00     0.000 S
ATOM     88   O  Z9L D   5     106.214  28.007 140.8380  0.00  0.00     0.000 OA
ATOM     89   O  Z9L D   5     107.935  27.670 138.9980  0.00  0.00     0.000 OA
ENDBRANCH 78 85
BRANCH 79 90
ATOM     90   O  Z9L D   5     103.871  29.635 139.6790  0.00  0.00     0.000 O
ATOM     91   S  Z9L D   5     102.607  28.673 139.5660  0.00  0.00     0.000 S
ATOM     92   O  Z9L D   5     102.732  27.264 139.3010  0.00  0.00     0.000 OA
ATOM     93   O  Z9L D   5     101.479  29.424 139.0720  0.00  0.00     0.000 O
ATOM     94   O  Z9L D   5     102.636  28.842 140.9830  0.00  0.00     0.000 OA
ENDBRANCH 79 90
BRANCH 81 95
ATOM     95   C  Z9L D   5     105.197  32.196 135.4680  0.00  0.00     0.000 C
ATOM     96   S  Z9L D   5     106.400  33.781 135.3660  0.00  0.00     0.000 S
ATOM     97   O  Z9L D   5     106.073  32.684 136.4480  0.00  0.00     0.000 O
ATOM     98   O  Z9L D   5     105.256  34.654 135.3020  0.00  0.00     0.000 OA
ATOM     99   O  Z9L D   5     107.042  33.312 134.1850  0.00  0.00     0.000 OA
ATOM    100   O  Z9L D   5     107.270  34.246 136.4180  0.00  0.00     0.000 O
ENDBRANCH 81 95
ENDBRANCH 76 80
ENDBRANCH 60 76
ENDBRANCH 59 63
ENDBRANCH 37 59
ENDBRANCH 36 40
ENDBRANCH 23 36
ENDBRANCH 22 26
ENDBRANCH 1 22
TORSDOF 19
ENDMDL
MODEL 49
REMARK VINA RESULT:      -0.5    131.907    136.628
ROOT
ATOM      1  C1  Z9H D   1      99.023  54.037 117.2450  0.00  0.00     0.000 C
ATOM      2  C2  Z9H D   1     100.516  54.404 117.0710  0.00  0.00     0.000 C
ATOM      3  C3  Z9H D   1     100.937  54.342 118.5720  0.00  0.00     0.000 C
ATOM      4  C4  Z9H D   1     100.014  55.157 119.5700  0.00  0.00     0.000 C
ATOM      5  C5  Z9H D   1      98.436  55.072 119.5520  0.00  0.00     0.000 C
ATOM      6  O5  Z9H D   1      98.178  54.798 118.1520  0.00  0.00     0.000 O
ATOM      7   O  Z9H D   1     102.306  54.708 118.7500  0.00  0.00     0.000 O
ATOM      8   C  Z9H D   1     103.227  53.610 118.8670  0.00  0.00     0.000 C
ATOM      9   O  Z9H D   1     100.443  54.788 120.8850  0.00  0.00     0.000 O
ATOM     10   C  Z9H D   1     101.326  55.712 121.5280  0.00  0.00     0.000 C
ENDROOT
BRANCH 2 11
ATOM     11   O  Z9H D   1     101.040  53.235 116.4960  0.00  0.00     0.000 O
ATOM     12   O  Z9H D   1     101.689  53.122 114.7290  0.00  0.00     0.000 OA
ATOM     13   S  Z9H D   1     101.200  54.312 115.3400  0.00  0.00     0.000 S
ATOM     14   O  Z9H D   1     102.231  55.234 115.7220  0.00  0.00     0.000 OA
ATOM     15   O  Z9H D   1      99.923  54.681 114.7740  0.00  0.00     0.000 O
ENDBRANCH 2 11
BRANCH 5 16
ATOM     16   C  Z9H D   1      97.650  56.312 120.3550  0.00  0.00     0.000 C
ATOM     17   S  Z9H D   1      96.058  56.764 121.4960  0.00  0.00     0.000 S
ATOM     18   O  Z9H D   1      97.119  55.551 121.4130  0.00  0.00     0.000 O
ATOM     19   O  Z9H D   1      95.164  56.861 120.3780  0.00  0.00     0.000 O
ATOM     20   O  Z9H D   1      96.654  57.895 122.1170  0.00  0.00     0.000 OA
ATOM     21   O  Z9H D   1      95.533  55.923 122.5310  0.00  0.00     0.000 OA
ENDBRANCH 5 16
BRANCH 1 22
ATOM     22  O4  GU1 D   2      98.775  52.669 117.7330  0.00  0.00     0.000 O
BRANCH 22 26
ATOM     23  C1  GU1 D   2      96.241  49.427 117.5290  0.00  0.00     0.000 C
ATOM     24  C2  GU1 D   2      96.395  50.202 116.2290  0.00  0.00     0.000 C
ATOM     25  C3  GU1 D   2      97.600  51.092 116.3190  0.00  0.00     0.000 C
ATOM     26  C4  GU1 D   2      97.538  51.967 117.5630  0.00  0.00     0.000 C
ATOM     27  C5  GU1 D   2      97.278  51.102 118.8000  0.00  0.00     0.000 C
ATOM     28  O5  GU1 D   2      96.097  50.323 118.6250  0.00  0.00     0.000 O
ATOM     29   O  GU1 D   2      96.563  49.338 115.1110  0.00  0.00     0.000 O
ATOM     30   C  GU1 D   2      95.362  49.080 114.3970  0.00  0.00     0.000 C
ATOM     31   C  GU1 D   2      98.554  51.547 114.1570  0.00  0.00     0.000 C
ATOM     32   O  GU1 D   2      97.625  51.938 115.1650  0.00  0.00     0.000 O
BRANCH 27 33
ATOM     33   C  GU1 D   2      97.091  51.954 120.0330  0.00  0.00     0.000 C
ATOM     34   O  GU1 D   2      97.972  51.962 120.8680  0.00  0.00     0.000 OA
ATOM     35   O  GU1 D   2      96.078  52.620 120.1790  0.00  0.00     0.000 O
ENDBRANCH 27 33
BRANCH 23 36
ATOM     36  O4  GU6 D   3      95.030  48.691 117.7900  0.00  0.00     0.000 O
BRANCH 36 40
ATOM     37  C1  GU6 D   3      91.324  47.558 119.0850  0.00  0.00     0.000 C
ATOM     38  C2  GU6 D   3      92.262  46.392 118.8000  0.00  0.00     0.000 C
ATOM     39  C3  GU6 D   3      93.663  46.909 118.5980  0.00  0.00     0.000 C
ATOM     40  C4  GU6 D   3      93.843  48.361 118.4830  0.00  0.00     0.000 C
ATOM     41  C5  GU6 D   3      92.652  48.974 117.6760  0.00  0.00     0.000 C
ATOM     42  O5  GU6 D   3      91.355  48.445 117.9780  0.00  0.00     0.000 O
BRANCH 38 43
ATOM     43   O  GU6 D   3      92.240  45.463 119.8670  0.00  0.00     0.000 O
ATOM     44   S  GU6 D   3      91.899  44.038 119.4530  0.00  0.00     0.000 S
ATOM     45   O  GU6 D   3      90.435  43.923 119.3320  0.00  0.00     0.000 OA
ATOM     46   O  GU6 D   3      92.521  43.766 118.1440  0.00  0.00     0.000 O
ATOM     47   O  GU6 D   3      92.423  43.118 120.4570  0.00  0.00     0.000 OA
ENDBRANCH 38 43
BRANCH 39 48
ATOM     48   O  GU6 D   3      94.781  46.055 118.7450  0.00  0.00     0.000 O
ATOM     49   S  GU6 D   3      95.720  45.867 119.9360  0.00  0.00     0.000 S
ATOM     50   O  GU6 D   3      94.950  45.527 121.1380  0.00  0.00     0.000 OA
ATOM     51   O  GU6 D   3      96.570  44.745 119.5150  0.00  0.00     0.000 OA
ATOM     52   O  GU6 D   3      96.475  47.120 120.1560  0.00  0.00     0.000 O
ENDBRANCH 39 48
BRANCH 41 53
ATOM     53   C  GU6 D   3      92.673  50.057 116.6320  0.00  0.00     0.000 C
ATOM     54   O  GU6 D   3      93.097  51.110 117.4580  0.00  0.00     0.000 O
ATOM     55   S  GU6 D   3      93.187  52.541 116.9110  0.00  0.00     0.000 S
ATOM     56   O  GU6 D   3      91.803  52.969 116.6020  0.00  0.00     0.000 O
ATOM     57   O  GU6 D   3      93.778  53.402 117.9450  0.00  0.00     0.000 OA
ATOM     58   O  GU6 D   3      94.014  52.491 115.6850  0.00  0.00     0.000 OA
ENDBRANCH 41 53
BRANCH 37 59
ATOM     59  O4  Z9K D   4      91.344  48.364 120.2820  0.00  0.00     0.000 O
BRANCH 59 63
ATOM     60  C1  Z9K D   4      90.582  49.310 124.0200  0.00  0.00     0.000 C
ATOM     61  C2  Z9K D   4      89.618  48.110 123.8110  0.00  0.00     0.000 C
ATOM     62  C3  Z9K D   4      90.060  47.616 122.3660  0.00  0.00     0.000 C
ATOM     63  C4  Z9K D   4      90.277  48.681 121.2240  0.00  0.00     0.000 C
ATOM     64  C5  Z9K D   4      90.656  50.097 121.6850  0.00  0.00     0.000 C
ATOM     65  O5  Z9K D   4      91.421  49.849 122.8930  0.00  0.00     0.000 O
ATOM     66   O  Z9K D   4      89.165  46.643 121.7980  0.00  0.00     0.000 O
ATOM     67   C  Z9K D   4      89.431  45.306 122.1860  0.00  0.00     0.000 C
BRANCH 61 68
ATOM     68   O  Z9K D   4      90.010  47.106 124.7070  0.00  0.00     0.000 O
ATOM     69   O  Z9K D   4      87.475  47.099 124.3610  0.00  0.00     0.000 OA
ATOM     70   S  Z9K D   4      88.531  47.480 125.2500  0.00  0.00     0.000 S
ATOM     71   O  Z9K D   4      88.601  48.703 125.9890  0.00  0.00     0.000 OA
ATOM     72   O  Z9K D   4      88.903  46.392 126.0950  0.00  0.00     0.000 OA
ENDBRANCH 61 68
BRANCH 64 73
ATOM     73   C  Z9K D   4      91.318  50.889 120.5370  0.00  0.00     0.000 C
ATOM     74   O  Z9K D   4      90.639  51.315 119.5580  0.00  0.00     0.000 O
ATOM     75   O  Z9K D   4      92.546  51.147 120.5340  0.00  0.00     0.000 OA
ENDBRANCH 64 73
BRANCH 60 76
ATOM     76  O4  Z9L D   5      90.292  50.605 124.5750  0.00  0.00     0.000 O
BRANCH 76 80
ATOM     77  C1  Z9L D   5      91.778  53.588 126.7800  0.00  0.00     0.000 C
ATOM     78  C2  Z9L D   5      91.508  54.178 125.3140  0.00  0.00     0.000 C
ATOM     79  C3  Z9L D   5      90.476  53.087 124.5340  0.00  0.00     0.000 C
ATOM     80  C4  Z9L D   5      91.137  51.648 124.9890  0.00  0.00     0.000 C
ATOM     81  C5  Z9L D   5      91.630  51.123 126.4320  0.00  0.00     0.000 C
ATOM     82  O5  Z9L D   5      92.305  52.226 127.0540  0.00  0.00     0.000 O
ATOM     83   C  Z9L D   5      90.694  53.332 128.9370  0.00  0.00     0.000 C
ATOM     84   C  Z9L D   5      90.694  53.332 128.9370  0.00  0.00     0.000 C
BRANCH 78 85
ATOM     85   O  Z9L D   5      90.858  55.400 125.4530  0.00  0.00     0.000 O
ATOM     86   O  Z9L D   5      91.626  57.116 125.0330  0.00  0.00     0.000 OA
ATOM     87   S  Z9L D   5      92.243  55.851 124.7740  0.00  0.00     0.000 S
ATOM     88   O  Z9L D   5      92.254  55.727 123.3370  0.00  0.00     0.000 OA
ATOM     89   O  Z9L D   5      93.396  55.819 125.6060  0.00  0.00     0.000 OA
ENDBRANCH 78 85
BRANCH 79 90
ATOM     90   O  Z9L D   5      90.681  53.092 123.1570  0.00  0.00     0.000 O
ATOM     91   S  Z9L D   5      89.130  53.453 123.1980  0.00  0.00     0.000 S
ATOM     92   O  Z9L D   5      88.621  54.580 123.9340  0.00  0.00     0.000 OA
ATOM     93   O  Z9L D   5      88.355  52.245 123.0620  0.00  0.00     0.000 O
ATOM     94   O  Z9L D   5      89.433  53.910 121.8810  0.00  0.00     0.000 OA
ENDBRANCH 79 90
BRANCH 81 95
ATOM     95   C  Z9L D   5      92.347  49.608 126.4950  0.00  0.00     0.000 C
ATOM     96   S  Z9L D   5      94.082  48.630 126.5080  0.00  0.00     0.000 S
ATOM     97   O  Z9L D   5      93.523  49.920 125.7990  0.00  0.00     0.000 O
ATOM     98   O  Z9L D   5      93.458  47.501 125.8660  0.00  0.00     0.000 OA
ATOM     99   O  Z9L D   5      94.200  48.704 127.9250  0.00  0.00     0.000 OA
ATOM    100   O  Z9L D   5      95.257  48.990 125.7540  0.00  0.00     0.000 O
ENDBRANCH 81 95
ENDBRANCH 76 80
ENDBRANCH 60 76
ENDBRANCH 59 63
ENDBRANCH 37 59
ENDBRANCH 36 40
ENDBRANCH 23 36
ENDBRANCH 22 26
ENDBRANCH 1 22
TORSDOF 19
ENDMDL
MODEL 50
REMARK VINA RESULT:      -0.5    122.738    126.461
ROOT
ATOM      1  C1  Z9H D   1      24.719  13.096 139.8020  0.00  0.00     0.000 C
ATOM      2  C2  Z9H D   1      23.930  12.467 140.9750  0.00  0.00     0.000 C
ATOM      3  C3  Z9H D   1      22.490  12.806 140.4810  0.00  0.00     0.000 C
ATOM      4  C4  Z9H D   1      22.253  14.317 140.0640  0.00  0.00     0.000 C
ATOM      5  C5  Z9H D   1      23.239  15.119 139.1240  0.00  0.00     0.000 C
ATOM      6  O5  Z9H D   1      24.507  14.487 139.4330  0.00  0.00     0.000 O
ATOM      7   O  Z9H D   1      21.499  12.389 141.4220  0.00  0.00     0.000 O
ATOM      8   C  Z9H D   1      20.864  11.132 141.1320  0.00  0.00     0.000 C
ATOM      9   O  Z9H D   1      20.961  14.352 139.4480  0.00  0.00     0.000 O
ATOM     10   C  Z9H D   1      19.890  14.800 140.2860  0.00  0.00     0.000 C
ENDROOT
BRANCH 2 11
ATOM     11   O  Z9H D   1      24.086  11.094 140.7300  0.00  0.00     0.000 O
ATOM     12   O  Z9H D   1      25.080   9.928 141.8300  0.00  0.00     0.000 OA
ATOM     13   S  Z9H D   1      24.873  11.313 142.0920  0.00  0.00     0.000 S
ATOM     14   O  Z9H D   1      23.916  11.570 143.1300  0.00  0.00     0.000 OA
ATOM     15   O  Z9H D   1      26.098  12.053 141.8890  0.00  0.00     0.000 O
ENDBRANCH 2 11
BRANCH 5 16
ATOM     16   C  Z9H D   1      23.062  16.782 139.1660  0.00  0.00     0.000 C
ATOM     17   S  Z9H D   1      23.100  18.454 138.0500  0.00  0.00     0.000 S
ATOM     18   O  Z9H D   1      22.536  16.952 137.8720  0.00  0.00     0.000 O
ATOM     19   O  Z9H D   1      24.531  18.560 138.0860  0.00  0.00     0.000 O
ATOM     20   O  Z9H D   1      22.242  19.203 138.9000  0.00  0.00     0.000 OA
ATOM     21   O  Z9H D   1      22.589  18.553 136.7150  0.00  0.00     0.000 OA
ENDBRANCH 5 16
BRANCH 1 22
ATOM     22  O4  GU1 D   2      24.517  12.440 138.4980  0.00  0.00     0.000 O
BRANCH 22 26
ATOM     23  C1  GU1 D   2      26.311  11.402 134.9370  0.00  0.00     0.000 C
ATOM     24  C2  GU1 D   2      27.225  11.354 136.1520  0.00  0.00     0.000 C
ATOM     25  C3  GU1 D   2      26.393  11.371 137.4020  0.00  0.00     0.000 C
ATOM     26  C4  GU1 D   2      25.426  12.545 137.3960  0.00  0.00     0.000 C
ATOM     27  C5  GU1 D   2      24.629  12.562 136.0880  0.00  0.00     0.000 C
ATOM     28  O5  GU1 D   2      25.510  12.578 134.9680  0.00  0.00     0.000 O
ATOM     29   O  GU1 D   2      28.028  10.180 136.1680  0.00  0.00     0.000 O
ATOM     30   C  GU1 D   2      29.333  10.368 135.6410  0.00  0.00     0.000 C
ATOM     31   C  GU1 D   2      27.508  10.298 139.2450  0.00  0.00     0.000 C
ATOM     32   O  GU1 D   2      27.269  11.505 138.5260  0.00  0.00     0.000 O
BRANCH 27 33
ATOM     33   C  GU1 D   2      23.747  13.785 136.0010  0.00  0.00     0.000 C
ATOM     34   O  GU1 D   2      22.548  13.642 136.1240  0.00  0.00     0.000 OA
ATOM     35   O  GU1 D   2      24.234  14.889 135.8140  0.00  0.00     0.000 O
ENDBRANCH 27 33
BRANCH 23 36
ATOM     36  O4  GU6 D   3      26.864  11.643 133.6280  0.00  0.00     0.000 O
BRANCH 36 40
ATOM     37  C1  GU6 D   3      28.120  13.384 130.1520  0.00  0.00     0.000 C
ATOM     38  C2  GU6 D   3      27.798  11.901 130.0200  0.00  0.00     0.000 C
ATOM     39  C3  GU6 D   3      27.094  11.424 131.2630  0.00  0.00     0.000 C
ATOM     40  C4  GU6 D   3      27.045  12.337 132.4110  0.00  0.00     0.000 C
ATOM     41  C5  GU6 D   3      28.398  13.114 132.5190  0.00  0.00     0.000 C
ATOM     42  O5  GU6 D   3      28.960  13.565 131.2810  0.00  0.00     0.000 O
BRANCH 38 43
ATOM     43   O  GU6 D   3      26.985  11.667 128.8860  0.00  0.00     0.000 O
ATOM     44   S  GU6 D   3      27.547  10.643 127.9090  0.00  0.00     0.000 S
ATOM     45   O  GU6 D   3      28.541  11.310 127.0500  0.00  0.00     0.000 OA
ATOM     46   O  GU6 D   3      28.205   9.571 128.6780  0.00  0.00     0.000 O
ATOM     47   O  GU6 D   3      26.449  10.092 127.1210  0.00  0.00     0.000 OA
ENDBRANCH 38 43
BRANCH 39 48
ATOM     48   O  GU6 D   3      26.312  10.245 131.2490  0.00  0.00     0.000 O
ATOM     49   S  GU6 D   3      24.801  10.072 131.1040  0.00  0.00     0.000 S
ATOM     50   O  GU6 D   3      24.332  10.730 129.8790  0.00  0.00     0.000 OA
ATOM     51   O  GU6 D   3      24.640   8.614 131.0180  0.00  0.00     0.000 OA
ATOM     52   O  GU6 D   3      24.134  10.665 132.2840  0.00  0.00     0.000 O
ENDBRANCH 39 48
BRANCH 41 53
ATOM     53   C  GU6 D   3      29.191  13.470 133.7480  0.00  0.00     0.000 C
ATOM     54   O  GU6 D   3      28.254  14.334 134.3360  0.00  0.00     0.000 O
ATOM     55   S  GU6 D   3      28.602  15.104 135.6170  0.00  0.00     0.000 S
ATOM     56   O  GU6 D   3      29.678  16.059 135.2620  0.00  0.00     0.000 O
ATOM     57   O  GU6 D   3      27.402  15.820 136.0730  0.00  0.00     0.000 OA
ATOM     58   O  GU6 D   3      29.075  14.114 136.6100  0.00  0.00     0.000 OA
ENDBRANCH 41 53
BRANCH 37 59
ATOM     59  O4  Z9K D   4      27.143  14.446 130.1680  0.00  0.00     0.000 O
BRANCH 59 63
ATOM     60  C1  Z9K D   4      24.628  17.082 128.6930  0.00  0.00     0.000 C
ATOM     61  C2  Z9K D   4      25.395  16.648 127.4130  0.00  0.00     0.000 C
ATOM     62  C3  Z9K D   4      26.279  15.455 127.9810  0.00  0.00     0.000 C
ATOM     63  C4  Z9K D   4      27.041  15.646 129.3480  0.00  0.00     0.000 C
ATOM     64  C5  Z9K D   4      26.428  16.661 130.3250  0.00  0.00     0.000 C
ATOM     65  O5  Z9K D   4      25.006  16.555 130.0510  0.00  0.00     0.000 O
ATOM     66   O  Z9K D   4      27.286  15.003 127.0580  0.00  0.00     0.000 O
ATOM     67   C  Z9K D   4      26.832  14.039 126.1220  0.00  0.00     0.000 C
BRANCH 61 68
ATOM     68   O  Z9K D   4      24.458  16.067 126.5490  0.00  0.00     0.000 O
ATOM     69   O  Z9K D   4      26.277  17.306 125.2440  0.00  0.00     0.000 OA
ATOM     70   S  Z9K D   4      24.924  17.371 125.7090  0.00  0.00     0.000 S
ATOM     71   O  Z9K D   4      24.281  18.528 126.2500  0.00  0.00     0.000 OA
ATOM     72   O  Z9K D   4      24.040  16.718 124.7980  0.00  0.00     0.000 OA
ENDBRANCH 61 68
BRANCH 64 73
ATOM     73   C  Z9K D   4      26.926  16.408 131.7640  0.00  0.00     0.000 C
ATOM     74   O  Z9K D   4      26.165  15.910 132.6430  0.00  0.00     0.000 O
ATOM     75   O  Z9K D   4      28.101  16.678 132.1140  0.00  0.00     0.000 OA
ENDBRANCH 64 73
BRANCH 60 76
ATOM     76  O4  Z9L D   5      24.349  18.412 129.1610  0.00  0.00     0.000 O
BRANCH 76 80
ATOM     77  C1  Z9L D   5      21.675  20.683 131.0760  0.00  0.00     0.000 C
ATOM     78  C2  Z9L D   5      22.998  20.649 131.9830  0.00  0.00     0.000 C
ATOM     79  C3  Z9L D   5      24.252  20.097 130.9910  0.00  0.00     0.000 C
ATOM     80  C4  Z9L D   5      23.498  18.880 130.1760  0.00  0.00     0.000 C
ATOM     81  C5  Z9L D   5      22.058  18.829 129.4520  0.00  0.00     0.000 C
ATOM     82  O5  Z9L D   5      21.146  19.520 130.3190  0.00  0.00     0.000 O
ATOM     83   C  Z9L D   5      20.632  21.988 129.3140  0.00  0.00     0.000 C
ATOM     84   C  Z9L D   5      20.632  21.988 129.3140  0.00  0.00     0.000 C
BRANCH 78 85
ATOM     85   O  Z9L D   5      23.276  21.951 132.3890  0.00  0.00     0.000 O
ATOM     86   O  Z9L D   5      23.119  22.604 134.1940  0.00  0.00     0.000 OA
ATOM     87   S  Z9L D   5      22.956  21.239 133.7940  0.00  0.00     0.000 S
ATOM     88   O  Z9L D   5      24.084  20.545 134.3640  0.00  0.00     0.000 OA
ATOM     89   O  Z9L D   5      21.591  20.934 134.0530  0.00  0.00     0.000 OA
ENDBRANCH 78 85
BRANCH 79 90
ATOM     90   O  Z9L D   5      25.218  19.416 131.7270  0.00  0.00     0.000 O
ATOM     91   S  Z9L D   5      26.130  20.542 131.0670  0.00  0.00     0.000 S
ATOM     92   O  Z9L D   5      25.853  21.946 131.2200  0.00  0.00     0.000 OA
ATOM     93   O  Z9L D   5      26.718  20.030 129.8540  0.00  0.00     0.000 O
ATOM     94   O  Z9L D   5      26.986  20.161 132.1440  0.00  0.00     0.000 OA
ENDBRANCH 79 90
BRANCH 81 95
ATOM     95   C  Z9L D   5      21.580  17.363 128.7930  0.00  0.00     0.000 C
ATOM     96   S  Z9L D   5      20.561  15.685 129.1280  0.00  0.00     0.000 S
ATOM     97   O  Z9L D   5      21.472  16.638 129.9880  0.00  0.00     0.000 O
ATOM     98   O  Z9L D   5      21.436  14.967 128.2370  0.00  0.00     0.000 OA
ATOM     99   O  Z9L D   5      19.336  16.248 128.6690  0.00  0.00     0.000 OA
ATOM    100   O  Z9L D   5      20.501  14.972 130.3800  0.00  0.00     0.000 O
ENDBRANCH 81 95
ENDBRANCH 76 80
ENDBRANCH 60 76
ENDBRANCH 59 63
ENDBRANCH 37 59
ENDBRANCH 36 40
ENDBRANCH 23 36
ENDBRANCH 22 26
ENDBRANCH 1 22
TORSDOF 19
ENDMDL
MODEL 51
REMARK VINA RESULT:      -0.5     85.680     90.761
ROOT
ATOM      1  C1  Z9H D   1      55.243  47.114  90.0380  0.00  0.00     0.000 C
ATOM      2  C2  Z9H D   1      53.984  48.008  89.9330  0.00  0.00     0.000 C
ATOM      3  C3  Z9H D   1      54.572  49.112  89.0030  0.00  0.00     0.000 C
ATOM      4  C4  Z9H D   1      55.960  49.722  89.4650  0.00  0.00     0.000 C
ATOM      5  C5  Z9H D   1      57.186  48.832  89.9190  0.00  0.00     0.000 C
ATOM      6  O5  Z9H D   1      56.511  47.676  90.4760  0.00  0.00     0.000 O
ATOM      7   O  Z9H D   1      53.627  50.157  88.7630  0.00  0.00     0.000 O
ATOM      8   C  Z9H D   1      52.908  50.064  87.5220  0.00  0.00     0.000 C
ATOM      9   O  Z9H D   1      56.409  50.536  88.3770  0.00  0.00     0.000 O
ATOM     10   C  Z9H D   1      56.165  51.939  88.5150  0.00  0.00     0.000 C
ENDROOT
BRANCH 2 11
ATOM     11   O  Z9H D   1      53.149  47.240  89.1070  0.00  0.00     0.000 O
ATOM     12   O  Z9H D   1      51.549  46.423  89.6830  0.00  0.00     0.000 OA
ATOM     13   S  Z9H D   1      52.381  47.243  90.4970  0.00  0.00     0.000 S
ATOM     14   O  Z9H D   1      51.857  48.560  90.7200  0.00  0.00     0.000 OA
ATOM     15   O  Z9H D   1      53.065  46.442  91.4870  0.00  0.00     0.000 O
ENDBRANCH 2 11
BRANCH 5 16
ATOM     16   C  Z9H D   1      58.372  49.645  90.7760  0.00  0.00     0.000 C
ATOM     17   S  Z9H D   1      60.355  49.808  91.0580  0.00  0.00     0.000 S
ATOM     18   O  Z9H D   1      59.376  49.613  89.7900  0.00  0.00     0.000 O
ATOM     19   O  Z9H D   1      60.417  48.685  91.9500  0.00  0.00     0.000 O
ATOM     20   O  Z9H D   1      60.317  51.156  91.5050  0.00  0.00     0.000 OA
ATOM     21   O  Z9H D   1      61.336  49.719  90.0170  0.00  0.00     0.000 OA
ENDBRANCH 5 16
BRANCH 1 22
ATOM     22  O4  GU1 D   2      55.655  46.476  88.7750  0.00  0.00     0.000 O
BRANCH 22 26
ATOM     23  C1  GU1 D   2      57.339  43.115  87.0890  0.00  0.00     0.000 C
ATOM     24  C2  GU1 D   2      56.464  42.851  88.3050  0.00  0.00     0.000 C
ATOM     25  C3  GU1 D   2      55.622  44.062  88.5840  0.00  0.00     0.000 C
ATOM     26  C4  GU1 D   2      56.485  45.310  88.6970  0.00  0.00     0.000 C
ATOM     27  C5  GU1 D   2      57.400  45.427  87.4750  0.00  0.00     0.000 C
ATOM     28  O5  GU1 D   2      58.177  44.243  87.3190  0.00  0.00     0.000 O
ATOM     29   O  GU1 D   2      55.596  41.742  88.1040  0.00  0.00     0.000 O
ATOM     30   C  GU1 D   2      56.088  40.522  88.6410  0.00  0.00     0.000 C
ATOM     31   C  GU1 D   2      53.569  43.497  89.7060  0.00  0.00     0.000 C
ATOM     32   O  GU1 D   2      54.941  43.863  89.8270  0.00  0.00     0.000 O
BRANCH 27 33
ATOM     33   C  GU1 D   2      58.353  46.590  87.6150  0.00  0.00     0.000 C
ATOM     34   O  GU1 D   2      58.175  47.570  86.9200  0.00  0.00     0.000 OA
ATOM     35   O  GU1 D   2      59.277  46.543  88.4120  0.00  0.00     0.000 O
ENDBRANCH 27 33
BRANCH 23 36
ATOM     36  O4  GU6 D   3      58.411  42.209  86.7620  0.00  0.00     0.000 O
BRANCH 36 40
ATOM     37  C1  GU6 D   3      62.057  40.405  86.3840  0.00  0.00     0.000 C
ATOM     38  C2  GU6 D   3      61.071  40.043  85.2800  0.00  0.00     0.000 C
ATOM     39  C3  GU6 D   3      59.874  40.955  85.3540  0.00  0.00     0.000 C
ATOM     40  C4  GU6 D   3      59.751  41.823  86.5310  0.00  0.00     0.000 C
ATOM     41  C5  GU6 D   3      60.235  41.051  87.8030  0.00  0.00     0.000 C
ATOM     42  O5  GU6 D   3      61.410  40.250  87.6370  0.00  0.00     0.000 O
BRANCH 38 43
ATOM     43   O  GU6 D   3      61.684  40.154  84.0090  0.00  0.00     0.000 O
ATOM     44   S  GU6 D   3      61.617  38.887  83.1670  0.00  0.00     0.000 S
ATOM     45   O  GU6 D   3      62.694  37.979  83.5990  0.00  0.00     0.000 OA
ATOM     46   O  GU6 D   3      60.312  38.240  83.3920  0.00  0.00     0.000 O
ATOM     47   O  GU6 D   3      61.760  39.249  81.7600  0.00  0.00     0.000 OA
ENDBRANCH 38 43
BRANCH 39 48
ATOM     48   O  GU6 D   3      59.030  41.139  84.2340  0.00  0.00     0.000 O
ATOM     49   S  GU6 D   3      59.011  42.257  83.1930  0.00  0.00     0.000 S
ATOM     50   O  GU6 D   3      60.333  42.389  82.5690  0.00  0.00     0.000 OA
ATOM     51   O  GU6 D   3      58.010  41.792  82.2230  0.00  0.00     0.000 OA
ATOM     52   O  GU6 D   3      58.636  43.525  83.8570  0.00  0.00     0.000 O
ENDBRANCH 39 48
BRANCH 41 53
ATOM     53   C  GU6 D   3      59.646  41.044  89.1880  0.00  0.00     0.000 C
ATOM     54   O  GU6 D   3      59.866  42.397  89.4950  0.00  0.00     0.000 O
ATOM     55   S  GU6 D   3      59.543  42.939  90.8940  0.00  0.00     0.000 S
ATOM     56   O  GU6 D   3      60.480  42.282  91.8350  0.00  0.00     0.000 O
ATOM     57   O  GU6 D   3      59.745  44.395  90.8900  0.00  0.00     0.000 OA
ATOM     58   O  GU6 D   3      58.141  42.570  91.1940  0.00  0.00     0.000 OA
ENDBRANCH 41 53
BRANCH 37 59
ATOM     59  O4  Z9K D   4      62.823  41.626  86.4430  0.00  0.00     0.000 O
BRANCH 59 63
ATOM     60  C1  Z9K D   4      65.758  44.117  85.6500  0.00  0.00     0.000 C
ATOM     61  C2  Z9K D   4      66.317  42.794  85.0570  0.00  0.00     0.000 C
ATOM     62  C3  Z9K D   4      65.057  41.837  85.2140  0.00  0.00     0.000 C
ATOM     63  C4  Z9K D   4      64.260  41.834  86.5740  0.00  0.00     0.000 C
ATOM     64  C5  Z9K D   4      64.331  43.127  87.4000  0.00  0.00     0.000 C
ATOM     65  O5  Z9K D   4      64.445  44.155  86.3820  0.00  0.00     0.000 O
ATOM     66   O  Z9K D   4      65.358  40.453  84.9590  0.00  0.00     0.000 O
ATOM     67   C  Z9K D   4      65.297  40.082  83.5920  0.00  0.00     0.000 C
BRANCH 61 68
ATOM     68   O  Z9K D   4      66.486  42.999  83.6810  0.00  0.00     0.000 O
ATOM     69   O  Z9K D   4      68.288  41.439  84.6130  0.00  0.00     0.000 OA
ATOM     70   S  Z9K D   4      68.012  42.775  84.1760  0.00  0.00     0.000 S
ATOM     71   O  Z9K D   4      68.480  43.973  84.8030  0.00  0.00     0.000 OA
ATOM     72   O  Z9K D   4      68.162  42.889  82.7610  0.00  0.00     0.000 OA
ENDBRANCH 61 68
BRANCH 64 73
ATOM     73   C  Z9K D   4      63.161  43.202  88.4040  0.00  0.00     0.000 C
ATOM     74   O  Z9K D   4      63.128  42.461  89.4290  0.00  0.00     0.000 O
ATOM     75   O  Z9K D   4      62.206  44.002  88.2470  0.00  0.00     0.000 OA
ENDBRANCH 64 73
BRANCH 60 76
ATOM     76  O4  Z9L D   5      66.409  45.045  86.5350  0.00  0.00     0.000 O
BRANCH 76 80
ATOM     77  C1  Z9L D   5      66.800  48.914  87.4570  0.00  0.00     0.000 C
ATOM     78  C2  Z9L D   5      66.124  48.195  88.7220  0.00  0.00     0.000 C
ATOM     79  C3  Z9L D   5      66.378  46.534  88.5290  0.00  0.00     0.000 C
ATOM     80  C4  Z9L D   5      66.069  46.352  86.9210  0.00  0.00     0.000 C
ATOM     81  C5  Z9L D   5      66.561  47.213  85.6490  0.00  0.00     0.000 C
ATOM     82  O5  Z9L D   5      66.486  48.591  86.0420  0.00  0.00     0.000 O
ATOM     83   C  Z9L D   5      68.980  49.518  86.5770  0.00  0.00     0.000 C
ATOM     84   C  Z9L D   5      68.980  49.518  86.5770  0.00  0.00     0.000 C
BRANCH 78 85
ATOM     85   O  Z9L D   5      66.785  48.628  89.8680  0.00  0.00     0.000 O
ATOM     86   O  Z9L D   5      66.020  49.761  91.2250  0.00  0.00     0.000 OA
ATOM     87   S  Z9L D   5      65.307  49.212  90.1110  0.00  0.00     0.000 S
ATOM     88   O  Z9L D   5      64.392  48.258  90.6860  0.00  0.00     0.000 OA
ATOM     89   O  Z9L D   5      64.931  50.332  89.3190  0.00  0.00     0.000 OA
ENDBRANCH 78 85
BRANCH 79 90
ATOM     90   O  Z9L D   5      65.357  45.794  89.1190  0.00  0.00     0.000 O
ATOM     91   S  Z9L D   5      66.608  45.190  89.8970  0.00  0.00     0.000 S
ATOM     92   O  Z9L D   5      67.526  46.015  90.6370  0.00  0.00     0.000 OA
ATOM     93   O  Z9L D   5      67.060  43.998  89.2230  0.00  0.00     0.000 O
ATOM     94   O  Z9L D   5      65.572  44.798  90.7970  0.00  0.00     0.000 OA
ENDBRANCH 79 90
BRANCH 81 95
ATOM     95   C  Z9L D   5      65.959  46.776  84.1460  0.00  0.00     0.000 C
ATOM     96   S  Z9L D   5      64.541  47.137  82.7950  0.00  0.00     0.000 S
ATOM     97   O  Z9L D   5      64.616  47.115  84.3670  0.00  0.00     0.000 O
ATOM     98   O  Z9L D   5      64.598  45.765  82.3580  0.00  0.00     0.000 OA
ATOM     99   O  Z9L D   5      65.306  48.151  82.1520  0.00  0.00     0.000 OA
ATOM    100   O  Z9L D   5      63.167  47.466  83.0840  0.00  0.00     0.000 O
ENDBRANCH 81 95
ENDBRANCH 76 80
ENDBRANCH 60 76
ENDBRANCH 59 63
ENDBRANCH 37 59
ENDBRANCH 36 40
ENDBRANCH 23 36
ENDBRANCH 22 26
ENDBRANCH 1 22
TORSDOF 19
ENDMDL
MODEL 52
REMARK VINA RESULT:      -0.5    157.419    163.247
ROOT
ATOM      1  C1  Z9H D   1     142.433  90.687  93.0660  0.00  0.00     0.000 C
ATOM      2  C2  Z9H D   1     143.175  89.458  92.4870  0.00  0.00     0.000 C
ATOM      3  C3  Z9H D   1     144.287  89.339  93.5740  0.00  0.00     0.000 C
ATOM      4  C4  Z9H D   1     145.070  90.678  93.8960  0.00  0.00     0.000 C
ATOM      5  C5  Z9H D   1     144.347  92.059  94.1590  0.00  0.00     0.000 C
ATOM      6  O5  Z9H D   1     143.155  91.919  93.3460  0.00  0.00     0.000 O
ATOM      7   O  Z9H D   1     145.206  88.286  93.2730  0.00  0.00     0.000 O
ATOM      8   C  Z9H D   1     144.968  87.046  93.9590  0.00  0.00     0.000 C
ATOM      9   O  Z9H D   1     145.869  90.394  95.0490  0.00  0.00     0.000 O
ATOM     10   C  Z9H D   1     147.242  90.088  94.7870  0.00  0.00     0.000 C
ENDROOT
BRANCH 2 11
ATOM     11   O  Z9H D   1     142.277  88.417  92.7660  0.00  0.00     0.000 O
ATOM     12   O  Z9H D   1     141.340  87.444  91.4500  0.00  0.00     0.000 OA
ATOM     13   S  Z9H D   1     142.290  88.470  91.1790  0.00  0.00     0.000 S
ATOM     14   O  Z9H D   1     143.559  87.980  90.7210  0.00  0.00     0.000 OA
ATOM     15   O  Z9H D   1     141.625  89.652  90.6790  0.00  0.00     0.000 O
ENDBRANCH 2 11
BRANCH 5 16
ATOM     16   C  Z9H D   1     145.330  93.408  94.0360  0.00  0.00     0.000 C
ATOM     17   S  Z9H D   1     145.682  95.241  94.7830  0.00  0.00     0.000 S
ATOM     18   O  Z9H D   1     145.293  93.796  95.3890  0.00  0.00     0.000 O
ATOM     19   O  Z9H D   1     144.655  95.863  93.9980  0.00  0.00     0.000 O
ATOM     20   O  Z9H D   1     147.058  95.269  94.4280  0.00  0.00     0.000 OA
ATOM     21   O  Z9H D   1     145.582  95.588  96.1700  0.00  0.00     0.000 OA
ENDBRANCH 5 16
BRANCH 1 22
ATOM     22  O4  GU1 D   2     141.778  90.459  94.3660  0.00  0.00     0.000 O
BRANCH 22 26
ATOM     23  C1  GU1 D   2     138.514  91.388  96.7010  0.00  0.00     0.000 C
ATOM     24  C2  GU1 D   2     138.230  91.306  95.2080  0.00  0.00     0.000 C
ATOM     25  C3  GU1 D   2     139.366  90.601  94.5250  0.00  0.00     0.000 C
ATOM     26  C4  GU1 D   2     140.697  91.252  94.8710  0.00  0.00     0.000 C
ATOM     27  C5  GU1 D   2     140.838  91.381  96.3910  0.00  0.00     0.000 C
ATOM     28  O5  GU1 D   2     139.728  92.091  96.9350  0.00  0.00     0.000 O
ATOM     29   O  GU1 D   2     137.032  90.589  94.9330  0.00  0.00     0.000 O
ATOM     30   C  GU1 D   2     135.897  91.421  94.7390  0.00  0.00     0.000 C
ATOM     31   C  GU1 D   2     138.663  89.505  92.5000  0.00  0.00     0.000 C
ATOM     32   O  GU1 D   2     139.167  90.691  93.1100  0.00  0.00     0.000 O
BRANCH 27 33
ATOM     33   C  GU1 D   2     142.095  92.132  96.7610  0.00  0.00     0.000 C
ATOM     34   O  GU1 D   2     142.136  93.327  96.5530  0.00  0.00     0.000 OA
ATOM     35   O  GU1 D   2     143.042  91.547  97.2620  0.00  0.00     0.000 O
ENDBRANCH 27 33
BRANCH 23 36
ATOM     36  O4  GU6 D   3     137.701  92.229  97.5440  0.00  0.00     0.000 O
BRANCH 36 40
ATOM     37  C1  GU6 D   3     136.242  95.336  99.7590  0.00  0.00     0.000 C
ATOM     38  C2  GU6 D   3     135.729  93.970 100.1960  0.00  0.00     0.000 C
ATOM     39  C3  GU6 D   3     136.522  92.889  99.5100  0.00  0.00     0.000 C
ATOM     40  C4  GU6 D   3     137.435  93.292  98.4350  0.00  0.00     0.000 C
ATOM     41  C5  GU6 D   3     136.783  94.443  97.5990  0.00  0.00     0.000 C
ATOM     42  O5  GU6 D   3     136.092  95.446  98.3520  0.00  0.00     0.000 O
BRANCH 38 43
ATOM     43   O  GU6 D   3     135.830  93.827 101.6000  0.00  0.00     0.000 O
ATOM     44   S  GU6 D   3     134.524  93.460 102.2910  0.00  0.00     0.000 S
ATOM     45   O  GU6 D   3     133.733  94.688 102.4810  0.00  0.00     0.000 OA
ATOM     46   O  GU6 D   3     133.779  92.527 101.4260  0.00  0.00     0.000 O
ATOM     47   O  GU6 D   3     134.830  92.822 103.5680  0.00  0.00     0.000 OA
ENDBRANCH 38 43
BRANCH 39 48
ATOM     48   O  GU6 D   3     136.563  91.575 100.0330  0.00  0.00     0.000 O
ATOM     49   S  GU6 D   3     137.616  90.902 100.9120  0.00  0.00     0.000 S
ATOM     50   O  GU6 D   3     137.840  91.692 102.1290  0.00  0.00     0.000 OA
ATOM     51   O  GU6 D   3     137.006  89.603 101.2270  0.00  0.00     0.000 OA
ATOM     52   O  GU6 D   3     138.877  90.784 100.1460  0.00  0.00     0.000 O
ENDBRANCH 39 48
BRANCH 41 53
ATOM     53   C  GU6 D   3     136.792  94.654  96.1090  0.00  0.00     0.000 C
ATOM     54   O  GU6 D   3     138.171  94.872  95.9560  0.00  0.00     0.000 O
ATOM     55   S  GU6 D   3     138.750  95.264  94.5900  0.00  0.00     0.000 S
ATOM     56   O  GU6 D   3     138.216  96.609  94.2700  0.00  0.00     0.000 O
ATOM     57   O  GU6 D   3     140.216  95.298  94.6950  0.00  0.00     0.000 OA
ATOM     58   O  GU6 D   3     138.281  94.258  93.6100  0.00  0.00     0.000 OA
ENDBRANCH 41 53
BRANCH 37 59
ATOM     59  O4  Z9K D   4     137.534  95.883 100.0970  0.00  0.00     0.000 O
BRANCH 59 63
ATOM     60  C1  Z9K D   4     140.246  97.679 102.3030  0.00  0.00     0.000 C
ATOM     61  C2  Z9K D   4     138.951  97.992 103.1030  0.00  0.00     0.000 C
ATOM     62  C3  Z9K D   4     137.888  97.113 102.3120  0.00  0.00     0.000 C
ATOM     63  C4  Z9K D   4     137.886  97.145 100.7360  0.00  0.00     0.000 C
ATOM     64  C5  Z9K D   4     139.225  97.490 100.0670  0.00  0.00     0.000 C
ATOM     65  O5  Z9K D   4     140.199  96.942 100.9930  0.00  0.00     0.000 O
ATOM     66   O  Z9K D   4     136.527  97.391 102.6890  0.00  0.00     0.000 O
ATOM     67   C  Z9K D   4     136.074  96.670 103.8230  0.00  0.00     0.000 C
BRANCH 61 68
ATOM     68   O  Z9K D   4     139.093  97.398 104.3640  0.00  0.00     0.000 O
ATOM     69   O  Z9K D   4     137.754  99.574 104.5120  0.00  0.00     0.000 OA
ATOM     70   S  Z9K D   4     139.033  98.972 104.7410  0.00  0.00     0.000 S
ATOM     71   O  Z9K D   4     140.301  99.568 104.4530  0.00  0.00     0.000 OA
ATOM     72   O  Z9K D   4     139.081  98.350 106.0250  0.00  0.00     0.000 OA
ENDBRANCH 61 68
BRANCH 64 73
ATOM     73   C  Z9K D   4     139.245  97.012  98.6000  0.00  0.00     0.000 C
ATOM     74   O  Z9K D   4     139.942  96.018  98.2430  0.00  0.00     0.000 O
ATOM     75   O  Z9K D   4     138.569  97.583  97.7090  0.00  0.00     0.000 OA
ENDBRANCH 64 73
BRANCH 60 76
ATOM     76  O4  Z9L D   5     141.282  98.585 101.8870  0.00  0.00     0.000 O
BRANCH 76 80
ATOM     77  C1  Z9L D   5     145.226  98.976 101.3810  0.00  0.00     0.000 C
ATOM     78  C2  Z9L D   5     144.551  99.118  99.9340  0.00  0.00     0.000 C
ATOM     79  C3  Z9L D   5     142.906  99.414 100.1930  0.00  0.00     0.000 C
ATOM     80  C4  Z9L D   5     142.582  98.352 101.4100  0.00  0.00     0.000 C
ATOM     81  C5  Z9L D   5     143.384  98.033 102.7720  0.00  0.00     0.000 C
ATOM     82  O5  Z9L D   5     144.777  98.023 102.4270  0.00  0.00     0.000 O
ATOM     83   C  Z9L D   5     145.938 100.327 103.2690  0.00  0.00     0.000 C
ATOM     84   C  Z9L D   5     145.938 100.327 103.2690  0.00  0.00     0.000 C
BRANCH 78 85
ATOM     85   O  Z9L D   5     145.118 100.219  99.2990  0.00  0.00     0.000 O
ATOM     86   O  Z9L D   5     146.288 100.135  97.7710  0.00  0.00     0.000 OA
ATOM     87   S  Z9L D   5     145.604  99.018  98.3480  0.00  0.00     0.000 S
ATOM     88   O  Z9L D   5     144.628  98.626  97.3620  0.00  0.00     0.000 OA
ATOM     89   O  Z9L D   5     146.629  98.178  98.8640  0.00  0.00     0.000 OA
ENDBRANCH 78 85
BRANCH 79 90
ATOM     90   O  Z9L D   5     142.131  98.920  99.1470  0.00  0.00     0.000 O
ATOM     91   S  Z9L D   5     141.693 100.451  99.1040  0.00  0.00     0.000 S
ATOM     92   O  Z9L D   5     142.644 101.521  98.9580  0.00  0.00     0.000 OA
ATOM     93   O  Z9L D   5     140.494 100.626  99.8860  0.00  0.00     0.000 O
ATOM     94   O  Z9L D   5     141.287 100.063  97.7920  0.00  0.00     0.000 OA
ENDBRANCH 79 90
BRANCH 81 95
ATOM     95   C  Z9L D   5     142.791  96.801 103.7430  0.00  0.00     0.000 C
ATOM     96   S  Z9L D   5     142.904  94.855 104.1510  0.00  0.00     0.000 S
ATOM     97   O  Z9L D   5     142.986  95.738 102.8500  0.00  0.00     0.000 O
ATOM     98   O  Z9L D   5     141.525  94.854 104.5660  0.00  0.00     0.000 OA
ATOM     99   O  Z9L D   5     143.960  95.035 105.0890  0.00  0.00     0.000 OA
ATOM    100   O  Z9L D   5     143.089  93.802 103.1830  0.00  0.00     0.000 O
ENDBRANCH 81 95
ENDBRANCH 76 80
ENDBRANCH 60 76
ENDBRANCH 59 63
ENDBRANCH 37 59
ENDBRANCH 36 40
ENDBRANCH 23 36
ENDBRANCH 22 26
ENDBRANCH 1 22
TORSDOF 19
ENDMDL
MODEL 53
REMARK VINA RESULT:      -0.5    155.853    161.631
ROOT
ATOM      1  C1  Z9H D   1     141.506  87.509  93.4340  0.00  0.00     0.000 C
ATOM      2  C2  Z9H D   1     142.248  86.281  92.8550  0.00  0.00     0.000 C
ATOM      3  C3  Z9H D   1     143.360  86.161  93.9420  0.00  0.00     0.000 C
ATOM      4  C4  Z9H D   1     144.142  87.501  94.2640  0.00  0.00     0.000 C
ATOM      5  C5  Z9H D   1     143.419  88.882  94.5270  0.00  0.00     0.000 C
ATOM      6  O5  Z9H D   1     142.227  88.741  93.7140  0.00  0.00     0.000 O
ATOM      7   O  Z9H D   1     144.279  85.109  93.6420  0.00  0.00     0.000 O
ATOM      8   C  Z9H D   1     144.041  83.868  94.3280  0.00  0.00     0.000 C
ATOM      9   O  Z9H D   1     144.942  87.217  95.4170  0.00  0.00     0.000 O
ATOM     10   C  Z9H D   1     146.315  86.911  95.1560  0.00  0.00     0.000 C
ENDROOT
BRANCH 2 11
ATOM     11   O  Z9H D   1     141.350  85.239  93.1350  0.00  0.00     0.000 O
ATOM     12   O  Z9H D   1     140.413  84.266  91.8180  0.00  0.00     0.000 OA
ATOM     13   S  Z9H D   1     141.362  85.293  91.5470  0.00  0.00     0.000 S
ATOM     14   O  Z9H D   1     142.631  84.803  91.0890  0.00  0.00     0.000 OA
ATOM     15   O  Z9H D   1     140.698  86.474  91.0470  0.00  0.00     0.000 O
ENDBRANCH 2 11
BRANCH 5 16
ATOM     16   C  Z9H D   1     144.402  90.231  94.4050  0.00  0.00     0.000 C
ATOM     17   S  Z9H D   1     144.755  92.063  95.1510  0.00  0.00     0.000 S
ATOM     18   O  Z9H D   1     144.365  90.619  95.7570  0.00  0.00     0.000 O
ATOM     19   O  Z9H D   1     143.727  92.685  94.3660  0.00  0.00     0.000 O
ATOM     20   O  Z9H D   1     146.131  92.091  94.7960  0.00  0.00     0.000 OA
ATOM     21   O  Z9H D   1     144.654  92.411  96.5380  0.00  0.00     0.000 OA
ENDBRANCH 5 16
BRANCH 1 22
ATOM     22  O4  GU1 D   2     140.851  87.281  94.7340  0.00  0.00     0.000 O
BRANCH 22 26
ATOM     23  C1  GU1 D   2     137.586  88.211  97.0690  0.00  0.00     0.000 C
ATOM     24  C2  GU1 D   2     137.303  88.128  95.5770  0.00  0.00     0.000 C
ATOM     25  C3  GU1 D   2     138.438  87.424  94.8930  0.00  0.00     0.000 C
ATOM     26  C4  GU1 D   2     139.770  88.074  95.2390  0.00  0.00     0.000 C
ATOM     27  C5  GU1 D   2     139.910  88.204  96.7590  0.00  0.00     0.000 C
ATOM     28  O5  GU1 D   2     138.801  88.914  97.3030  0.00  0.00     0.000 O
ATOM     29   O  GU1 D   2     136.105  87.412  95.3020  0.00  0.00     0.000 O
ATOM     30   C  GU1 D   2     134.970  88.243  95.1070  0.00  0.00     0.000 C
ATOM     31   C  GU1 D   2     137.735  86.328  92.8680  0.00  0.00     0.000 C
ATOM     32   O  GU1 D   2     138.240  87.513  93.4780  0.00  0.00     0.000 O
BRANCH 27 33
ATOM     33   C  GU1 D   2     141.167  88.954  97.1290  0.00  0.00     0.000 C
ATOM     34   O  GU1 D   2     141.209  90.150  96.9210  0.00  0.00     0.000 OA
ATOM     35   O  GU1 D   2     142.115  88.369  97.6300  0.00  0.00     0.000 O
ENDBRANCH 27 33
BRANCH 23 36
ATOM     36  O4  GU6 D   3     136.774  89.051  97.9120  0.00  0.00     0.000 O
BRANCH 36 40
ATOM     37  C1  GU6 D   3     135.314  92.159 100.1270  0.00  0.00     0.000 C
ATOM     38  C2  GU6 D   3     134.801  90.793 100.5650  0.00  0.00     0.000 C
ATOM     39  C3  GU6 D   3     135.595  89.712  99.8780  0.00  0.00     0.000 C
ATOM     40  C4  GU6 D   3     136.508  90.115  98.8030  0.00  0.00     0.000 C
ATOM     41  C5  GU6 D   3     135.856  91.265  97.9680  0.00  0.00     0.000 C
ATOM     42  O5  GU6 D   3     135.164  92.269  98.7200  0.00  0.00     0.000 O
BRANCH 38 43
ATOM     43   O  GU6 D   3     134.903  90.649 101.9680  0.00  0.00     0.000 O
ATOM     44   S  GU6 D   3     133.596  90.282 102.6590  0.00  0.00     0.000 S
ATOM     45   O  GU6 D   3     132.805  91.511 102.8490  0.00  0.00     0.000 OA
ATOM     46   O  GU6 D   3     132.852  89.349 101.7940  0.00  0.00     0.000 O
ATOM     47   O  GU6 D   3     133.902  89.644 103.9360  0.00  0.00     0.000 OA
ENDBRANCH 38 43
BRANCH 39 48
ATOM     48   O  GU6 D   3     135.636  88.398 100.4010  0.00  0.00     0.000 O
ATOM     49   S  GU6 D   3     136.689  87.724 101.2800  0.00  0.00     0.000 S
ATOM     50   O  GU6 D   3     136.912  88.514 102.4970  0.00  0.00     0.000 OA
ATOM     51   O  GU6 D   3     136.078  86.426 101.5950  0.00  0.00     0.000 OA
ATOM     52   O  GU6 D   3     137.949  87.607 100.5140  0.00  0.00     0.000 O
ENDBRANCH 39 48
BRANCH 41 53
ATOM     53   C  GU6 D   3     135.865  91.476  96.4780  0.00  0.00     0.000 C
ATOM     54   O  GU6 D   3     137.243  91.695  96.3240  0.00  0.00     0.000 O
ATOM     55   S  GU6 D   3     137.822  92.087  94.9580  0.00  0.00     0.000 S
ATOM     56   O  GU6 D   3     137.289  93.431  94.6380  0.00  0.00     0.000 O
ATOM     57   O  GU6 D   3     139.288  92.120  95.0630  0.00  0.00     0.000 OA
ATOM     58   O  GU6 D   3     137.354  91.081  93.9780  0.00  0.00     0.000 OA
ENDBRANCH 41 53
BRANCH 37 59
ATOM     59  O4  Z9K D   4     136.606  92.706 100.4650  0.00  0.00     0.000 O
BRANCH 59 63
ATOM     60  C1  Z9K D   4     139.318  94.501 102.6720  0.00  0.00     0.000 C
ATOM     61  C2  Z9K D   4     138.024  94.815 103.4710  0.00  0.00     0.000 C
ATOM     62  C3  Z9K D   4     136.960  93.936 102.6800  0.00  0.00     0.000 C
ATOM     63  C4  Z9K D   4     136.959  93.967 101.1040  0.00  0.00     0.000 C
ATOM     64  C5  Z9K D   4     138.298  94.313 100.4350  0.00  0.00     0.000 C
ATOM     65  O5  Z9K D   4     139.272  93.764 101.3610  0.00  0.00     0.000 O
ATOM     66   O  Z9K D   4     135.600  94.214 103.0570  0.00  0.00     0.000 O
ATOM     67   C  Z9K D   4     135.147  93.493 104.1910  0.00  0.00     0.000 C
BRANCH 61 68
ATOM     68   O  Z9K D   4     138.165  94.220 104.7330  0.00  0.00     0.000 O
ATOM     69   O  Z9K D   4     136.827  96.396 104.8800  0.00  0.00     0.000 OA
ATOM     70   S  Z9K D   4     138.106  95.794 105.1090  0.00  0.00     0.000 S
ATOM     71   O  Z9K D   4     139.374  96.391 104.8220  0.00  0.00     0.000 OA
ATOM     72   O  Z9K D   4     138.153  95.173 106.3930  0.00  0.00     0.000 OA
ENDBRANCH 61 68
BRANCH 64 73
ATOM     73   C  Z9K D   4     138.317  93.834  98.9680  0.00  0.00     0.000 C
ATOM     74   O  Z9K D   4     139.014  92.840  98.6120  0.00  0.00     0.000 O
ATOM     75   O  Z9K D   4     137.642  94.405  98.0770  0.00  0.00     0.000 OA
ENDBRANCH 64 73
BRANCH 60 76
ATOM     76  O4  Z9L D   5     140.354  95.407 102.2560  0.00  0.00     0.000 O
BRANCH 76 80
ATOM     77  C1  Z9L D   5     144.299  95.799 101.7490  0.00  0.00     0.000 C
ATOM     78  C2  Z9L D   5     143.623  95.941 100.3020  0.00  0.00     0.000 C
ATOM     79  C3  Z9L D   5     141.978  96.236 100.5610  0.00  0.00     0.000 C
ATOM     80  C4  Z9L D   5     141.654  95.175 101.7780  0.00  0.00     0.000 C
ATOM     81  C5  Z9L D   5     142.456  94.856 103.1400  0.00  0.00     0.000 C
ATOM     82  O5  Z9L D   5     143.850  94.845 102.7950  0.00  0.00     0.000 O
ATOM     83   C  Z9L D   5     145.011  97.149 103.6370  0.00  0.00     0.000 C
ATOM     84   C  Z9L D   5     145.011  97.149 103.6370  0.00  0.00     0.000 C
BRANCH 78 85
ATOM     85   O  Z9L D   5     144.190  97.042  99.6670  0.00  0.00     0.000 O
ATOM     86   O  Z9L D   5     145.360  96.957  98.1390  0.00  0.00     0.000 OA
ATOM     87   S  Z9L D   5     144.677  95.841  98.7170  0.00  0.00     0.000 S
ATOM     88   O  Z9L D   5     143.701  95.448  97.7300  0.00  0.00     0.000 OA
ATOM     89   O  Z9L D   5     145.702  95.000  99.2330  0.00  0.00     0.000 OA
ENDBRANCH 78 85
BRANCH 79 90
ATOM     90   O  Z9L D   5     141.203  95.743  99.5150  0.00  0.00     0.000 O
ATOM     91   S  Z9L D   5     140.765  97.273  99.4720  0.00  0.00     0.000 S
ATOM     92   O  Z9L D   5     141.717  98.343  99.3260  0.00  0.00     0.000 OA
ATOM     93   O  Z9L D   5     139.567  97.449 100.2550  0.00  0.00     0.000 O
ATOM     94   O  Z9L D   5     140.359  96.886  98.1600  0.00  0.00     0.000 OA
ENDBRANCH 79 90
BRANCH 81 95
ATOM     95   C  Z9L D   5     141.864  93.624 104.1120  0.00  0.00     0.000 C
ATOM     96   S  Z9L D   5     141.977  91.677 104.5190  0.00  0.00     0.000 S
ATOM     97   O  Z9L D   5     142.058  92.560 103.2180  0.00  0.00     0.000 O
ATOM     98   O  Z9L D   5     140.597  91.677 104.9340  0.00  0.00     0.000 OA
ATOM     99   O  Z9L D   5     143.033  91.858 105.4570  0.00  0.00     0.000 OA
ATOM    100   O  Z9L D   5     142.162  90.624 103.5520  0.00  0.00     0.000 O
ENDBRANCH 81 95
ENDBRANCH 76 80
ENDBRANCH 60 76
ENDBRANCH 59 63
ENDBRANCH 37 59
ENDBRANCH 36 40
ENDBRANCH 23 36
ENDBRANCH 22 26
ENDBRANCH 1 22
TORSDOF 19
ENDMDL
MODEL 54
REMARK VINA RESULT:      -0.5     53.912     59.650
ROOT
ATOM      1  C1  Z9H D   1      22.297  50.160  67.2450  0.00  0.00     0.000 C
ATOM      2  C2  Z9H D   1      22.995  51.337  66.5210  0.00  0.00     0.000 C
ATOM      3  C3  Z9H D   1      23.444  50.574  65.2380  0.00  0.00     0.000 C
ATOM      4  C4  Z9H D   1      24.211  49.211  65.4910  0.00  0.00     0.000 C
ATOM      5  C5  Z9H D   1      23.701  48.107  66.5020  0.00  0.00     0.000 C
ATOM      6  O5  Z9H D   1      23.011  48.917  67.4870  0.00  0.00     0.000 O
ATOM      7   O  Z9H D   1      24.199  51.414  64.3630  0.00  0.00     0.000 O
ATOM      8   C  Z9H D   1      23.461  51.990  63.2720  0.00  0.00     0.000 C
ATOM      9   O  Z9H D   1      24.329  48.587  64.2080  0.00  0.00     0.000 O
ATOM     10   C  Z9H D   1      25.592  48.751  63.5560  0.00  0.00     0.000 C
ENDROOT
BRANCH 2 11
ATOM     11   O  Z9H D   1      21.903  52.121  66.1180  0.00  0.00     0.000 O
ATOM     12   O  Z9H D   1      21.514  53.832  66.8090  0.00  0.00     0.000 OA
ATOM     13   S  Z9H D   1      22.645  53.047  67.1740  0.00  0.00     0.000 S
ATOM     14   O  Z9H D   1      23.877  53.498  66.5920  0.00  0.00     0.000 OA
ATOM     15   O  Z9H D   1      22.496  52.546  68.5210  0.00  0.00     0.000 O
ENDBRANCH 2 11
BRANCH 5 16
ATOM     16   C  Z9H D   1      24.849  46.976  66.9530  0.00  0.00     0.000 C
ATOM     17   S  Z9H D   1      25.136  45.040  67.4130  0.00  0.00     0.000 S
ATOM     18   O  Z9H D   1      24.277  45.858  66.3180  0.00  0.00     0.000 O
ATOM     19   O  Z9H D   1      24.691  45.197  68.7680  0.00  0.00     0.000 O
ATOM     20   O  Z9H D   1      26.508  45.016  67.0410  0.00  0.00     0.000 OA
ATOM     21   O  Z9H D   1      24.486  43.943  66.7590  0.00  0.00     0.000 OA
ENDBRANCH 5 16
BRANCH 1 22
ATOM     22  O4  GU1 D   2      21.090  49.649  66.5720  0.00  0.00     0.000 O
BRANCH 22 26
ATOM     23  C1  GU1 D   2      17.342  48.034  67.1380  0.00  0.00     0.000 C
ATOM     24  C2  GU1 D   2      17.756  49.069  68.1740  0.00  0.00     0.000 C
ATOM     25  C3  GU1 D   2      18.934  49.844  67.6590  0.00  0.00     0.000 C
ATOM     26  C4  GU1 D   2      20.055  48.908  67.2300  0.00  0.00     0.000 C
ATOM     27  C5  GU1 D   2      19.512  47.844  66.2720  0.00  0.00     0.000 C
ATOM     28  O5  GU1 D   2      18.421  47.147  66.8670  0.00  0.00     0.000 O
ATOM     29   O  GU1 D   2      16.708  49.989  68.4550  0.00  0.00     0.000 O
ATOM     30   C  GU1 D   2      15.950  49.661  69.6110  0.00  0.00     0.000 C
ATOM     31   C  GU1 D   2      19.045  52.056  68.6010  0.00  0.00     0.000 C
ATOM     32   O  GU1 D   2      19.417  50.684  68.7120  0.00  0.00     0.000 O
BRANCH 27 33
ATOM     33   C  GU1 D   2      20.575  46.829  65.9240  0.00  0.00     0.000 C
ATOM     34   O  GU1 D   2      21.036  46.837  64.8010  0.00  0.00     0.000 OA
ATOM     35   O  GU1 D   2      20.961  46.024  66.7570  0.00  0.00     0.000 O
ENDBRANCH 27 33
BRANCH 23 36
ATOM     36  O4  GU6 D   3      16.398  47.003  67.4880  0.00  0.00     0.000 O
BRANCH 36 40
ATOM     37  C1  GU6 D   3      14.673  43.487  68.6530  0.00  0.00     0.000 C
ATOM     38  C2  GU6 D   3      13.775  44.359  67.7840  0.00  0.00     0.000 C
ATOM     39  C3  GU6 D   3      14.583  45.483  67.1900  0.00  0.00     0.000 C
ATOM     40  C4  GU6 D   3      15.948  45.679  67.6910  0.00  0.00     0.000 C
ATOM     41  C5  GU6 D   3      15.983  45.411  69.2320  0.00  0.00     0.000 C
ATOM     42  O5  GU6 D   3      15.218  44.290  69.6880  0.00  0.00     0.000 O
BRANCH 38 43
ATOM     43   O  GU6 D   3      13.183  43.592  66.7530  0.00  0.00     0.000 O
ATOM     44   S  GU6 D   3      11.663  43.668  66.7060  0.00  0.00     0.000 S
ATOM     45   O  GU6 D   3      11.116  42.734  67.7050  0.00  0.00     0.000 OA
ATOM     46   O  GU6 D   3      11.249  45.042  67.0420  0.00  0.00     0.000 O
ATOM     47   O  GU6 D   3      11.217  43.327  65.3580  0.00  0.00     0.000 OA
ENDBRANCH 38 43
BRANCH 39 48
ATOM     48   O  GU6 D   3      14.134  46.170  66.0380  0.00  0.00     0.000 O
ATOM     49   S  GU6 D   3      14.518  45.980  64.5710  0.00  0.00     0.000 S
ATOM     50   O  GU6 D   3      14.297  44.587  64.1670  0.00  0.00     0.000 OA
ATOM     51   O  GU6 D   3      13.603  46.889  63.8670  0.00  0.00     0.000 OA
ATOM     52   O  GU6 D   3      15.944  46.338  64.3980  0.00  0.00     0.000 O
ENDBRANCH 39 48
BRANCH 41 53
ATOM     53   C  GU6 D   3      16.723  46.160  70.3070  0.00  0.00     0.000 C
ATOM     54   O  GU6 D   3      18.027  45.833  69.9040  0.00  0.00     0.000 O
ATOM     55   S  GU6 D   3      19.234  46.263  70.7500  0.00  0.00     0.000 S
ATOM     56   O  GU6 D   3      19.143  45.524  72.0310  0.00  0.00     0.000 O
ATOM     57   O  GU6 D   3      20.463  45.903  70.0280  0.00  0.00     0.000 OA
ATOM     58   O  GU6 D   3      19.120  47.722  70.9680  0.00  0.00     0.000 OA
ENDBRANCH 41 53
BRANCH 37 59
ATOM     59  O4  Z9K D   4      15.735  42.643  68.1600  0.00  0.00     0.000 O
BRANCH 59 63
ATOM     60  C1  Z9K D   4      17.366  39.440  66.5700  0.00  0.00     0.000 C
ATOM     61  C2  Z9K D   4      15.937  38.921  66.8920  0.00  0.00     0.000 C
ATOM     62  C3  Z9K D   4      15.228  40.265  67.3620  0.00  0.00     0.000 C
ATOM     63  C4  Z9K D   4      15.981  41.221  68.3640  0.00  0.00     0.000 C
ATOM     64  C5  Z9K D   4      17.515  41.146  68.3430  0.00  0.00     0.000 C
ATOM     65  O5  Z9K D   4      17.803  40.826  66.9570  0.00  0.00     0.000 O
ATOM     66   O  Z9K D   4      13.936  40.048  67.9590  0.00  0.00     0.000 O
ATOM     67   C  Z9K D   4      12.867  39.971  67.0300  0.00  0.00     0.000 C
BRANCH 61 68
ATOM     68   O  Z9K D   4      15.342  38.569  65.6740  0.00  0.00     0.000 O
ATOM     69   O  Z9K D   4      14.552  37.038  67.5660  0.00  0.00     0.000 OA
ATOM     70   S  Z9K D   4      15.422  37.140  66.4330  0.00  0.00     0.000 S
ATOM     71   O  Z9K D   4      16.764  36.649  66.3620  0.00  0.00     0.000 OA
ATOM     72   O  Z9K D   4      14.731  36.810  65.2290  0.00  0.00     0.000 OA
ENDBRANCH 61 68
BRANCH 64 73
ATOM     73   C  Z9K D   4      18.135  42.421  68.9540  0.00  0.00     0.000 C
ATOM     74   O  Z9K D   4      18.709  43.284  68.2280  0.00  0.00     0.000 O
ATOM     75   O  Z9K D   4      18.089  42.653  70.1870  0.00  0.00     0.000 OA
ENDBRANCH 64 73
BRANCH 60 76
ATOM     76  O4  Z9L D   5      18.630  38.830  66.8820  0.00  0.00     0.000 O
BRANCH 76 80
ATOM     77  C1  Z9L D   5      22.359  38.258  65.5650  0.00  0.00     0.000 C
ATOM     78  C2  Z9L D   5      22.464  39.119  66.9140  0.00  0.00     0.000 C
ATOM     79  C3  Z9L D   5      20.976  38.969  67.7030  0.00  0.00     0.000 C
ATOM     80  C4  Z9L D   5      19.931  39.112  66.4370  0.00  0.00     0.000 C
ATOM     81  C5  Z9L D   5      19.941  38.423  64.9790  0.00  0.00     0.000 C
ATOM     82  O5  Z9L D   5      21.305  38.438  64.5340  0.00  0.00     0.000 O
ATOM     83   C  Z9L D   5      22.372  35.956  64.7930  0.00  0.00     0.000 C
ATOM     84   C  Z9L D   5      22.372  35.956  64.7930  0.00  0.00     0.000 C
BRANCH 78 85
ATOM     85   O  Z9L D   5      23.460  38.557  67.7080  0.00  0.00     0.000 O
ATOM     86   O  Z9L D   5      25.162  39.374  68.0910  0.00  0.00     0.000 OA
ATOM     87   S  Z9L D   5      24.089  40.000  67.3810  0.00  0.00     0.000 S
ATOM     88   O  Z9L D   5      23.623  41.048  68.2550  0.00  0.00     0.000 OA
ATOM     89   O  Z9L D   5      24.577  40.193  66.0590  0.00  0.00     0.000 OA
ENDBRANCH 78 85
BRANCH 79 90
ATOM     90   O  Z9L D   5      20.688  40.100  68.4620  0.00  0.00     0.000 O
ATOM     91   S  Z9L D   5      20.602  38.987  69.5980  0.00  0.00     0.000 S
ATOM     92   O  Z9L D   5      21.692  38.090  69.8820  0.00  0.00     0.000 OA
ATOM     93   O  Z9L D   5      19.233  38.560  69.7460  0.00  0.00     0.000 O
ATOM     94   O  Z9L D   5      20.776  40.138  70.4230  0.00  0.00     0.000 OA
ENDBRANCH 79 90
BRANCH 81 95
ATOM     95   C  Z9L D   5      18.743  38.888  63.9010  0.00  0.00     0.000 C
ATOM     96   S  Z9L D   5      18.295  40.117  62.3980  0.00  0.00     0.000 S
ATOM     97   O  Z9L D   5      19.152  40.217  63.7160  0.00  0.00     0.000 O
ATOM     98   O  Z9L D   5      16.913  40.118  62.8020  0.00  0.00     0.000 OA
ATOM     99   O  Z9L D   5      18.779  39.210  61.4130  0.00  0.00     0.000 OA
ATOM    100   O  Z9L D   5      18.734  41.485  62.2700  0.00  0.00     0.000 O
ENDBRANCH 81 95
ENDBRANCH 76 80
ENDBRANCH 60 76
ENDBRANCH 59 63
ENDBRANCH 37 59
ENDBRANCH 36 40
ENDBRANCH 23 36
ENDBRANCH 22 26
ENDBRANCH 1 22
TORSDOF 19
ENDMDL
MODEL 55
REMARK VINA RESULT:      -0.5    132.940    137.362
ROOT
ATOM      1  C1  Z9H D   1     131.046  95.980  66.7720  0.00  0.00     0.000 C
ATOM      2  C2  Z9H D   1     132.567  96.110  67.0250  0.00  0.00     0.000 C
ATOM      3  C3  Z9H D   1     132.611  97.638  67.3330  0.00  0.00     0.000 C
ATOM      4  C4  Z9H D   1     131.885  98.566  66.2740  0.00  0.00     0.000 C
ATOM      5  C5  Z9H D   1     130.434  98.272  65.7190  0.00  0.00     0.000 C
ATOM      6  O5  Z9H D   1     130.388  96.825  65.7880  0.00  0.00     0.000 O
ATOM      7   O  Z9H D   1     133.947  98.091  67.5580  0.00  0.00     0.000 O
ATOM      8   C  Z9H D   1     134.333  98.214  68.9370  0.00  0.00     0.000 C
ATOM      9   O  Z9H D   1     131.857  99.873  66.8560  0.00  0.00     0.000 O
ATOM     10   C  Z9H D   1     132.873 100.773  66.4010  0.00  0.00     0.000 C
ENDROOT
BRANCH 2 11
ATOM     11   O  Z9H D   1     132.711  95.481  68.2710  0.00  0.00     0.000 O
ATOM     12   O  Z9H D   1     133.629  93.855  68.5380  0.00  0.00     0.000 OA
ATOM     13   S  Z9H D   1     133.516  94.528  67.2880  0.00  0.00     0.000 S
ATOM     14   O  Z9H D   1     134.715  95.206  66.8840  0.00  0.00     0.000 OA
ATOM     15   O  Z9H D   1     132.633  93.804  66.4030  0.00  0.00     0.000 O
ENDBRANCH 2 11
BRANCH 5 16
ATOM     16   C  Z9H D   1     130.034  99.090  64.3140  0.00  0.00     0.000 C
ATOM     17   S  Z9H D   1     128.548 100.034  63.3450  0.00  0.00     0.000 S
ATOM     18   O  Z9H D   1     129.082  99.966  64.8670  0.00  0.00     0.000 O
ATOM     19   O  Z9H D   1     127.965  98.817  62.8560  0.00  0.00     0.000 O
ATOM     20   O  Z9H D   1     129.400 100.859  62.5620  0.00  0.00     0.000 OA
ATOM     21   O  Z9H D   1     127.575 100.880  63.9720  0.00  0.00     0.000 OA
ENDBRANCH 5 16
BRANCH 1 22
ATOM     22  O4  GU1 D   2     130.199  96.232  67.9510  0.00  0.00     0.000 O
BRANCH 22 26
ATOM     23  C1  GU1 D   2     126.738  95.153  69.9090  0.00  0.00     0.000 C
ATOM     24  C2  GU1 D   2     127.458  94.012  69.2060  0.00  0.00     0.000 C
ATOM     25  C3  GU1 D   2     128.858  94.438  68.8720  0.00  0.00     0.000 C
ATOM     26  C4  GU1 D   2     128.859  95.747  68.0970  0.00  0.00     0.000 C
ATOM     27  C5  GU1 D   2     128.023  96.796  68.8370  0.00  0.00     0.000 C
ATOM     28  O5  GU1 D   2     126.706  96.306  69.0750  0.00  0.00     0.000 O
ATOM     29   O  GU1 D   2     127.529  92.847  70.0190  0.00  0.00     0.000 O
ATOM     30   C  GU1 D   2     126.511  91.894  69.7490  0.00  0.00     0.000 C
ATOM     31   C  GU1 D   2     130.367  92.567  68.7450  0.00  0.00     0.000 C
ATOM     32   O  GU1 D   2     129.457  93.424  68.0590  0.00  0.00     0.000 O
BRANCH 27 33
ATOM     33   C  GU1 D   2     127.905  98.068  68.0320  0.00  0.00     0.000 C
ATOM     34   O  GU1 D   2     127.238  98.050  67.0180  0.00  0.00     0.000 OA
ATOM     35   O  GU1 D   2     128.466  99.089  68.3990  0.00  0.00     0.000 O
ENDBRANCH 27 33
BRANCH 23 36
ATOM     36  O4  GU6 D   3     125.313  95.089  70.1140  0.00  0.00     0.000 O
BRANCH 36 40
ATOM     37  C1  GU6 D   3     121.267  95.535  69.7670  0.00  0.00     0.000 C
ATOM     38  C2  GU6 D   3     121.742  95.289  71.1940  0.00  0.00     0.000 C
ATOM     39  C3  GU6 D   3     123.242  95.411  71.2540  0.00  0.00     0.000 C
ATOM     40  C4  GU6 D   3     123.969  95.508  69.9840  0.00  0.00     0.000 C
ATOM     41  C5  GU6 D   3     123.296  94.575  68.9240  0.00  0.00     0.000 C
ATOM     42  O5  GU6 D   3     121.864  94.568  68.9180  0.00  0.00     0.000 O
BRANCH 38 43
ATOM     43   O  GU6 D   3     121.146  96.214  72.0830  0.00  0.00     0.000 O
ATOM     44   S  GU6 D   3     120.398  95.576  73.2470  0.00  0.00     0.000 S
ATOM     45   O  GU6 D   3     119.060  95.174  72.7800  0.00  0.00     0.000 OA
ATOM     46   O  GU6 D   3     121.143  94.382  73.6870  0.00  0.00     0.000 O
ATOM     47   O  GU6 D   3     120.313  96.542  74.3380  0.00  0.00     0.000 OA
ENDBRANCH 38 43
BRANCH 39 48
ATOM     48   O  GU6 D   3     123.902  95.658  72.4810  0.00  0.00     0.000 O
ATOM     49   S  GU6 D   3     124.413  96.971  73.0730  0.00  0.00     0.000 S
ATOM     50   O  GU6 D   3     123.324  97.953  73.1410  0.00  0.00     0.000 OA
ATOM     51   O  GU6 D   3     124.859  96.579  74.4170  0.00  0.00     0.000 OA
ATOM     52   O  GU6 D   3     125.507  97.488  72.2220  0.00  0.00     0.000 O
ENDBRANCH 39 48
BRANCH 41 53
ATOM     53   C  GU6 D   3     123.944  93.690  67.8930  0.00  0.00     0.000 C
ATOM     54   O  GU6 D   3     124.536  94.701  67.1190  0.00  0.00     0.000 O
ATOM     55   S  GU6 D   3     125.266  94.355  65.8140  0.00  0.00     0.000 S
ATOM     56   O  GU6 D   3     124.241  93.847  64.8730  0.00  0.00     0.000 O
ATOM     57   O  GU6 D   3     125.892  95.578  65.2900  0.00  0.00     0.000 OA
ATOM     58   O  GU6 D   3     126.262  93.308  66.1320  0.00  0.00     0.000 OA
ENDBRANCH 41 53
BRANCH 37 59
ATOM     59  O4  Z9K D   4     121.326  96.804  69.0810  0.00  0.00     0.000 O
BRANCH 59 63
ATOM     60  C1  Z9K D   4     120.207 100.431  68.0630  0.00  0.00     0.000 C
ATOM     61  C2  Z9K D   4     118.943  99.925  68.8110  0.00  0.00     0.000 C
ATOM     62  C3  Z9K D   4     119.465  98.534  69.3780  0.00  0.00     0.000 C
ATOM     63  C4  Z9K D   4     120.274  97.572  68.4270  0.00  0.00     0.000 C
ATOM     64  C5  Z9K D   4     121.030  98.245  67.2710  0.00  0.00     0.000 C
ATOM     65  O5  Z9K D   4     121.393  99.535  67.8310  0.00  0.00     0.000 O
ATOM     66   O  Z9K D   4     118.417  97.715  69.9280  0.00  0.00     0.000 O
ATOM     67   C  Z9K D   4     118.105  97.994  71.2830  0.00  0.00     0.000 C
BRANCH 61 68
ATOM     68   O  Z9K D   4     118.761 100.760  69.9220  0.00  0.00     0.000 O
ATOM     69   O  Z9K D   4     116.517  99.971  68.9790  0.00  0.00     0.000 OA
ATOM     70   S  Z9K D   4     117.432 101.070  69.0490  0.00  0.00     0.000 S
ATOM     71   O  Z9K D   4     117.778 101.940  67.9670  0.00  0.00     0.000 OA
ATOM     72   O  Z9K D   4     117.212 101.842  70.2290  0.00  0.00     0.000 OA
ENDBRANCH 61 68
BRANCH 64 73
ATOM     73   C  Z9K D   4     122.149  97.326  66.7380  0.00  0.00     0.000 C
ATOM     74   O  Z9K D   4     121.881  96.289  66.0650  0.00  0.00     0.000 O
ATOM     75   O  Z9K D   4     123.362  97.574  66.9450  0.00  0.00     0.000 OA
ENDBRANCH 64 73
BRANCH 60 76
ATOM     76  O4  Z9L D   5     120.290 101.065  66.7750  0.00  0.00     0.000 O
BRANCH 76 80
ATOM     77  C1  Z9L D   5     122.092 103.960  64.6900  0.00  0.00     0.000 C
ATOM     78  C2  Z9L D   5     122.531 102.565  64.0330  0.00  0.00     0.000 C
ATOM     79  C3  Z9L D   5     121.440 101.400  64.5920  0.00  0.00     0.000 C
ATOM     80  C4  Z9L D   5     121.310 101.825  66.1790  0.00  0.00     0.000 C
ATOM     81  C5  Z9L D   5     121.097 103.267  66.8690  0.00  0.00     0.000 C
ATOM     82  O5  Z9L D   5     121.931 104.187  66.1490  0.00  0.00     0.000 O
ATOM     83   C  Z9L D   5     120.400 105.689  64.4870  0.00  0.00     0.000 C
ATOM     84   C  Z9L D   5     120.400 105.689  64.4870  0.00  0.00     0.000 C
BRANCH 78 85
ATOM     85   O  Z9L D   5     122.406 102.680  62.6510  0.00  0.00     0.000 O
ATOM     86   O  Z9L D   5     123.876 102.712  61.4060  0.00  0.00     0.000 OA
ATOM     87   S  Z9L D   5     123.991 102.468  62.8120  0.00  0.00     0.000 S
ATOM     88   O  Z9L D   5     124.384 101.085  62.9200  0.00  0.00     0.000 OA
ATOM     89   O  Z9L D   5     124.729 103.571  63.3240  0.00  0.00     0.000 OA
ENDBRANCH 78 85
BRANCH 79 90
ATOM     90   O  Z9L D   5     122.034 100.142  64.6640  0.00  0.00     0.000 O
ATOM     91   S  Z9L D   5     120.832  99.814  63.6730  0.00  0.00     0.000 S
ATOM     92   O  Z9L D   5     120.630 100.532  62.4420  0.00  0.00     0.000 OA
ATOM     93   O  Z9L D   5     119.713  99.310  64.4290  0.00  0.00     0.000 O
ATOM     94   O  Z9L D   5     121.678  98.702  63.3790  0.00  0.00     0.000 OA
ENDBRANCH 79 90
BRANCH 81 95
ATOM     95   C  Z9L D   5     121.104 103.325  68.5460  0.00  0.00     0.000 C
ATOM     96   S  Z9L D   5     122.226 103.664  70.1560  0.00  0.00     0.000 S
ATOM     97   O  Z9L D   5     122.454 103.001  68.7460  0.00  0.00     0.000 O
ATOM     98   O  Z9L D   5     121.419 102.747  70.9200  0.00  0.00     0.000 OA
ATOM     99   O  Z9L D   5     121.951 105.062  70.1460  0.00  0.00     0.000 OA
ATOM    100   O  Z9L D   5     123.610 103.292  70.3110  0.00  0.00     0.000 O
ENDBRANCH 81 95
ENDBRANCH 76 80
ENDBRANCH 60 76
ENDBRANCH 59 63
ENDBRANCH 37 59
ENDBRANCH 36 40
ENDBRANCH 23 36
ENDBRANCH 22 26
ENDBRANCH 1 22
TORSDOF 19
ENDMDL
MODEL 56
REMARK VINA RESULT:      -0.5    116.695    124.648
ROOT
ATOM      1  C1  Z9H D   1      37.176 144.884  70.9870  0.00  0.00     0.000 C
ATOM      2  C2  Z9H D   1      37.801 144.587  72.3710  0.00  0.00     0.000 C
ATOM      3  C3  Z9H D   1      38.943 143.635  71.8980  0.00  0.00     0.000 C
ATOM      4  C4  Z9H D   1      38.490 142.453  70.9440  0.00  0.00     0.000 C
ATOM      5  C5  Z9H D   1      37.549 142.665  69.6920  0.00  0.00     0.000 C
ATOM      6  O5  Z9H D   1      36.749 143.795  70.1220  0.00  0.00     0.000 O
ATOM      7   O  Z9H D   1      39.692 143.123  73.0020  0.00  0.00     0.000 O
ATOM      8   C  Z9H D   1      40.927 143.805  73.2770  0.00  0.00     0.000 C
ATOM      9   O  Z9H D   1      39.699 141.853  70.4680  0.00  0.00     0.000 O
ATOM     10   C  Z9H D   1      40.105 140.660  71.1450  0.00  0.00     0.000 C
ENDROOT
BRANCH 2 11
ATOM     11   O  Z9H D   1      38.439 145.801  72.6700  0.00  0.00     0.000 O
ATOM     12   O  Z9H D   1      37.911 146.960  74.0620  0.00  0.00     0.000 OA
ATOM     13   S  Z9H D   1      37.304 145.703  73.7780  0.00  0.00     0.000 S
ATOM     14   O  Z9H D   1      37.663 144.664  74.7000  0.00  0.00     0.000 OA
ATOM     15   O  Z9H D   1      35.988 145.895  73.2130  0.00  0.00     0.000 O
ENDBRANCH 2 11
BRANCH 5 16
ATOM     16   C  Z9H D   1      36.840 141.273  69.0940  0.00  0.00     0.000 C
ATOM     17   S  Z9H D   1      36.290 140.315  67.4150  0.00  0.00     0.000 S
ATOM     18   O  Z9H D   1      37.560 141.192  67.8880  0.00  0.00     0.000 O
ATOM     19   O  Z9H D   1      35.066 141.051  67.2820  0.00  0.00     0.000 O
ATOM     20   O  Z9H D   1      36.359 139.010  67.9750  0.00  0.00     0.000 OA
ATOM     21   O  Z9H D   1      37.047 140.308  66.1970  0.00  0.00     0.000 OA
ENDBRANCH 5 16
BRANCH 1 22
ATOM     22  O4  GU1 D   2      38.044 145.635  70.0630  0.00  0.00     0.000 O
BRANCH 22 26
ATOM     23  C1  GU1 D   2      38.133 148.478  67.0830  0.00  0.00     0.000 C
ATOM     24  C2  GU1 D   2      37.083 148.711  68.1580  0.00  0.00     0.000 C
ATOM     25  C3  GU1 D   2      37.396 147.858  69.3530  0.00  0.00     0.000 C
ATOM     26  C4  GU1 D   2      37.563 146.400  68.9510  0.00  0.00     0.000 C
ATOM     27  C5  GU1 D   2      38.561 146.286  67.7950  0.00  0.00     0.000 C
ATOM     28  O5  GU1 D   2      38.156 147.107  66.7030  0.00  0.00     0.000 O
ATOM     29   O  GU1 D   2      37.046 150.070  68.5800  0.00  0.00     0.000 O
ATOM     30   C  GU1 D   2      36.042 150.844  67.9380  0.00  0.00     0.000 C
ATOM     31   C  GU1 D   2      36.545 148.810  71.3930  0.00  0.00     0.000 C
ATOM     32   O  GU1 D   2      36.308 147.956  70.2770  0.00  0.00     0.000 O
BRANCH 27 33
ATOM     33   C  GU1 D   2      38.657 144.864  67.2940  0.00  0.00     0.000 C
ATOM     34   O  GU1 D   2      39.678 144.243  67.5100  0.00  0.00     0.000 OA
ATOM     35   O  GU1 D   2      37.726 144.354  66.6910  0.00  0.00     0.000 O
ENDBRANCH 27 33
BRANCH 23 36
ATOM     36  O4  GU6 D   3      37.926 148.988  65.7510  0.00  0.00     0.000 O
BRANCH 36 40
ATOM     37  C1  GU6 D   3      36.975 149.384  61.7970  0.00  0.00     0.000 C
ATOM     38  C2  GU6 D   3      38.044 150.358  62.2770  0.00  0.00     0.000 C
ATOM     39  C3  GU6 D   3      38.513 149.957  63.6510  0.00  0.00     0.000 C
ATOM     40  C4  GU6 D   3      37.759 148.911  64.3500  0.00  0.00     0.000 C
ATOM     41  C5  GU6 D   3      36.231 149.084  64.0580  0.00  0.00     0.000 C
ATOM     42  O5  GU6 D   3      35.888 149.420  62.7080  0.00  0.00     0.000 O
BRANCH 38 43
ATOM     43   O  GU6 D   3      39.137 150.379  61.3800  0.00  0.00     0.000 O
ATOM     44   S  GU6 D   3      39.484 151.761  60.8420  0.00  0.00     0.000 S
ATOM     45   O  GU6 D   3      38.573 152.072  59.7270  0.00  0.00     0.000 OA
ATOM     46   O  GU6 D   3      39.293 152.748  61.9210  0.00  0.00     0.000 O
ATOM     47   O  GU6 D   3      40.877 151.761  60.4060  0.00  0.00     0.000 OA
ENDBRANCH 38 43
BRANCH 39 48
ATOM     48   O  GU6 D   3      39.761 150.398  64.1500  0.00  0.00     0.000 O
ATOM     49   S  GU6 D   3      41.112 149.684  64.1820  0.00  0.00     0.000 S
ATOM     50   O  GU6 D   3      41.490 149.254  62.8310  0.00  0.00     0.000 OA
ATOM     51   O  GU6 D   3      42.024 150.721  64.6840  0.00  0.00     0.000 OA
ATOM     52   O  GU6 D   3      41.013 148.511  65.0780  0.00  0.00     0.000 O
ENDBRANCH 39 48
BRANCH 41 53
ATOM     53   C  GU6 D   3      35.064 148.932  64.9950  0.00  0.00     0.000 C
ATOM     54   O  GU6 D   3      35.201 147.558  65.2490  0.00  0.00     0.000 O
ATOM     55   S  GU6 D   3      34.159 146.815  66.0970  0.00  0.00     0.000 S
ATOM     56   O  GU6 D   3      32.893 146.833  65.3290  0.00  0.00     0.000 O
ATOM     57   O  GU6 D   3      34.622 145.435  66.3040  0.00  0.00     0.000 OA
ATOM     58   O  GU6 D   3      34.021 147.557  67.3700  0.00  0.00     0.000 OA
ENDBRANCH 41 53
BRANCH 37 59
ATOM     59  O4  Z9K D   4      37.207 148.000  61.4600  0.00  0.00     0.000 O
BRANCH 59 63
ATOM     60  C1  Z9K D   4      38.294 144.935  59.2520  0.00  0.00     0.000 C
ATOM     61  C2  Z9K D   4      38.284 146.077  58.1980  0.00  0.00     0.000 C
ATOM     62  C3  Z9K D   4      38.026 147.342  59.1270  0.00  0.00     0.000 C
ATOM     63  C4  Z9K D   4      36.910 147.264  60.2380  0.00  0.00     0.000 C
ATOM     64  C5  Z9K D   4      36.585 145.860  60.7700  0.00  0.00     0.000 C
ATOM     65  O5  Z9K D   4      37.861 145.175  60.6730  0.00  0.00     0.000 O
ATOM     66   O  Z9K D   4      37.727 148.539  58.3870  0.00  0.00     0.000 O
ATOM     67   C  Z9K D   4      38.869 149.261  57.9550  0.00  0.00     0.000 C
BRANCH 61 68
ATOM     68   O  Z9K D   4      39.594 146.203  57.7160  0.00  0.00     0.000 O
ATOM     69   O  Z9K D   4      37.880 146.716  55.8860  0.00  0.00     0.000 OA
ATOM     70   S  Z9K D   4      38.792 145.733  56.3900  0.00  0.00     0.000 S
ATOM     71   O  Z9K D   4      38.546 144.326  56.4680  0.00  0.00     0.000 OA
ATOM     72   O  Z9K D   4      40.110 145.958  55.8890  0.00  0.00     0.000 OA
ENDBRANCH 61 68
BRANCH 64 73
ATOM     73   C  Z9K D   4      35.890 145.942  62.1460  0.00  0.00     0.000 C
ATOM     74   O  Z9K D   4      34.696 146.345  62.2540  0.00  0.00     0.000 O
ATOM     75   O  Z9K D   4      36.476 145.607  63.2040  0.00  0.00     0.000 OA
ENDBRANCH 64 73
BRANCH 60 76
ATOM     76  O4  Z9L D   5      37.688 143.634  59.1670  0.00  0.00     0.000 O
BRANCH 76 80
ATOM     77  C1  Z9L D   5      38.171 139.764  60.0410  0.00  0.00     0.000 C
ATOM     78  C2  Z9L D   5      36.924 140.288  60.9020  0.00  0.00     0.000 C
ATOM     79  C3  Z9L D   5      36.436 141.752  60.2090  0.00  0.00     0.000 C
ATOM     80  C4  Z9L D   5      37.892 142.464  59.9180  0.00  0.00     0.000 C
ATOM     81  C5  Z9L D   5      39.240 141.876  59.2560  0.00  0.00     0.000 C
ATOM     82  O5  Z9L D   5      39.404 140.551  59.7840  0.00  0.00     0.000 O
ATOM     83   C  Z9L D   5      38.683 138.731  57.9050  0.00  0.00     0.000 C
ATOM     84   C  Z9L D   5      38.683 138.731  57.9050  0.00  0.00     0.000 C
BRANCH 78 85
ATOM     85   O  Z9L D   5      35.894 139.360  60.7800  0.00  0.00     0.000 O
ATOM     86   O  Z9L D   5      35.258 138.220  62.1960  0.00  0.00     0.000 OA
ATOM     87   S  Z9L D   5      36.228 139.261  62.3490  0.00  0.00     0.000 S
ATOM     88   O  Z9L D   5      35.574 140.268  63.1470  0.00  0.00     0.000 OA
ATOM     89   O  Z9L D   5      37.437 138.597  62.6980  0.00  0.00     0.000 OA
ENDBRANCH 78 85
BRANCH 79 90
ATOM     90   O  Z9L D   5      35.869 142.598  61.1580  0.00  0.00     0.000 O
ATOM     91   S  Z9L D   5      34.653 142.493  60.1350  0.00  0.00     0.000 S
ATOM     92   O  Z9L D   5      34.080 141.231  59.7470  0.00  0.00     0.000 OA
ATOM     93   O  Z9L D   5      34.711 143.597  59.2100  0.00  0.00     0.000 O
ATOM     94   O  Z9L D   5      33.941 142.945  61.2870  0.00  0.00     0.000 OA
ENDBRANCH 79 90
BRANCH 81 95
ATOM     95   C  Z9L D   5      40.577 142.887  59.2060  0.00  0.00     0.000 C
ATOM     96   S  Z9L D   5      42.265 143.398  60.1320  0.00  0.00     0.000 S
ATOM     97   O  Z9L D   5      40.825 142.951  60.5850  0.00  0.00     0.000 O
ATOM     98   O  Z9L D   5      42.143 144.742  59.6280  0.00  0.00     0.000 OA
ATOM     99   O  Z9L D   5      43.030 142.414  59.4420  0.00  0.00     0.000 OA
ATOM    100   O  Z9L D   5      42.456 143.462  61.5600  0.00  0.00     0.000 O
ENDBRANCH 81 95
ENDBRANCH 76 80
ENDBRANCH 60 76
ENDBRANCH 59 63
ENDBRANCH 37 59
ENDBRANCH 36 40
ENDBRANCH 23 36
ENDBRANCH 22 26
ENDBRANCH 1 22
TORSDOF 19
ENDMDL
MODEL 57
REMARK VINA RESULT:      -0.5     77.762     83.246
ROOT
ATOM      1  C1  Z9H D   1      78.420  52.216  65.8510  0.00  0.00     0.000 C
ATOM      2  C2  Z9H D   1      79.605  51.601  65.0690  0.00  0.00     0.000 C
ATOM      3  C3  Z9H D   1      79.495  50.142  65.6090  0.00  0.00     0.000 C
ATOM      4  C4  Z9H D   1      79.409  50.006  67.1850  0.00  0.00     0.000 C
ATOM      5  C5  Z9H D   1      78.436  50.877  68.0760  0.00  0.00     0.000 C
ATOM      6  O5  Z9H D   1      78.353  52.099  67.3000  0.00  0.00     0.000 O
ATOM      7   O  Z9H D   1      80.538  49.311  65.0950  0.00  0.00     0.000 O
ATOM      8   C  Z9H D   1      80.174  48.491  63.9710  0.00  0.00     0.000 C
ATOM      9   O  Z9H D   1      79.098  48.632  67.4400  0.00  0.00     0.000 O
ATOM     10   C  Z9H D   1      80.208  47.804  67.7970  0.00  0.00     0.000 C
ENDROOT
BRANCH 2 11
ATOM     11   O  Z9H D   1      79.097  51.547  63.7620  0.00  0.00     0.000 O
ATOM     12   O  Z9H D   1      79.740  52.593  62.3300  0.00  0.00     0.000 OA
ATOM     13   S  Z9H D   1      80.279  52.603  63.6490  0.00  0.00     0.000 S
ATOM     14   O  Z9H D   1      81.524  51.900  63.7730  0.00  0.00     0.000 OA
ATOM     15   O  Z9H D   1      79.954  53.842  64.3170  0.00  0.00     0.000 O
ENDBRANCH 2 11
BRANCH 5 16
ATOM     16   C  Z9H D   1      78.805  50.906  69.7080  0.00  0.00     0.000 C
ATOM     17   S  Z9H D   1      78.016  50.946  71.5570  0.00  0.00     0.000 S
ATOM     18   O  Z9H D   1      77.686  50.188  70.1700  0.00  0.00     0.000 O
ATOM     19   O  Z9H D   1      77.796  52.364  71.5350  0.00  0.00     0.000 O
ATOM     20   O  Z9H D   1      79.133  50.341  72.1930  0.00  0.00     0.000 OA
ATOM     21   O  Z9H D   1      76.842  50.227  71.9570  0.00  0.00     0.000 OA
ENDBRANCH 5 16
BRANCH 1 22
ATOM     22  O4  GU1 D   2      77.094  51.690  65.4800  0.00  0.00     0.000 O
BRANCH 22 26
ATOM     23  C1  GU1 D   2      73.113  52.629  64.9950  0.00  0.00     0.000 C
ATOM     24  C2  GU1 D   2      74.082  53.742  64.6250  0.00  0.00     0.000 C
ATOM     25  C3  GU1 D   2      75.462  53.170  64.4750  0.00  0.00     0.000 C
ATOM     26  C4  GU1 D   2      75.861  52.381  65.7130  0.00  0.00     0.000 C
ATOM     27  C5  GU1 D   2      74.772  51.361  66.0590  0.00  0.00     0.000 C
ATOM     28  O5  GU1 D   2      73.512  52.009  66.2110  0.00  0.00     0.000 O
ATOM     29   O  GU1 D   2      73.726  54.372  63.4000  0.00  0.00     0.000 O
ATOM     30   C  GU1 D   2      72.978  55.568  63.5650  0.00  0.00     0.000 C
ATOM     31   C  GU1 D   2      76.817  54.462  62.9630  0.00  0.00     0.000 C
ATOM     32   O  GU1 D   2      76.383  54.251  64.3040  0.00  0.00     0.000 O
BRANCH 27 33
ATOM     33   C  GU1 D   2      75.084  50.646  67.3520  0.00  0.00     0.000 C
ATOM     34   O  GU1 D   2      75.011  51.271  68.3900  0.00  0.00     0.000 OA
ATOM     35   O  GU1 D   2      75.398  49.466  67.3490  0.00  0.00     0.000 O
ENDBRANCH 27 33
BRANCH 23 36
ATOM     36  O4  GU6 D   3      71.779  52.952  65.4340  0.00  0.00     0.000 O
BRANCH 36 40
ATOM     37  C1  GU6 D   3      68.467  53.745  67.6920  0.00  0.00     0.000 C
ATOM     38  C2  GU6 D   3      68.153  53.206  66.3020  0.00  0.00     0.000 C
ATOM     39  C3  GU6 D   3      69.417  52.695  65.6610  0.00  0.00     0.000 C
ATOM     40  C4  GU6 D   3      70.688  52.989  66.3320  0.00  0.00     0.000 C
ATOM     41  C5  GU6 D   3      70.638  54.431  66.9380  0.00  0.00     0.000 C
ATOM     42  O5  GU6 D   3      69.406  54.802  67.5670  0.00  0.00     0.000 O
BRANCH 38 43
ATOM     43   O  GU6 D   3      67.195  52.168  66.3750  0.00  0.00     0.000 O
ATOM     44   S  GU6 D   3      65.959  52.392  65.5140  0.00  0.00     0.000 S
ATOM     45   O  GU6 D   3      65.037  53.283  66.2390  0.00  0.00     0.000 OA
ATOM     46   O  GU6 D   3      66.373  53.035  64.2540  0.00  0.00     0.000 O
ATOM     47   O  GU6 D   3      65.340  51.099  65.2360  0.00  0.00     0.000 OA
ENDBRANCH 38 43
BRANCH 39 48
ATOM     48   O  GU6 D   3      69.367  51.774  64.5890  0.00  0.00     0.000 O
ATOM     49   S  GU6 D   3      69.518  50.253  64.5940  0.00  0.00     0.000 S
ATOM     50   O  GU6 D   3      68.554  49.652  65.5220  0.00  0.00     0.000 OA
ATOM     51   O  GU6 D   3      69.219  49.884  63.2040  0.00  0.00     0.000 OA
ATOM     52   O  GU6 D   3      70.898  49.910  65.0060  0.00  0.00     0.000 O
ENDBRANCH 39 48
BRANCH 41 53
ATOM     53   C  GU6 D   3      71.713  55.484  66.9680  0.00  0.00     0.000 C
ATOM     54   O  GU6 D   3      72.618  54.810  67.8040  0.00  0.00     0.000 O
ATOM     55   S  GU6 D   3      73.903  55.501  68.2770  0.00  0.00     0.000 S
ATOM     56   O  GU6 D   3      73.488  56.618  69.1570  0.00  0.00     0.000 O
ATOM     57   O  GU6 D   3      74.713  54.525  69.0220  0.00  0.00     0.000 OA
ATOM     58   O  GU6 D   3      74.601  56.004  67.0720  0.00  0.00     0.000 OA
ENDBRANCH 41 53
BRANCH 37 59
ATOM     59  O4  Z9K D   4      68.873  52.941  68.8200  0.00  0.00     0.000 O
BRANCH 59 63
ATOM     60  C1  Z9K D   4      68.430  50.550  71.9070  0.00  0.00     0.000 C
ATOM     61  C2  Z9K D   4      66.962  50.992  71.6560  0.00  0.00     0.000 C
ATOM     62  C3  Z9K D   4      67.121  51.808  70.3000  0.00  0.00     0.000 C
ATOM     63  C4  Z9K D   4      68.305  52.838  70.1580  0.00  0.00     0.000 C
ATOM     64  C5  Z9K D   4      69.546  52.562  71.0210  0.00  0.00     0.000 C
ATOM     65  O5  Z9K D   4      69.568  51.113  71.1010  0.00  0.00     0.000 O
ATOM     66   O  Z9K D   4      65.941  52.549  69.9400  0.00  0.00     0.000 O
ATOM     67   C  Z9K D   4      64.977  51.802  69.2170  0.00  0.00     0.000 C
BRANCH 61 68
ATOM     68   O  Z9K D   4      66.234  49.838  71.3370  0.00  0.00     0.000 O
ATOM     69   O  Z9K D   4      64.794  51.513  72.6300  0.00  0.00     0.000 OA
ATOM     70   S  Z9K D   4      65.543  50.296  72.7290  0.00  0.00     0.000 S
ATOM     71   O  Z9K D   4      66.395  49.924  73.8160  0.00  0.00     0.000 OA
ATOM     72   O  Z9K D   4      64.746  49.176  72.3450  0.00  0.00     0.000 OA
ENDBRANCH 61 68
BRANCH 64 73
ATOM     73   C  Z9K D   4      70.782  53.293  70.4550  0.00  0.00     0.000 C
ATOM     74   O  Z9K D   4      70.901  54.549  70.5490  0.00  0.00     0.000 O
ATOM     75   O  Z9K D   4      71.715  52.673  69.8890  0.00  0.00     0.000 OA
ENDBRANCH 64 73
BRANCH 60 76
ATOM     76  O4  Z9L D   5      69.161  50.541  73.1450  0.00  0.00     0.000 O
BRANCH 76 80
ATOM     77  C1  Z9L D   5      71.888  48.560  75.2930  0.00  0.00     0.000 C
ATOM     78  C2  Z9L D   5      72.525  49.986  74.9250  0.00  0.00     0.000 C
ATOM     79  C3  Z9L D   5      71.245  50.977  74.4360  0.00  0.00     0.000 C
ATOM     80  C4  Z9L D   5      70.377  49.935  73.5010  0.00  0.00     0.000 C
ATOM     81  C5  Z9L D   5      69.924  48.410  73.7640  0.00  0.00     0.000 C
ATOM     82  O5  Z9L D   5      71.046  47.754  74.3720  0.00  0.00     0.000 O
ATOM     83   C  Z9L D   5      70.596  47.467  77.0330  0.00  0.00     0.000 C
ATOM     84   C  Z9L D   5      70.596  47.467  77.0330  0.00  0.00     0.000 C
BRANCH 78 85
ATOM     85   O  Z9L D   5      73.096  50.514  76.0790  0.00  0.00     0.000 O
ATOM     86   O  Z9L D   5      74.986  50.736  76.3770  0.00  0.00     0.000 OA
ATOM     87   S  Z9L D   5      74.389  50.312  75.1470  0.00  0.00     0.000 S
ATOM     88   O  Z9L D   5      74.617  51.398  74.2260  0.00  0.00     0.000 OA
ATOM     89   O  Z9L D   5      74.831  48.973  74.9590  0.00  0.00     0.000 OA
ENDBRANCH 78 85
BRANCH 79 90
ATOM     90   O  Z9L D   5      71.667  51.932  73.5140  0.00  0.00     0.000 O
ATOM     91   S  Z9L D   5      71.067  52.890  74.6350  0.00  0.00     0.000 S
ATOM     92   O  Z9L D   5      71.513  52.849  76.0030  0.00  0.00     0.000 OA
ATOM     93   O  Z9L D   5      69.698  53.207  74.3110  0.00  0.00     0.000 O
ATOM     94   O  Z9L D   5      71.891  53.832  73.9500  0.00  0.00     0.000 OA
ENDBRANCH 79 90
BRANCH 81 95
ATOM     95   C  Z9L D   5      69.115  47.623  72.5230  0.00  0.00     0.000 C
ATOM     96   S  Z9L D   5      69.321  46.395  70.9690  0.00  0.00     0.000 S
ATOM     97   O  Z9L D   5      70.179  47.547  71.6130  0.00  0.00     0.000 O
ATOM     98   O  Z9L D   5      68.205  47.026  70.3120  0.00  0.00     0.000 OA
ATOM     99   O  Z9L D   5      69.148  45.230  71.7700  0.00  0.00     0.000 OA
ATOM    100   O  Z9L D   5      70.436  46.374  70.0550  0.00  0.00     0.000 O
ENDBRANCH 81 95
ENDBRANCH 76 80
ENDBRANCH 60 76
ENDBRANCH 59 63
ENDBRANCH 37 59
ENDBRANCH 36 40
ENDBRANCH 23 36
ENDBRANCH 22 26
ENDBRANCH 1 22
TORSDOF 19
ENDMDL
MODEL 58
REMARK VINA RESULT:      -0.5     43.162     49.507
ROOT
ATOM      1  C1  Z9H D   1       4.997  43.084  51.7980  0.00  0.00     0.000 C
ATOM      2  C2  Z9H D   1       3.947  42.468  50.8430  0.00  0.00     0.000 C
ATOM      3  C3  Z9H D   1       2.734  43.365  51.2360  0.00  0.00     0.000 C
ATOM      4  C4  Z9H D   1       2.447  43.476  52.7900  0.00  0.00     0.000 C
ATOM      5  C5  Z9H D   1       3.574  43.769  53.8590  0.00  0.00     0.000 C
ATOM      6  O5  Z9H D   1       4.732  43.170  53.2260  0.00  0.00     0.000 O
ATOM      7   O  Z9H D   1       1.548  42.982  50.5370  0.00  0.00     0.000 O
ATOM      8   C  Z9H D   1       1.235  43.771  49.3760  0.00  0.00     0.000 C
ATOM      9   O  Z9H D   1       1.455  44.499  52.9300  0.00  0.00     0.000 O
ATOM     10   C  Z9H D   1       0.110  44.037  53.0880  0.00  0.00     0.000 C
ENDROOT
BRANCH 2 11
ATOM     11   O  Z9H D   1       4.370  42.950  49.5940  0.00  0.00     0.000 O
ATOM     12   O  Z9H D   1       5.069  41.864  48.2190  0.00  0.00     0.000 OA
ATOM     13   S  Z9H D   1       4.592  41.382  49.4720  0.00  0.00     0.000 S
ATOM     14   O  Z9H D   1       3.307  40.748  49.3990  0.00  0.00     0.000 OA
ATOM     15   O  Z9H D   1       5.695  40.934  50.2920  0.00  0.00     0.000 O
ENDBRANCH 2 11
BRANCH 5 16
ATOM     16   C  Z9H D   1       3.162  43.409  55.4400  0.00  0.00     0.000 C
ATOM     17   S  Z9H D   1       3.336  44.017  57.3480  0.00  0.00     0.000 S
ATOM     18   O  Z9H D   1       3.079  44.729  55.9220  0.00  0.00     0.000 O
ATOM     19   O  Z9H D   1       4.643  43.448  57.5110  0.00  0.00     0.000 O
ATOM     20   O  Z9H D   1       2.147  43.383  57.8010  0.00  0.00     0.000 OA
ATOM     21   O  Z9H D   1       3.290  45.386  57.7740  0.00  0.00     0.000 OA
ENDBRANCH 5 16
BRANCH 1 22
ATOM     22  O4  GU1 D   2       5.351  44.485  51.5070  0.00  0.00     0.000 O
BRANCH 22 26
ATOM     23  C1  GU1 D   2       8.393  47.263  51.5170  0.00  0.00     0.000 C
ATOM     24  C2  GU1 D   2       8.822  45.846  51.1650  0.00  0.00     0.000 C
ATOM     25  C3  GU1 D   2       7.609  45.030  50.8220  0.00  0.00     0.000 C
ATOM     26  C4  GU1 D   2       6.569  45.110  51.9300  0.00  0.00     0.000 C
ATOM     27  C5  GU1 D   2       6.286  46.574  52.2790  0.00  0.00     0.000 C
ATOM     28  O5  GU1 D   2       7.494  47.248  52.6200  0.00  0.00     0.000 O
ATOM     29   O  GU1 D   2       9.706  45.819  50.0510  0.00  0.00     0.000 O
ATOM     30   C  GU1 D   2      11.080  45.762  50.4080  0.00  0.00     0.000 C
ATOM     31   C  GU1 D   2       8.129  43.224  49.3190  0.00  0.00     0.000 C
ATOM     32   O  GU1 D   2       8.011  43.665  50.6690  0.00  0.00     0.000 O
BRANCH 27 33
ATOM     33   C  GU1 D   2       5.347  46.683  53.4570  0.00  0.00     0.000 C
ATOM     34   O  GU1 D   2       4.219  47.087  53.2610  0.00  0.00     0.000 OA
ATOM     35   O  GU1 D   2       5.718  46.368  54.5770  0.00  0.00     0.000 O
ENDBRANCH 27 33
BRANCH 23 36
ATOM     36  O4  GU6 D   3       9.336  48.173  52.1170  0.00  0.00     0.000 O
BRANCH 36 40
ATOM     37  C1  GU6 D   3      11.507  50.403  54.7640  0.00  0.00     0.000 C
ATOM     38  C2  GU6 D   3      11.437  51.000  53.3640  0.00  0.00     0.000 C
ATOM     39  C3  GU6 D   3      10.407  50.261  52.5510  0.00  0.00     0.000 C
ATOM     40  C4  GU6 D   3       9.846  49.030  53.1190  0.00  0.00     0.000 C
ATOM     41  C5  GU6 D   3      10.968  48.243  53.8730  0.00  0.00     0.000 C
ATOM     42  O5  GU6 D   3      11.868  49.035  54.6560  0.00  0.00     0.000 O
BRANCH 38 43
ATOM     43   O  GU6 D   3      11.110  52.375  53.4240  0.00  0.00     0.000 O
ATOM     44   S  GU6 D   3      12.104  53.290  52.7220  0.00  0.00     0.000 S
ATOM     45   O  GU6 D   3      13.242  53.528  53.6270  0.00  0.00     0.000 OA
ATOM     46   O  GU6 D   3      12.583  52.616  51.5010  0.00  0.00     0.000 O
ATOM     47   O  GU6 D   3      11.431  54.537  52.3730  0.00  0.00     0.000 OA
ENDBRANCH 38 43
BRANCH 39 48
ATOM     48   O  GU6 D   3       9.832  50.848  51.3990  0.00  0.00     0.000 O
ATOM     49   S  GU6 D   3       8.502  51.581  51.2320  0.00  0.00     0.000 S
ATOM     50   O  GU6 D   3       8.414  52.694  52.1840  0.00  0.00     0.000 OA
ATOM     51   O  GU6 D   3       8.563  52.070  49.8480  0.00  0.00     0.000 OA
ATOM     52   O  GU6 D   3       7.396  50.626  51.4650  0.00  0.00     0.000 O
ENDBRANCH 39 48
BRANCH 41 53
ATOM     53   C  GU6 D   3      11.228  46.761  53.9040  0.00  0.00     0.000 C
ATOM     54   O  GU6 D   3      10.051  46.374  54.5630  0.00  0.00     0.000 O
ATOM     55   S  GU6 D   3       9.832  44.911  54.9730  0.00  0.00     0.000 S
ATOM     56   O  GU6 D   3      10.847  44.601  56.0070  0.00  0.00     0.000 O
ATOM     57   O  GU6 D   3       8.474  44.776  55.5190  0.00  0.00     0.000 OA
ATOM     58   O  GU6 D   3      10.034  44.082  53.7630  0.00  0.00     0.000 OA
ENDBRANCH 41 53
BRANCH 37 59
ATOM     59  O4  Z9K D   4      10.463  50.495  55.7560  0.00  0.00     0.000 O
BRANCH 59 63
ATOM     60  C1  Z9K D   4       8.307  52.119  58.6130  0.00  0.00     0.000 C
ATOM     61  C2  Z9K D   4       9.511  53.098  58.5510  0.00  0.00     0.000 C
ATOM     62  C3  Z9K D   4      10.284  52.545  57.2760  0.00  0.00     0.000 C
ATOM     63  C4  Z9K D   4      10.504  50.992  57.1260  0.00  0.00     0.000 C
ATOM     64  C5  Z9K D   4       9.477  50.094  57.8320  0.00  0.00     0.000 C
ATOM     65  O5  Z9K D   4       8.258  50.880  57.7610  0.00  0.00     0.000 O
ATOM     66   O  Z9K D   4      11.592  53.121  57.1100  0.00  0.00     0.000 O
ATOM     67   C  Z9K D   4      11.605  54.355  56.4120  0.00  0.00     0.000 C
BRANCH 61 68
ATOM     68   O  Z9K D   4       9.002  54.353  58.1890  0.00  0.00     0.000 O
ATOM     69   O  Z9K D   4      10.999  54.585  59.7730  0.00  0.00     0.000 OA
ATOM     70   S  Z9K D   4       9.571  54.639  59.6780  0.00  0.00     0.000 S
ATOM     71   O  Z9K D   4       8.649  54.114  60.6380  0.00  0.00     0.000 OA
ATOM     72   O  Z9K D   4       9.137  55.933  59.2610  0.00  0.00     0.000 OA
ENDBRANCH 61 68
BRANCH 64 73
ATOM     73   C  Z9K D   4       9.480  48.674  57.2260  0.00  0.00     0.000 C
ATOM     74   O  Z9K D   4      10.439  47.875  57.4340  0.00  0.00     0.000 O
ATOM     75   O  Z9K D   4       8.534  48.257  56.5140  0.00  0.00     0.000 OA
ENDBRANCH 64 73
BRANCH 60 76
ATOM     76  O4  Z9L D   5       7.727  51.486  59.7670  0.00  0.00     0.000 O
BRANCH 76 80
ATOM     77  C1  Z9L D   5       4.293  50.345  61.4640  0.00  0.00     0.000 C
ATOM     78  C2  Z9L D   5       5.129  49.012  61.1510  0.00  0.00     0.000 C
ATOM     79  C3  Z9L D   5       6.726  49.494  60.8740  0.00  0.00     0.000 C
ATOM     80  C4  Z9L D   5       6.495  50.837  59.9490  0.00  0.00     0.000 C
ATOM     81  C5  Z9L D   5       5.487  52.082  60.1310  0.00  0.00     0.000 C
ATOM     82  O5  Z9L D   5       4.237  51.529  60.5690  0.00  0.00     0.000 O
ATOM     83   C  Z9L D   5       3.932  51.971  63.2290  0.00  0.00     0.000 C
ATOM     84   C  Z9L D   5       3.932  51.971  63.2290  0.00  0.00     0.000 C
BRANCH 78 85
ATOM     85   O  Z9L D   5       5.086  48.201  62.2810  0.00  0.00     0.000 O
ATOM     86   O  Z9L D   5       4.149  46.523  62.4050  0.00  0.00     0.000 OA
ATOM     87   S  Z9L D   5       4.299  47.297  61.2110  0.00  0.00     0.000 S
ATOM     88   O  Z9L D   5       5.164  46.514  60.3640  0.00  0.00     0.000 OA
ATOM     89   O  Z9L D   5       2.985  47.719  60.8700  0.00  0.00     0.000 OA
ENDBRANCH 78 85
BRANCH 79 90
ATOM     90   O  Z9L D   5       7.372  48.628  59.9950  0.00  0.00     0.000 O
ATOM     91   S  Z9L D   5       8.346  48.510  61.2500  0.00  0.00     0.000 S
ATOM     92   O  Z9L D   5       7.878  48.122  62.5550  0.00  0.00     0.000 OA
ATOM     93   O  Z9L D   5       9.433  49.446  61.1000  0.00  0.00     0.000 O
ATOM     94   O  Z9L D   5       8.719  47.317  60.5620  0.00  0.00     0.000 OA
ENDBRANCH 79 90
BRANCH 81 95
ATOM     95   C  Z9L D   5       5.467  53.240  58.9170  0.00  0.00     0.000 C
ATOM     96   S  Z9L D   5       4.549  53.836  57.2530  0.00  0.00     0.000 S
ATOM     97   O  Z9L D   5       4.914  52.448  57.9010  0.00  0.00     0.000 O
ATOM     98   O  Z9L D   5       5.781  54.403  56.7680  0.00  0.00     0.000 OA
ATOM     99   O  Z9L D   5       3.601  54.623  57.9680  0.00  0.00     0.000 OA
ATOM    100   O  Z9L D   5       4.013  52.970  56.2320  0.00  0.00     0.000 O
ENDBRANCH 81 95
ENDBRANCH 76 80
ENDBRANCH 60 76
ENDBRANCH 59 63
ENDBRANCH 37 59
ENDBRANCH 36 40
ENDBRANCH 23 36
ENDBRANCH 22 26
ENDBRANCH 1 22
TORSDOF 19
ENDMDL
MODEL 59
REMARK VINA RESULT:      -0.5     82.221     88.740
ROOT
ATOM      1  C1  Z9H D   1      14.116  87.546  77.4290  0.00  0.00     0.000 C
ATOM      2  C2  Z9H D   1      13.420  86.246  77.8980  0.00  0.00     0.000 C
ATOM      3  C3  Z9H D   1      14.699  85.411  78.2130  0.00  0.00     0.000 C
ATOM      4  C4  Z9H D   1      15.787  85.375  77.0620  0.00  0.00     0.000 C
ATOM      5  C5  Z9H D   1      16.285  86.670  76.3030  0.00  0.00     0.000 C
ATOM      6  O5  Z9H D   1      15.104  87.509  76.3620  0.00  0.00     0.000 O
ATOM      7   O  Z9H D   1      14.371  84.083  78.6280  0.00  0.00     0.000 O
ATOM      8   C  Z9H D   1      14.371  83.864  80.0480  0.00  0.00     0.000 C
ATOM      9   O  Z9H D   1      16.941  84.753  77.6370  0.00  0.00     0.000 O
ATOM     10   C  Z9H D   1      17.109  83.365  77.3340  0.00  0.00     0.000 C
ENDROOT
BRANCH 2 11
ATOM     11   O  Z9H D   1      12.911  86.623  79.1510  0.00  0.00     0.000 O
ATOM     12   O  Z9H D   1      11.074  86.786  79.5430  0.00  0.00     0.000 OA
ATOM     13   S  Z9H D   1      11.602  86.359  78.2910  0.00  0.00     0.000 S
ATOM     14   O  Z9H D   1      11.488  84.946  78.0650  0.00  0.00     0.000 OA
ATOM     15   O  Z9H D   1      11.407  87.380  77.2880  0.00  0.00     0.000 O
ENDBRANCH 2 11
BRANCH 5 16
ATOM     16   C  Z9H D   1      17.078  86.383  74.8580  0.00  0.00     0.000 C
ATOM     17   S  Z9H D   1      18.558  87.021  73.6560  0.00  0.00     0.000 S
ATOM     18   O  Z9H D   1      18.354  86.831  75.2470  0.00  0.00     0.000 O
ATOM     19   O  Z9H D   1      17.761  88.058  73.0660  0.00  0.00     0.000 O
ATOM     20   O  Z9H D   1      18.781  85.761  73.0370  0.00  0.00     0.000 OA
ATOM     21   O  Z9H D   1      19.824  87.513  74.1150  0.00  0.00     0.000 OA
ENDBRANCH 5 16
BRANCH 1 22
ATOM     22  O4  GU1 D   2      14.877  88.253  78.4750  0.00  0.00     0.000 O
BRANCH 22 26
ATOM     23  C1  GU1 D   2      16.004  91.947  79.9070  0.00  0.00     0.000 C
ATOM     24  C2  GU1 D   2      14.608  91.893  79.3040  0.00  0.00     0.000 C
ATOM     25  C3  GU1 D   2      14.176  90.461  79.1780  0.00  0.00     0.000 C
ATOM     26  C4  GU1 D   2      15.213  89.644  78.4230  0.00  0.00     0.000 C
ATOM     27  C5  GU1 D   2      16.598  89.849  79.0450  0.00  0.00     0.000 C
ATOM     28  O5  GU1 D   2      16.924  91.236  79.0880  0.00  0.00     0.000 O
ATOM     29   O  GU1 D   2      13.654  92.576  80.1090  0.00  0.00     0.000 O
ATOM     30   C  GU1 D   2      13.395  93.908  79.6870  0.00  0.00     0.000 C
ATOM     31   C  GU1 D   2      11.781  90.229  79.2510  0.00  0.00     0.000 C
ATOM     32   O  GU1 D   2      12.944  90.423  78.4500  0.00  0.00     0.000 O
BRANCH 27 33
ATOM     33   C  GU1 D   2      17.667  89.147  78.2430  0.00  0.00     0.000 C
ATOM     34   O  GU1 D   2      17.961  89.595  77.1540  0.00  0.00     0.000 OA
ATOM     35   O  GU1 D   2      18.223  88.153  78.6860  0.00  0.00     0.000 O
ENDBRANCH 27 33
BRANCH 23 36
ATOM     36  O4  GU6 D   3      16.742  93.185  79.9060  0.00  0.00     0.000 O
BRANCH 36 40
ATOM     37  C1  GU6 D   3      19.287  96.241  78.9710  0.00  0.00     0.000 C
ATOM     38  C2  GU6 D   3      18.928  96.166  80.4490  0.00  0.00     0.000 C
ATOM     39  C3  GU6 D   3      18.219  94.867  80.7310  0.00  0.00     0.000 C
ATOM     40  C4  GU6 D   3      17.812  94.050  79.5830  0.00  0.00     0.000 C
ATOM     41  C5  GU6 D   3      17.320  94.981  78.4270  0.00  0.00     0.000 C
ATOM     42  O5  GU6 D   3      18.091  96.168  78.2100  0.00  0.00     0.000 O
BRANCH 38 43
ATOM     43   O  GU6 D   3      20.090  96.267  81.2500  0.00  0.00     0.000 O
ATOM     44   S  GU6 D   3      20.046  97.383  82.2850  0.00  0.00     0.000 S
ATOM     45   O  GU6 D   3      20.401  98.650  81.6230  0.00  0.00     0.000 OA
ATOM     46   O  GU6 D   3      18.675  97.477  82.8190  0.00  0.00     0.000 O
ATOM     47   O  GU6 D   3      20.980  97.064  83.3600  0.00  0.00     0.000 OA
ENDBRANCH 38 43
BRANCH 39 48
ATOM     48   O  GU6 D   3      18.157  94.344  82.0440  0.00  0.00     0.000 O
ATOM     49   S  GU6 D   3      19.020  93.276  82.7160  0.00  0.00     0.000 S
ATOM     50   O  GU6 D   3      20.438  93.644  82.6310  0.00  0.00     0.000 OA
ATOM     51   O  GU6 D   3      18.549  93.295  84.1080  0.00  0.00     0.000 OA
ATOM     52   O  GU6 D   3      18.791  91.979  82.0410  0.00  0.00     0.000 O
ENDBRANCH 39 48
BRANCH 41 53
ATOM     53   C  GU6 D   3      16.153  94.798  77.4940  0.00  0.00     0.000 C
ATOM     54   O  GU6 D   3      16.629  93.665  76.8140  0.00  0.00     0.000 O
ATOM     55   S  GU6 D   3      15.851  93.089  75.6230  0.00  0.00     0.000 S
ATOM     56   O  GU6 D   3      15.904  94.105  74.5460  0.00  0.00     0.000 O
ATOM     57   O  GU6 D   3      16.504  91.843  75.1960  0.00  0.00     0.000 OA
ATOM     58   O  GU6 D   3      14.459  92.865  76.0750  0.00  0.00     0.000 OA
ENDBRANCH 41 53
BRANCH 37 59
ATOM     59  O4  Z9K D   4      20.266  95.410  78.3130  0.00  0.00     0.000 O
BRANCH 59 63
ATOM     60  C1  Z9K D   4      23.836  94.220  77.1780  0.00  0.00     0.000 C
ATOM     61  C2  Z9K D   4      24.151  95.641  77.7230  0.00  0.00     0.000 C
ATOM     62  C3  Z9K D   4      22.745  96.043  78.3470  0.00  0.00     0.000 C
ATOM     63  C4  Z9K D   4      21.432  95.774  77.5170  0.00  0.00     0.000 C
ATOM     64  C5  Z9K D   4      21.502  94.630  76.4950  0.00  0.00     0.000 C
ATOM     65  O5  Z9K D   4      22.427  93.698  77.1170  0.00  0.00     0.000 O
ATOM     66   O  Z9K D   4      22.665  97.429  78.7240  0.00  0.00     0.000 O
ATOM     67   C  Z9K D   4      23.167  97.713  80.0200  0.00  0.00     0.000 C
BRANCH 61 68
ATOM     68   O  Z9K D   4      25.029  95.482  78.8030  0.00  0.00     0.000 O
ATOM     69   O  Z9K D   4      25.517  97.644  77.5250  0.00  0.00     0.000 OA
ATOM     70   S  Z9K D   4      25.945  96.296  77.7440  0.00  0.00     0.000 S
ATOM     71   O  Z9K D   4      26.408  95.391  76.7360  0.00  0.00     0.000 OA
ATOM     72   O  Z9K D   4      26.798  96.211  78.8860  0.00  0.00     0.000 OA
ENDBRANCH 61 68
BRANCH 64 73
ATOM     73   C  Z9K D   4      20.088  94.135  76.1250  0.00  0.00     0.000 C
ATOM     74   O  Z9K D   4      19.318  94.832  75.4020  0.00  0.00     0.000 O
ATOM     75   O  Z9K D   4      19.651  93.027  76.5190  0.00  0.00     0.000 OA
ENDBRANCH 64 73
BRANCH 60 76
ATOM     76  O4  Z9L D   5      24.228  93.636  75.9240  0.00  0.00     0.000 O
BRANCH 76 80
ATOM     77  C1  Z9L D   5      25.382  90.254  74.1350  0.00  0.00     0.000 C
ATOM     78  C2  Z9L D   5      23.963  90.657  73.5070  0.00  0.00     0.000 C
ATOM     79  C3  Z9L D   5      23.698  92.280  73.9050  0.00  0.00     0.000 C
ATOM     80  C4  Z9L D   5      24.206  92.307  75.4720  0.00  0.00     0.000 C
ATOM     81  C5  Z9L D   5      25.531  91.699  76.1620  0.00  0.00     0.000 C
ATOM     82  O5  Z9L D   5      25.741  90.410  75.5680  0.00  0.00     0.000 O
ATOM     83   C  Z9L D   5      27.762  90.559  73.7630  0.00  0.00     0.000 C
ATOM     84   C  Z9L D   5      27.762  90.559  73.7630  0.00  0.00     0.000 C
BRANCH 78 85
ATOM     85   O  Z9L D   5      24.053  90.536  72.1230  0.00  0.00     0.000 O
ATOM     86   O  Z9L D   5      23.136  89.213  71.0660  0.00  0.00     0.000 OA
ATOM     87   S  Z9L D   5      22.950  89.420  72.4700  0.00  0.00     0.000 S
ATOM     88   O  Z9L D   5      21.612  89.945  72.5960  0.00  0.00     0.000 OA
ATOM     89   O  Z9L D   5      23.424  88.232  73.0900  0.00  0.00     0.000 OA
ENDBRANCH 78 85
BRANCH 79 90
ATOM     90   O  Z9L D   5      22.340  92.558  74.0230  0.00  0.00     0.000 O
ATOM     91   S  Z9L D   5      22.733  93.617  72.9000  0.00  0.00     0.000 S
ATOM     92   O  Z9L D   5      23.366  93.233  71.6660  0.00  0.00     0.000 OA
ATOM     93   O  Z9L D   5      23.029  94.884  73.5220  0.00  0.00     0.000 O
ATOM     94   O  Z9L D   5      21.323  93.573  72.6840  0.00  0.00     0.000 OA
ENDBRANCH 79 90
BRANCH 81 95
ATOM     95   C  Z9L D   5      25.667  91.844  77.8270  0.00  0.00     0.000 C
ATOM     96   S  Z9L D   5      25.349  90.933  79.5700  0.00  0.00     0.000 S
ATOM     97   O  Z9L D   5      24.606  90.999  78.1830  0.00  0.00     0.000 O
ATOM     98   O  Z9L D   5      25.150  92.208  80.2090  0.00  0.00     0.000 OA
ATOM     99   O  Z9L D   5      26.626  90.301  79.5580  0.00  0.00     0.000 OA
ATOM    100   O  Z9L D   5      24.226  90.085  79.8840  0.00  0.00     0.000 O
ENDBRANCH 81 95
ENDBRANCH 76 80
ENDBRANCH 60 76
ENDBRANCH 59 63
ENDBRANCH 37 59
ENDBRANCH 36 40
ENDBRANCH 23 36
ENDBRANCH 22 26
ENDBRANCH 1 22
TORSDOF 19
ENDMDL
MODEL 60
REMARK VINA RESULT:      -0.5    159.257    164.973
ROOT
ATOM      1  C1  Z9H D   1     113.516 126.268 111.3920  0.00  0.00     0.000 C
ATOM      2  C2  Z9H D   1     113.759 124.827 111.9030  0.00  0.00     0.000 C
ATOM      3  C3  Z9H D   1     112.498 124.155 111.2770  0.00  0.00     0.000 C
ATOM      4  C4  Z9H D   1     111.124 124.892 111.5580  0.00  0.00     0.000 C
ATOM      5  C5  Z9H D   1     110.927 126.450 111.3760  0.00  0.00     0.000 C
ATOM      6  O5  Z9H D   1     112.258 126.945 111.6660  0.00  0.00     0.000 O
ATOM      7   O  Z9H D   1     112.405 122.775 111.6360  0.00  0.00     0.000 O
ATOM      8   C  Z9H D   1     112.889 121.847 110.6510  0.00  0.00     0.000 C
ATOM      9   O  Z9H D   1     110.157 124.243 110.7260  0.00  0.00     0.000 O
ATOM     10   C  Z9H D   1     109.342 123.263 111.3760  0.00  0.00     0.000 C
ENDROOT
BRANCH 2 11
ATOM     11   O  Z9H D   1     114.832 124.410 111.1010  0.00  0.00     0.000 O
ATOM     12   O  Z9H D   1     116.574 124.083 111.7480  0.00  0.00     0.000 OA
ATOM     13   S  Z9H D   1     115.464 124.460 112.5570  0.00  0.00     0.000 S
ATOM     14   O  Z9H D   1     114.913 123.380 113.3260  0.00  0.00     0.000 OA
ATOM     15   O  Z9H D   1     115.621 125.818 113.0250  0.00  0.00     0.000 O
ENDBRANCH 2 11
BRANCH 5 16
ATOM     16   C  Z9H D   1     109.577 127.087 112.1340  0.00  0.00     0.000 C
ATOM     17   S  Z9H D   1     108.130 128.475 111.9910  0.00  0.00     0.000 S
ATOM     18   O  Z9H D   1     108.863 127.452 110.9780  0.00  0.00     0.000 O
ATOM     19   O  Z9H D   1     108.964 129.532 112.4860  0.00  0.00     0.000 O
ATOM     20   O  Z9H D   1     107.193 127.776 112.7990  0.00  0.00     0.000 OA
ATOM     21   O  Z9H D   1     107.470 128.839 110.7720  0.00  0.00     0.000 OA
ENDBRANCH 5 16
BRANCH 1 22
ATOM     22  O4  GU1 D   2     113.593 126.427 109.9290  0.00  0.00     0.000 O
BRANCH 22 26
ATOM     23  C1  GU1 D   2     114.704 128.957 106.8740  0.00  0.00     0.000 C
ATOM     24  C2  GU1 D   2     115.574 129.037 108.1190  0.00  0.00     0.000 C
ATOM     25  C3  GU1 D   2     115.321 127.834 108.9810  0.00  0.00     0.000 C
ATOM     26  C4  GU1 D   2     113.835 127.675 109.2680  0.00  0.00     0.000 C
ATOM     27  C5  GU1 D   2     113.040 127.712 107.9590  0.00  0.00     0.000 C
ATOM     28  O5  GU1 D   2     113.328 128.904 107.2350  0.00  0.00     0.000 O
ATOM     29   O  GU1 D   2     116.960 129.069 107.7980  0.00  0.00     0.000 O
ATOM     30   C  GU1 D   2     117.512 130.378 107.7650  0.00  0.00     0.000 C
ATOM     31   C  GU1 D   2     117.226 127.280 110.3430  0.00  0.00     0.000 C
ATOM     32   O  GU1 D   2     116.010 128.014 110.2220  0.00  0.00     0.000 O
BRANCH 27 33
ATOM     33   C  GU1 D   2     111.554 127.677 108.2210  0.00  0.00     0.000 C
ATOM     34   O  GU1 D   2     111.028 128.661 108.7000  0.00  0.00     0.000 OA
ATOM     35   O  GU1 D   2     110.899 126.682 107.9520  0.00  0.00     0.000 O
ENDBRANCH 27 33
BRANCH 23 36
ATOM     36  O4  GU6 D   3     114.577 130.103 106.0080  0.00  0.00     0.000 O
BRANCH 36 40
ATOM     37  C1  GU6 D   3     113.287 133.515 104.1680  0.00  0.00     0.000 C
ATOM     38  C2  GU6 D   3     114.164 132.632 103.2890  0.00  0.00     0.000 C
ATOM     39  C3  GU6 D   3     114.357 131.293 103.9520  0.00  0.00     0.000 C
ATOM     40  C4  GU6 D   3     113.900 131.147 105.3380  0.00  0.00     0.000 C
ATOM     41  C5  GU6 D   3     114.192 132.466 106.1270  0.00  0.00     0.000 C
ATOM     42  O5  GU6 D   3     113.930 133.685 105.4220  0.00  0.00     0.000 O
BRANCH 38 43
ATOM     43   O  GU6 D   3     113.576 132.459 102.0140  0.00  0.00     0.000 O
ATOM     44   S  GU6 D   3     114.474 132.853 100.8490  0.00  0.00     0.000 S
ATOM     45   O  GU6 D   3     114.403 134.314 100.6750  0.00  0.00     0.000 OA
ATOM     46   O  GU6 D   3     115.859 132.464 101.1700  0.00  0.00     0.000 O
ATOM     47   O  GU6 D   3     114.022 132.153  99.6500  0.00  0.00     0.000 OA
ENDBRANCH 38 43
BRANCH 39 48
ATOM     48   O  GU6 D   3     114.745 130.159 103.2000  0.00  0.00     0.000 O
ATOM     49   S  GU6 D   3     113.896 129.028 102.6210  0.00  0.00     0.000 S
ATOM     50   O  GU6 D   3     112.835 129.577 101.7690  0.00  0.00     0.000 OA
ATOM     51   O  GU6 D   3     114.864 128.255 101.8330  0.00  0.00     0.000 OA
ATOM     52   O  GU6 D   3     113.301 128.257 103.7360  0.00  0.00     0.000 O
ENDBRANCH 39 48
BRANCH 41 53
ATOM     53   C  GU6 D   3     114.697 132.637 107.5340  0.00  0.00     0.000 C
ATOM     54   O  GU6 D   3     113.591 132.087 108.2020  0.00  0.00     0.000 O
ATOM     55   S  GU6 D   3     113.519 132.108 109.7340  0.00  0.00     0.000 S
ATOM     56   O  GU6 D   3     113.411 133.529 110.1380  0.00  0.00     0.000 O
ATOM     57   O  GU6 D   3     112.328 131.356 110.1570  0.00  0.00     0.000 OA
ATOM     58   O  GU6 D   3     114.771 131.504 110.2420  0.00  0.00     0.000 OA
ENDBRANCH 41 53
BRANCH 37 59
ATOM     59  O4  Z9K D   4     111.886 133.292 104.4310  0.00  0.00     0.000 O
BRANCH 59 63
ATOM     60  C1  Z9K D   4     108.014 133.371 103.7620  0.00  0.00     0.000 C
ATOM     61  C2  Z9K D   4     108.531 134.322 102.6480  0.00  0.00     0.000 C
ATOM     62  C3  Z9K D   4     110.104 134.143 102.8050  0.00  0.00     0.000 C
ATOM     63  C4  Z9K D   4     110.740 134.173 104.2460  0.00  0.00     0.000 C
ATOM     64  C5  Z9K D   4     109.815 133.757 105.4010  0.00  0.00     0.000 C
ATOM     65  O5  Z9K D   4     108.947 132.773 104.7790  0.00  0.00     0.000 O
ATOM     66   O  Z9K D   4     110.864 135.100 102.0450  0.00  0.00     0.000 O
ATOM     67   C  Z9K D   4     111.094 134.728 100.6960  0.00  0.00     0.000 C
BRANCH 61 68
ATOM     68   O  Z9K D   4     108.190 133.741 101.4190  0.00  0.00     0.000 O
ATOM     69   O  Z9K D   4     108.109 136.296 101.2890  0.00  0.00     0.000 OA
ATOM     70   S  Z9K D   4     107.319 135.107 101.3980  0.00  0.00     0.000 S
ATOM     71   O  Z9K D   4     106.170 134.940 102.2340  0.00  0.00     0.000 OA
ATOM     72   O  Z9K D   4     107.053 134.553 100.1090  0.00  0.00     0.000 OA
ENDBRANCH 61 68
BRANCH 64 73
ATOM     73   C  Z9K D   4     110.637 133.343 106.6400  0.00  0.00     0.000 C
ATOM     74   O  Z9K D   4     110.725 132.131 106.9930  0.00  0.00     0.000 O
ATOM     75   O  Z9K D   4     111.251 134.187 107.3380  0.00  0.00     0.000 OA
ENDBRANCH 64 73
BRANCH 60 76
ATOM     76  O4  Z9L D   5     106.947 133.590 104.7010  0.00  0.00     0.000 O
BRANCH 76 80
ATOM     77  C1  Z9L D   5     103.968 131.812 106.6850  0.00  0.00     0.000 C
ATOM     78  C2  Z9L D   5     105.012 132.342 107.7810  0.00  0.00     0.000 C
ATOM     79  C3  Z9L D   5     106.005 133.468 107.0020  0.00  0.00     0.000 C
ATOM     80  C4  Z9L D   5     106.276 132.710 105.5640  0.00  0.00     0.000 C
ATOM     81  C5  Z9L D   5     105.260 131.966 104.5570  0.00  0.00     0.000 C
ATOM     82  O5  Z9L D   5     104.351 131.218 105.3790  0.00  0.00     0.000 O
ATOM     83   C  Z9L D   5     101.966 132.506 105.5000  0.00  0.00     0.000 C
ATOM     84   C  Z9L D   5     101.966 132.506 105.5000  0.00  0.00     0.000 C
BRANCH 78 85
ATOM     85   O  Z9L D   5     104.294 132.985 108.7850  0.00  0.00     0.000 O
ATOM     86   O  Z9L D   5     104.106 132.346 110.5930  0.00  0.00     0.000 OA
ATOM     87   S  Z9L D   5     104.944 131.756 109.5930  0.00  0.00     0.000 S
ATOM     88   O  Z9L D   5     106.292 132.003 110.0410  0.00  0.00     0.000 OA
ATOM     89   O  Z9L D   5     104.386 130.471 109.3470  0.00  0.00     0.000 OA
ENDBRANCH 78 85
BRANCH 79 90
ATOM     90   O  Z9L D   5     107.275 133.503 107.5700  0.00  0.00     0.000 O
ATOM     91   S  Z9L D   5     106.864 135.032 107.7420  0.00  0.00     0.000 S
ATOM     92   O  Z9L D   5     105.668 135.435 108.4340  0.00  0.00     0.000 OA
ATOM     93   O  Z9L D   5     107.363 135.790 106.6210  0.00  0.00     0.000 O
ATOM     94   O  Z9L D   5     107.912 134.970 108.7090  0.00  0.00     0.000 OA
ENDBRANCH 79 90
BRANCH 81 95
ATOM     95   C  Z9L D   5     105.923 131.216 103.2110  0.00  0.00     0.000 C
ATOM     96   S  Z9L D   5     106.577 129.487 102.4700  0.00  0.00     0.000 S
ATOM     97   O  Z9L D   5     106.611 130.192 103.8780  0.00  0.00     0.000 O
ATOM     98   O  Z9L D   5     107.511 130.192 101.6300  0.00  0.00     0.000 OA
ATOM     99   O  Z9L D   5     105.287 129.116 101.9950  0.00  0.00     0.000 OA
ATOM    100   O  Z9L D   5     107.297 128.475 103.2040  0.00  0.00     0.000 O
ENDBRANCH 81 95
ENDBRANCH 76 80
ENDBRANCH 60 76
ENDBRANCH 59 63
ENDBRANCH 37 59
ENDBRANCH 36 40
ENDBRANCH 23 36
ENDBRANCH 22 26
ENDBRANCH 1 22
TORSDOF 19
ENDMDL
MODEL 61
REMARK VINA RESULT:      -0.5     69.357     75.220
ROOT
ATOM      1  C1  Z9H D   1       9.172  49.496  76.4060  0.00  0.00     0.000 C
ATOM      2  C2  Z9H D   1       9.446  48.606  75.1710  0.00  0.00     0.000 C
ATOM      3  C3  Z9H D   1      10.908  49.067  74.8850  0.00  0.00     0.000 C
ATOM      4  C4  Z9H D   1      11.126  50.635  74.8170  0.00  0.00     0.000 C
ATOM      5  C5  Z9H D   1      10.554  51.635  75.9000  0.00  0.00     0.000 C
ATOM      6  O5  Z9H D   1       9.359  50.937  76.3330  0.00  0.00     0.000 O
ATOM      7   O  Z9H D   1      11.439  48.440  73.7160  0.00  0.00     0.000 O
ATOM      8   C  Z9H D   1      12.277  47.297  73.9560  0.00  0.00     0.000 C
ATOM      9   O  Z9H D   1      12.543  50.830  74.7680  0.00  0.00     0.000 O
ATOM     10   C  Z9H D   1      13.089  51.067  73.4670  0.00  0.00     0.000 C
ENDROOT
BRANCH 2 11
ATOM     11   O  Z9H D   1       9.570  47.333  75.7490  0.00  0.00     0.000 O
ATOM     12   O  Z9H D   1       8.353  45.919  75.4690  0.00  0.00     0.000 OA
ATOM     13   S  Z9H D   1       8.266  47.200  74.8510  0.00  0.00     0.000 S
ATOM     14   O  Z9H D   1       8.665  47.207  73.4730  0.00  0.00     0.000 OA
ATOM     15   O  Z9H D   1       7.160  47.950  75.4000  0.00  0.00     0.000 O
ENDBRANCH 2 11
BRANCH 5 16
ATOM     16   C  Z9H D   1      10.503  53.239  75.4270  0.00  0.00     0.000 C
ATOM     17   S  Z9H D   1      10.750  55.132  76.0550  0.00  0.00     0.000 S
ATOM     18   O  Z9H D   1      11.507  53.725  76.2850  0.00  0.00     0.000 O
ATOM     19   O  Z9H D   1       9.440  55.213  76.6320  0.00  0.00     0.000 O
ATOM     20   O  Z9H D   1      11.072  55.658  74.7740  0.00  0.00     0.000 OA
ATOM     21   O  Z9H D   1      11.767  55.560  76.9710  0.00  0.00     0.000 OA
ENDBRANCH 5 16
BRANCH 1 22
ATOM     22  O4  GU1 D   2       9.989  49.180  77.5910  0.00  0.00     0.000 O
BRANCH 22 26
ATOM     23  C1  GU1 D   2      10.027  48.984  81.7050  0.00  0.00     0.000 C
ATOM     24  C2  GU1 D   2       8.702  48.608  81.0590  0.00  0.00     0.000 C
ATOM     25  C3  GU1 D   2       8.919  48.347  79.5970  0.00  0.00     0.000 C
ATOM     26  C4  GU1 D   2       9.625  49.520  78.9340  0.00  0.00     0.000 C
ATOM     27  C5  GU1 D   2      10.888  49.885  79.7200  0.00  0.00     0.000 C
ATOM     28  O5  GU1 D   2      10.568  50.144  81.0840  0.00  0.00     0.000 O
ATOM     29   O  GU1 D   2       8.140  47.438  81.6410  0.00  0.00     0.000 O
ATOM     30   C  GU1 D   2       7.166  47.703  82.6400  0.00  0.00     0.000 C
ATOM     31   C  GU1 D   2       7.292  46.816  78.7000  0.00  0.00     0.000 C
ATOM     32   O  GU1 D   2       7.642  48.170  78.9750  0.00  0.00     0.000 O
BRANCH 27 33
ATOM     33   C  GU1 D   2      11.544  51.122  79.1550  0.00  0.00     0.000 C
ATOM     34   O  GU1 D   2      12.607  51.001  78.5800  0.00  0.00     0.000 OA
ATOM     35   O  GU1 D   2      11.014  52.216  79.2730  0.00  0.00     0.000 O
ENDBRANCH 27 33
BRANCH 23 36
ATOM     36  O4  GU6 D   3      10.050  49.519  83.0440  0.00  0.00     0.000 O
BRANCH 36 40
ATOM     37  C1  GU6 D   3      10.151  52.013  86.2790  0.00  0.00     0.000 C
ATOM     38  C2  GU6 D   3      10.699  50.618  86.5550  0.00  0.00     0.000 C
ATOM     39  C3  GU6 D   3      10.871  49.877  85.2550  0.00  0.00     0.000 C
ATOM     40  C4  GU6 D   3      10.306  50.483  84.0450  0.00  0.00     0.000 C
ATOM     41  C5  GU6 D   3       8.940  51.164  84.3900  0.00  0.00     0.000 C
ATOM     42  O5  GU6 D   3       8.897  51.885  85.6270  0.00  0.00     0.000 O
BRANCH 38 43
ATOM     43   O  GU6 D   3      11.938  50.696  87.2340  0.00  0.00     0.000 O
ATOM     44   S  GU6 D   3      11.985  49.927  88.5480  0.00  0.00     0.000 S
ATOM     45   O  GU6 D   3      11.366  50.755  89.5970  0.00  0.00     0.000 OA
ATOM     46   O  GU6 D   3      11.216  48.679  88.3900  0.00  0.00     0.000 O
ATOM     47   O  GU6 D   3      13.377  49.620  88.8630  0.00  0.00     0.000 OA
ENDBRANCH 38 43
BRANCH 39 48
ATOM     48   O  GU6 D   3      11.739  48.763  85.1630  0.00  0.00     0.000 O
ATOM     49   S  GU6 D   3      13.178  48.681  84.6560  0.00  0.00     0.000 S
ATOM     50   O  GU6 D   3      14.025  49.635  85.3820  0.00  0.00     0.000 OA
ATOM     51   O  GU6 D   3      13.559  47.295  84.9590  0.00  0.00     0.000 OA
ATOM     52   O  GU6 D   3      13.195  48.989  83.2090  0.00  0.00     0.000 O
ENDBRANCH 39 48
BRANCH 41 53
ATOM     53   C  GU6 D   3       7.663  51.182  83.5950  0.00  0.00     0.000 C
ATOM     54   O  GU6 D   3       8.134  51.916  82.4940  0.00  0.00     0.000 O
ATOM     55   S  GU6 D   3       7.175  52.342  81.3750  0.00  0.00     0.000 S
ATOM     56   O  GU6 D   3       6.225  53.310  81.9700  0.00  0.00     0.000 O
ATOM     57   O  GU6 D   3       7.957  52.973  80.3020  0.00  0.00     0.000 OA
ATOM     58   O  GU6 D   3       6.472  51.124  80.9120  0.00  0.00     0.000 OA
ENDBRANCH 41 53
BRANCH 37 59
ATOM     59  O4  Z9K D   4      10.874  53.071  85.6150  0.00  0.00     0.000 O
BRANCH 59 63
ATOM     60  C1  Z9K D   4      13.403  56.057  85.2440  0.00  0.00     0.000 C
ATOM     61  C2  Z9K D   4      13.332  55.913  86.7890  0.00  0.00     0.000 C
ATOM     62  C3  Z9K D   4      12.457  54.592  86.9290  0.00  0.00     0.000 C
ATOM     63  C4  Z9K D   4      11.160  54.433  86.0470  0.00  0.00     0.000 C
ATOM     64  C5  Z9K D   4      11.147  55.208  84.7210  0.00  0.00     0.000 C
ATOM     65  O5  Z9K D   4      12.548  55.214  84.3370  0.00  0.00     0.000 O
ATOM     66   O  Z9K D   4      12.021  54.339  88.2770  0.00  0.00     0.000 O
ATOM     67   C  Z9K D   4      12.960  53.636  89.0740  0.00  0.00     0.000 C
BRANCH 61 68
ATOM     68   O  Z9K D   4      14.620  55.580  87.2310  0.00  0.00     0.000 O
ATOM     69   O  Z9K D   4      13.394  57.023  88.9530  0.00  0.00     0.000 OA
ATOM     70   S  Z9K D   4      14.391  57.026  87.9240  0.00  0.00     0.000 S
ATOM     71   O  Z9K D   4      14.574  58.049  86.9410  0.00  0.00     0.000 OA
ATOM     72   O  Z9K D   4      15.661  56.634  88.4440  0.00  0.00     0.000 OA
ENDBRANCH 61 68
BRANCH 64 73
ATOM     73   C  Z9K D   4      10.113  54.608  83.7440  0.00  0.00     0.000 C
ATOM     74   O  Z9K D   4       8.871  54.760  83.9300  0.00  0.00     0.000 O
ATOM     75   O  Z9K D   4      10.462  53.956  82.7300  0.00  0.00     0.000 OA
ENDBRANCH 64 73
BRANCH 60 76
ATOM     76  O4  Z9L D   5      13.270  57.248  84.4500  0.00  0.00     0.000 O
BRANCH 76 80
ATOM     77  C1  Z9L D   5      14.642  59.183  81.2330  0.00  0.00     0.000 C
ATOM     78  C2  Z9L D   5      13.113  58.802  80.9350  0.00  0.00     0.000 C
ATOM     79  C3  Z9L D   5      12.411  58.412  82.4240  0.00  0.00     0.000 C
ATOM     80  C4  Z9L D   5      13.608  57.515  83.1130  0.00  0.00     0.000 C
ATOM     81  C5  Z9L D   5      15.196  57.778  83.2180  0.00  0.00     0.000 C
ATOM     82  O5  Z9L D   5      15.603  58.303  81.9450  0.00  0.00     0.000 O
ATOM     83   C  Z9L D   5      15.991  60.981  82.1500  0.00  0.00     0.000 C
ATOM     84   C  Z9L D   5      15.991  60.981  82.1500  0.00  0.00     0.000 C
BRANCH 78 85
ATOM     85   O  Z9L D   5      12.481  59.927  80.4140  0.00  0.00     0.000 O
ATOM     86   O  Z9L D   5      11.849  60.101  78.6020  0.00  0.00     0.000 OA
ATOM     87   S  Z9L D   5      12.384  58.905  79.1770  0.00  0.00     0.000 S
ATOM     88   O  Z9L D   5      11.267  57.997  79.2600  0.00  0.00     0.000 OA
ATOM     89   O  Z9L D   5      13.590  58.655  78.4660  0.00  0.00     0.000 OA
ENDBRANCH 78 85
BRANCH 79 90
ATOM     90   O  Z9L D   5      11.385  57.483  82.2740  0.00  0.00     0.000 O
ATOM     91   S  Z9L D   5      10.575  58.665  82.9680  0.00  0.00     0.000 S
ATOM     92   O  Z9L D   5      10.533  59.996  82.4220  0.00  0.00     0.000 OA
ATOM     93   O  Z9L D   5      10.540  58.447  84.3930  0.00  0.00     0.000 O
ATOM     94   O  Z9L D   5       9.481  57.943  82.4050  0.00  0.00     0.000 OA
ENDBRANCH 79 90
BRANCH 81 95
ATOM     95   C  Z9L D   5      16.130  56.577  83.9230  0.00  0.00     0.000 C
ATOM     96   S  Z9L D   5      17.250  54.969  83.5680  0.00  0.00     0.000 S
ATOM     97   O  Z9L D   5      15.940  55.585  82.9500  0.00  0.00     0.000 O
ATOM     98   O  Z9L D   5      16.888  54.424  84.8510  0.00  0.00     0.000 OA
ATOM     99   O  Z9L D   5      18.436  55.740  83.3990  0.00  0.00     0.000 OA
ATOM    100   O  Z9L D   5      16.994  53.971  82.5590  0.00  0.00     0.000 O
ENDBRANCH 81 95
ENDBRANCH 76 80
ENDBRANCH 60 76
ENDBRANCH 59 63
ENDBRANCH 37 59
ENDBRANCH 36 40
ENDBRANCH 23 36
ENDBRANCH 22 26
ENDBRANCH 1 22
TORSDOF 19
ENDMDL
MODEL 62
REMARK VINA RESULT:      -0.5     83.144     89.433
ROOT
ATOM      1  C1  Z9H D   1      84.597  22.732  55.0800  0.00  0.00     0.000 C
ATOM      2  C2  Z9H D   1      83.953  22.856  53.6780  0.00  0.00     0.000 C
ATOM      3  C3  Z9H D   1      85.177  22.391  52.8300  0.00  0.00     0.000 C
ATOM      4  C4  Z9H D   1      86.546  23.118  53.1590  0.00  0.00     0.000 C
ATOM      5  C5  Z9H D   1      87.085  23.321  54.6310  0.00  0.00     0.000 C
ATOM      6  O5  Z9H D   1      85.847  23.413  55.3800  0.00  0.00     0.000 O
ATOM      7   O  Z9H D   1      84.902  22.459  51.4290  0.00  0.00     0.000 O
ATOM      8   C  Z9H D   1      84.521  21.216  50.8160  0.00  0.00     0.000 C
ATOM      9   O  Z9H D   1      87.551  22.398  52.4370  0.00  0.00     0.000 O
ATOM     10   C  Z9H D   1      87.961  22.985  51.1980  0.00  0.00     0.000 C
ENDROOT
BRANCH 2 11
ATOM     11   O  Z9H D   1      83.066  21.768  53.6670  0.00  0.00     0.000 O
ATOM     12   O  Z9H D   1      81.187  21.934  53.6610  0.00  0.00     0.000 OA
ATOM     13   S  Z9H D   1      82.099  23.028  53.6250  0.00  0.00     0.000 S
ATOM     14   O  Z9H D   1      82.215  23.643  52.3330  0.00  0.00     0.000 OA
ATOM     15   O  Z9H D   1      82.088  23.735  54.8850  0.00  0.00     0.000 O
ENDBRANCH 2 11
BRANCH 5 16
ATOM     16   C  Z9H D   1      88.287  24.474  54.7930  0.00  0.00     0.000 C
ATOM     17   S  Z9H D   1      89.955  24.959  55.8050  0.00  0.00     0.000 S
ATOM     18   O  Z9H D   1      89.331  23.611  55.1730  0.00  0.00     0.000 O
ATOM     19   O  Z9H D   1      89.234  25.487  56.9270  0.00  0.00     0.000 O
ATOM     20   O  Z9H D   1      90.504  25.773  54.7780  0.00  0.00     0.000 OA
ATOM     21   O  Z9H D   1      90.963  24.023  56.2080  0.00  0.00     0.000 OA
ENDBRANCH 5 16
BRANCH 1 22
ATOM     22  O4  GU1 D   2      84.937  21.357  55.4850  0.00  0.00     0.000 O
BRANCH 22 26
ATOM     23  C1  GU1 D   2      85.187  18.744  58.6610  0.00  0.00     0.000 C
ATOM     24  C2  GU1 D   2      84.046  19.746  58.7450  0.00  0.00     0.000 C
ATOM     25  C3  GU1 D   2      83.826  20.365  57.3950  0.00  0.00     0.000 C
ATOM     26  C4  GU1 D   2      85.122  20.941  56.8430  0.00  0.00     0.000 C
ATOM     27  C5  GU1 D   2      86.231  19.886  56.8990  0.00  0.00     0.000 C
ATOM     28  O5  GU1 D   2      86.379  19.388  58.2260  0.00  0.00     0.000 O
ATOM     29   O  GU1 D   2      82.829  19.134  59.1560  0.00  0.00     0.000 O
ATOM     30   C  GU1 D   2      82.565  19.258  60.5460  0.00  0.00     0.000 C
ATOM     31   C  GU1 D   2      81.556  21.108  57.0980  0.00  0.00     0.000 C
ATOM     32   O  GU1 D   2      82.876  21.426  57.5330  0.00  0.00     0.000 O
BRANCH 27 33
ATOM     33   C  GU1 D   2      87.559  20.465  56.4710  0.00  0.00     0.000 C
ATOM     34   O  GU1 D   2      88.013  20.133  55.3950  0.00  0.00     0.000 OA
ATOM     35   O  GU1 D   2      88.155  21.250  57.1910  0.00  0.00     0.000 O
ENDBRANCH 27 33
BRANCH 23 36
ATOM     36  O4  GU6 D   3      85.756  18.196  59.8660  0.00  0.00     0.000 O
BRANCH 36 40
ATOM     37  C1  GU6 D   3      88.103  17.523  63.1420  0.00  0.00     0.000 C
ATOM     38  C2  GU6 D   3      87.334  16.295  62.6690  0.00  0.00     0.000 C
ATOM     39  C3  GU6 D   3      86.725  16.570  61.3200  0.00  0.00     0.000 C
ATOM     40  C4  GU6 D   3      86.769  17.949  60.8200  0.00  0.00     0.000 C
ATOM     41  C5  GU6 D   3      86.539  18.943  62.0060  0.00  0.00     0.000 C
ATOM     42  O5  GU6 D   3      87.202  18.615  63.2330  0.00  0.00     0.000 O
BRANCH 38 43
ATOM     43   O  GU6 D   3      88.189  15.171  62.5930  0.00  0.00     0.000 O
ATOM     44   S  GU6 D   3      87.720  13.968  63.4030  0.00  0.00     0.000 S
ATOM     45   O  GU6 D   3      88.117  14.166  64.8070  0.00  0.00     0.000 OA
ATOM     46   O  GU6 D   3      86.251  13.886  63.3150  0.00  0.00     0.000 O
ATOM     47   O  GU6 D   3      88.323  12.762  62.8440  0.00  0.00     0.000 OA
ENDBRANCH 38 43
BRANCH 39 48
ATOM     48   O  GU6 D   3      86.337  15.509  60.4680  0.00  0.00     0.000 O
ATOM     49   S  GU6 D   3      87.074  14.881  59.2860  0.00  0.00     0.000 S
ATOM     50   O  GU6 D   3      88.406  14.429  59.7030  0.00  0.00     0.000 OA
ATOM     51   O  GU6 D   3      86.216  13.744  58.9250  0.00  0.00     0.000 OA
ATOM     52   O  GU6 D   3      87.195  15.886  58.2070  0.00  0.00     0.000 O
ENDBRANCH 39 48
BRANCH 41 53
ATOM     53   C  GU6 D   3      85.728  20.210  62.0370  0.00  0.00     0.000 C
ATOM     54   O  GU6 D   3      86.512  20.960  61.1460  0.00  0.00     0.000 O
ATOM     55   S  GU6 D   3      86.192  22.437  60.8810  0.00  0.00     0.000 S
ATOM     56   O  GU6 D   3      86.440  23.162  62.1490  0.00  0.00     0.000 O
ATOM     57   O  GU6 D   3      87.084  22.927  59.8200  0.00  0.00     0.000 OA
ATOM     58   O  GU6 D   3      84.766  22.515  60.4940  0.00  0.00     0.000 OA
ENDBRANCH 41 53
BRANCH 37 59
ATOM     59  O4  Z9K D   4      89.320  18.019  62.5440  0.00  0.00     0.000 O
BRANCH 59 63
ATOM     60  C1  Z9K D   4      93.169  18.252  61.7850  0.00  0.00     0.000 C
ATOM     61  C2  Z9K D   4      93.159  17.276  62.9930  0.00  0.00     0.000 C
ATOM     62  C3  Z9K D   4      91.597  17.041  63.1790  0.00  0.00     0.000 C
ATOM     63  C4  Z9K D   4      90.624  18.280  63.1390  0.00  0.00     0.000 C
ATOM     64  C5  Z9K D   4      91.113  19.496  62.3380  0.00  0.00     0.000 C
ATOM     65  O5  Z9K D   4      91.903  18.889  61.2810  0.00  0.00     0.000 O
ATOM     66   O  Z9K D   4      91.266  16.350  64.3970  0.00  0.00     0.000 O
ATOM     67   C  Z9K D   4      91.329  14.936  64.3040  0.00  0.00     0.000 C
BRANCH 61 68
ATOM     68   O  Z9K D   4      93.690  16.059  62.5440  0.00  0.00     0.000 O
ATOM     69   O  Z9K D   4      94.313  16.494  64.9870  0.00  0.00     0.000 OA
ATOM     70   S  Z9K D   4      94.791  16.521  63.6380  0.00  0.00     0.000 S
ATOM     71   O  Z9K D   4      95.620  17.536  63.0640  0.00  0.00     0.000 OA
ATOM     72   O  Z9K D   4      95.271  15.236  63.2420  0.00  0.00     0.000 OA
ENDBRANCH 61 68
BRANCH 64 73
ATOM     73   C  Z9K D   4      89.931  20.409  61.9490  0.00  0.00     0.000 C
ATOM     74   O  Z9K D   4      89.330  21.108  62.8160  0.00  0.00     0.000 O
ATOM     75   O  Z9K D   4      89.526  20.498  60.7640  0.00  0.00     0.000 OA
ENDBRANCH 64 73
BRANCH 60 76
ATOM     76  O4  Z9L D   5      93.974  19.427  61.5910  0.00  0.00     0.000 O
BRANCH 76 80
ATOM     77  C1  Z9L D   5      95.929  21.592  58.8590  0.00  0.00     0.000 C
ATOM     78  C2  Z9L D   5      94.760  22.521  59.4450  0.00  0.00     0.000 C
ATOM     79  C3  Z9L D   5      94.243  21.800  60.8850  0.00  0.00     0.000 C
ATOM     80  C4  Z9L D   5      94.212  20.211  60.4500  0.00  0.00     0.000 C
ATOM     81  C5  Z9L D   5      95.290  19.316  59.6520  0.00  0.00     0.000 C
ATOM     82  O5  Z9L D   5      95.790  20.139  58.5880  0.00  0.00     0.000 O
ATOM     83   C  Z9L D   5      98.265  21.048  59.2290  0.00  0.00     0.000 C
ATOM     84   C  Z9L D   5      98.265  21.048  59.2290  0.00  0.00     0.000 C
BRANCH 78 85
ATOM     85   O  Z9L D   5      95.302  23.770  59.7300  0.00  0.00     0.000 O
ATOM     86   O  Z9L D   5      94.909  25.392  58.7680  0.00  0.00     0.000 OA
ATOM     87   S  Z9L D   5      94.261  24.133  58.5610  0.00  0.00     0.000 S
ATOM     88   O  Z9L D   5      92.909  24.327  59.0260  0.00  0.00     0.000 OA
ATOM     89   O  Z9L D   5      94.624  23.738  57.2440  0.00  0.00     0.000 OA
ENDBRANCH 78 85
BRANCH 79 90
ATOM     90   O  Z9L D   5      92.900  22.070  61.1350  0.00  0.00     0.000 O
ATOM     91   S  Z9L D   5      93.543  22.655  62.4700  0.00  0.00     0.000 S
ATOM     92   O  Z9L D   5      94.571  23.662  62.4530  0.00  0.00     0.000 OA
ATOM     93   O  Z9L D   5      93.512  21.644  63.4970  0.00  0.00     0.000 O
ATOM     94   O  Z9L D   5      92.288  23.333  62.5080  0.00  0.00     0.000 OA
ENDBRANCH 79 90
BRANCH 81 95
ATOM     95   C  Z9L D   5      94.867  17.730  59.3050  0.00  0.00     0.000 C
ATOM     96   S  Z9L D   5      94.071  16.522  57.9370  0.00  0.00     0.000 S
ATOM     97   O  Z9L D   5      93.814  17.999  58.4190  0.00  0.00     0.000 O
ATOM     98   O  Z9L D   5      93.581  15.655  58.9770  0.00  0.00     0.000 OA
ATOM     99   O  Z9L D   5      95.326  16.286  57.3050  0.00  0.00     0.000 OA
ATOM    100   O  Z9L D   5      92.973  16.850  57.0610  0.00  0.00     0.000 O
ENDBRANCH 81 95
ENDBRANCH 76 80
ENDBRANCH 60 76
ENDBRANCH 59 63
ENDBRANCH 37 59
ENDBRANCH 36 40
ENDBRANCH 23 36
ENDBRANCH 22 26
ENDBRANCH 1 22
TORSDOF 19
ENDMDL
MODEL 63
REMARK VINA RESULT:      -0.5    157.931    162.206
ROOT
ATOM      1  C1  Z9H D   1      35.126 146.823 125.3000  0.00  0.00     0.000 C
ATOM      2  C2  Z9H D   1      36.457 147.610 125.3690  0.00  0.00     0.000 C
ATOM      3  C3  Z9H D   1      35.880 148.984 125.8270  0.00  0.00     0.000 C
ATOM      4  C4  Z9H D   1      34.662 149.528 124.9710  0.00  0.00     0.000 C
ATOM      5  C5  Z9H D   1      33.417 148.638 124.5770  0.00  0.00     0.000 C
ATOM      6  O5  Z9H D   1      34.018 147.321 124.5010  0.00  0.00     0.000 O
ATOM      7   O  Z9H D   1      36.901 149.978 125.9260  0.00  0.00     0.000 O
ATOM      8   C  Z9H D   1      37.410 150.209 127.2500  0.00  0.00     0.000 C
ATOM      9   O  Z9H D   1      34.161 150.663 125.6850  0.00  0.00     0.000 O
ATOM     10   C  Z9H D   1      34.595 151.938 125.2010  0.00  0.00     0.000 C
ENDROOT
BRANCH 2 11
ATOM     11   O  Z9H D   1      37.058 147.066 126.5150  0.00  0.00     0.000 O
ATOM     12   O  Z9H D   1      38.618 146.006 126.4920  0.00  0.00     0.000 OA
ATOM     13   S  Z9H D   1      38.025 146.603 125.3430  0.00  0.00     0.000 S
ATOM     14   O  Z9H D   1      38.731 147.756 124.8590  0.00  0.00     0.000 OA
ATOM     15   O  Z9H D   1      37.411 145.594 124.5100  0.00  0.00     0.000 O
ENDBRANCH 2 11
BRANCH 5 16
ATOM     16   C  Z9H D   1      32.481 149.242 123.3270  0.00  0.00     0.000 C
ATOM     17   S  Z9H D   1      30.600 149.432 122.6440  0.00  0.00     0.000 S
ATOM     18   O  Z9H D   1      31.332 149.548 124.0790  0.00  0.00     0.000 O
ATOM     19   O  Z9H D   1      30.566 148.109 122.0910  0.00  0.00     0.000 O
ATOM     20   O  Z9H D   1      30.856 150.595 121.8680  0.00  0.00     0.000 OA
ATOM     21   O  Z9H D   1      29.458 149.698 123.4690  0.00  0.00     0.000 OA
ENDBRANCH 5 16
BRANCH 1 22
ATOM     22  O4  GU1 D   2      34.455 146.627 126.5960  0.00  0.00     0.000 O
BRANCH 22 26
ATOM     23  C1  GU1 D   2      32.165 144.047 128.8490  0.00  0.00     0.000 C
ATOM     24  C2  GU1 D   2      33.179 143.373 127.9370  0.00  0.00     0.000 C
ATOM     25  C3  GU1 D   2      34.185 144.387 127.4760  0.00  0.00     0.000 C
ATOM     26  C4  GU1 D   2      33.497 145.594 126.8570  0.00  0.00     0.000 C
ATOM     27  C5  GU1 D   2      32.426 146.133 127.8110  0.00  0.00     0.000 C
ATOM     28  O5  GU1 D   2      31.505 145.103 128.1600  0.00  0.00     0.000 O
ATOM     29   O  GU1 D   2      33.876 142.324 128.6000  0.00  0.00     0.000 O
ATOM     30   C  GU1 D   2      33.336 141.033 128.3580  0.00  0.00     0.000 C
ATOM     31   C  GU1 D   2      36.307 143.381 126.9490  0.00  0.00     0.000 C
ATOM     32   O  GU1 D   2      35.019 143.778 126.4850  0.00  0.00     0.000 O
BRANCH 27 33
ATOM     33   C  GU1 D   2      31.643 147.257 127.1740  0.00  0.00     0.000 C
ATOM     34   O  GU1 D   2      30.880 146.989 126.2690  0.00  0.00     0.000 OA
ATOM     35   O  GU1 D   2      31.775 148.405 127.5670  0.00  0.00     0.000 O
ENDBRANCH 27 33
BRANCH 23 36
ATOM     36  O4  GU6 D   3      30.960 143.352 129.2260  0.00  0.00     0.000 O
BRANCH 36 40
ATOM     37  C1  GU6 D   3      27.119 141.975 129.4410  0.00  0.00     0.000 C
ATOM     38  C2  GU6 D   3      27.878 141.901 130.7610  0.00  0.00     0.000 C
ATOM     39  C3  GU6 D   3      29.167 142.672 130.6460  0.00  0.00     0.000 C
ATOM     40  C4  GU6 D   3      29.566 143.137 129.3130  0.00  0.00     0.000 C
ATOM     41  C5  GU6 D   3      29.199 142.052 128.2490  0.00  0.00     0.000 C
ATOM     42  O5  GU6 D   3      27.930 141.411 128.4220  0.00  0.00     0.000 O
BRANCH 38 43
ATOM     43   O  GU6 D   3      27.094 142.426 131.8150  0.00  0.00     0.000 O
ATOM     44   S  GU6 D   3      26.896 141.472 132.9860  0.00  0.00     0.000 S
ATOM     45   O  GU6 D   3      25.807 140.538 132.6510  0.00  0.00     0.000 OA
ATOM     46   O  GU6 D   3      28.144 140.715 133.1930  0.00  0.00     0.000 O
ATOM     47   O  GU6 D   3      26.580 142.251 134.1790  0.00  0.00     0.000 OA
ENDBRANCH 38 43
BRANCH 39 48
ATOM     48   O  GU6 D   3      29.845 143.130 131.8000  0.00  0.00     0.000 O
ATOM     49   S  GU6 D   3      29.830 144.506 132.4640  0.00  0.00     0.000 S
ATOM     50   O  GU6 D   3      28.452 144.903 132.7760  0.00  0.00     0.000 OA
ATOM     51   O  GU6 D   3      30.611 144.292 133.6910  0.00  0.00     0.000 OA
ATOM     52   O  GU6 D   3      30.445 145.489 131.5450  0.00  0.00     0.000 O
ENDBRANCH 39 48
BRANCH 41 53
ATOM     53   C  GU6 D   3      29.989 141.592 127.0520  0.00  0.00     0.000 C
ATOM     54   O  GU6 D   3      29.948 142.793 126.3250  0.00  0.00     0.000 O
ATOM     55   S  GU6 D   3      30.532 142.864 124.9080  0.00  0.00     0.000 S
ATOM     56   O  GU6 D   3      29.691 141.992 124.0550  0.00  0.00     0.000 O
ATOM     57   O  GU6 D   3      30.471 144.258 124.4450  0.00  0.00     0.000 OA
ATOM     58   O  GU6 D   3      31.921 142.358 124.9790  0.00  0.00     0.000 OA
ENDBRANCH 41 53
BRANCH 37 59
ATOM     59  O4  Z9K D   4      26.515 143.168 128.8990  0.00  0.00     0.000 O
BRANCH 59 63
ATOM     60  C1  Z9K D   4      23.786 145.961 128.4520  0.00  0.00     0.000 C
ATOM     61  C2  Z9K D   4      23.002 144.904 129.2780  0.00  0.00     0.000 C
ATOM     62  C3  Z9K D   4      24.159 143.865 129.6130  0.00  0.00     0.000 C
ATOM     63  C4  Z9K D   4      25.146 143.419 128.4680  0.00  0.00     0.000 C
ATOM     64  C5  Z9K D   4      25.341 144.419 127.3180  0.00  0.00     0.000 C
ATOM     65  O5  Z9K D   4      25.190 145.703 127.9790  0.00  0.00     0.000 O
ATOM     66   O  Z9K D   4      23.673 142.636 130.1820  0.00  0.00     0.000 O
ATOM     67   C  Z9K D   4      23.487 142.674 131.5870  0.00  0.00     0.000 C
BRANCH 61 68
ATOM     68   O  Z9K D   4      22.653 145.509 130.4930  0.00  0.00     0.000 O
ATOM     69   O  Z9K D   4      20.851 143.861 129.7260  0.00  0.00     0.000 OA
ATOM     70   S  Z9K D   4      21.203 145.246 129.8200  0.00  0.00     0.000 S
ATOM     71   O  Z9K D   4      20.969 146.238 128.8160  0.00  0.00     0.000 OA
ATOM     72   O  Z9K D   4      20.856 145.775 131.1000  0.00  0.00     0.000 OA
ENDBRANCH 61 68
BRANCH 64 73
ATOM     73   C  Z9K D   4      26.650 144.128 126.5530  0.00  0.00     0.000 C
ATOM     74   O  Z9K D   4      26.755 143.120 125.7950  0.00  0.00     0.000 O
ATOM     75   O  Z9K D   4      27.652 144.877 126.6480  0.00  0.00     0.000 OA
ENDBRANCH 64 73
BRANCH 60 76
ATOM     76  O4  Z9L D   5      23.382 146.633 127.2460  0.00  0.00     0.000 O
BRANCH 76 80
ATOM     77  C1  Z9L D   5      23.509 150.103 125.2680  0.00  0.00     0.000 C
ATOM     78  C2  Z9L D   5      24.321 149.033 124.3920  0.00  0.00     0.000 C
ATOM     79  C3  Z9L D   5      23.888 147.503 124.9690  0.00  0.00     0.000 C
ATOM     80  C4  Z9L D   5      23.900 147.764 126.5960  0.00  0.00     0.000 C
ATOM     81  C5  Z9L D   5      23.281 148.966 127.4750  0.00  0.00     0.000 C
ATOM     82  O5  Z9L D   5      23.547 150.176 126.7510  0.00  0.00     0.000 O
ATOM     83   C  Z9L D   5      21.276 151.018 125.5270  0.00  0.00     0.000 C
ATOM     84   C  Z9L D   5      21.276 151.018 125.5270  0.00  0.00     0.000 C
BRANCH 78 85
ATOM     85   O  Z9L D   5      23.907 149.154 123.0680  0.00  0.00     0.000 O
ATOM     86   O  Z9L D   5      24.991 149.835 121.6290  0.00  0.00     0.000 OA
ATOM     87   S  Z9L D   5      25.450 149.591 122.9620  0.00  0.00     0.000 S
ATOM     88   O  Z9L D   5      26.362 148.480 122.8450  0.00  0.00     0.000 OA
ATOM     89   O  Z9L D   5      25.784 150.872 123.4830  0.00  0.00     0.000 OA
ENDBRANCH 78 85
BRANCH 79 90
ATOM     90   O  Z9L D   5      24.922 146.586 124.8020  0.00  0.00     0.000 O
ATOM     91   S  Z9L D   5      23.774 145.847 123.9820  0.00  0.00     0.000 S
ATOM     92   O  Z9L D   5      23.080 146.476 122.8890  0.00  0.00     0.000 OA
ATOM     93   O  Z9L D   5      23.102 144.906 124.8440  0.00  0.00     0.000 O
ATOM     94   O  Z9L D   5      24.910 145.179 123.4340  0.00  0.00     0.000 OA
ENDBRANCH 79 90
BRANCH 81 95
ATOM     95   C  Z9L D   5      23.576 148.942 129.1260  0.00  0.00     0.000 C
ATOM     96   S  Z9L D   5      24.751 149.633 130.5780  0.00  0.00     0.000 S
ATOM     97   O  Z9L D   5      24.956 149.189 129.0810  0.00  0.00     0.000 O
ATOM     98   O  Z9L D   5      24.528 148.431 131.3400  0.00  0.00     0.000 OA
ATOM     99   O  Z9L D   5      23.952 150.794 130.7760  0.00  0.00     0.000 OA
ATOM    100   O  Z9L D   5      26.173 149.851 130.4780  0.00  0.00     0.000 O
ENDBRANCH 81 95
ENDBRANCH 76 80
ENDBRANCH 60 76
ENDBRANCH 59 63
ENDBRANCH 37 59
ENDBRANCH 36 40
ENDBRANCH 23 36
ENDBRANCH 22 26
ENDBRANCH 1 22
TORSDOF 19
ENDMDL
MODEL 64
REMARK VINA RESULT:      -0.5    115.569    120.837
ROOT
ATOM      1  C1  Z9H D   1     104.358 117.225  22.0630  0.00  0.00     0.000 C
ATOM      2  C2  Z9H D   1     103.824 116.952  20.6370  0.00  0.00     0.000 C
ATOM      3  C3  Z9H D   1     104.353 115.493  20.4770  0.00  0.00     0.000 C
ATOM      4  C4  Z9H D   1     105.886 115.286  20.8210  0.00  0.00     0.000 C
ATOM      5  C5  Z9H D   1     106.564 115.858  22.1290  0.00  0.00     0.000 C
ATOM      6  O5  Z9H D   1     105.769 117.047  22.3680  0.00  0.00     0.000 O
ATOM      7   O  Z9H D   1     104.057 114.964  19.1830  0.00  0.00     0.000 O
ATOM      8   C  Z9H D   1     102.897 114.119  19.1140  0.00  0.00     0.000 C
ATOM      9   O  Z9H D   1     106.096 113.870  20.8200  0.00  0.00     0.000 O
ATOM     10   C  Z9H D   1     106.669 113.331  19.6250  0.00  0.00     0.000 C
ENDROOT
BRANCH 2 11
ATOM     11   O  Z9H D   1     102.445 116.818  20.8620  0.00  0.00     0.000 O
ATOM     12   O  Z9H D   1     101.146 118.038  20.2430  0.00  0.00     0.000 OA
ATOM     13   S  Z9H D   1     102.543 118.136  19.9810  0.00  0.00     0.000 S
ATOM     14   O  Z9H D   1     102.910 117.760  18.6460  0.00  0.00     0.000 OA
ATOM     15   O  Z9H D   1     103.119 119.233  20.7250  0.00  0.00     0.000 O
ENDBRANCH 2 11
BRANCH 5 16
ATOM     16   C  Z9H D   1     108.236 115.921  22.0920  0.00  0.00     0.000 C
ATOM     17   S  Z9H D   1     109.901 115.682  23.1920  0.00  0.00     0.000 S
ATOM     18   O  Z9H D   1     108.487 114.916  23.0430  0.00  0.00     0.000 O
ATOM     19   O  Z9H D   1     109.819 116.990  23.7740  0.00  0.00     0.000 O
ATOM     20   O  Z9H D   1     110.745 115.370  22.0920  0.00  0.00     0.000 OA
ATOM     21   O  Z9H D   1     110.081 114.663  24.1840  0.00  0.00     0.000 OA
ENDBRANCH 5 16
BRANCH 1 22
ATOM     22  O4  GU1 D   2     103.749 116.401  23.1210  0.00  0.00     0.000 O
BRANCH 22 26
ATOM     23  C1  GU1 D   2     102.511 116.338  27.0500  0.00  0.00     0.000 C
ATOM     24  C2  GU1 D   2     102.322 117.670  26.3410  0.00  0.00     0.000 C
ATOM     25  C3  GU1 D   2     102.441 117.466  24.8580  0.00  0.00     0.000 C
ATOM     26  C4  GU1 D   2     103.739 116.753  24.5090  0.00  0.00     0.000 C
ATOM     27  C5  GU1 D   2     103.881 115.481  25.3510  0.00  0.00     0.000 C
ATOM     28  O5  GU1 D   2     103.787 115.789  26.7390  0.00  0.00     0.000 O
ATOM     29   O  GU1 D   2     101.047 118.240  26.6110  0.00  0.00     0.000 O
ATOM     30   C  GU1 D   2     101.057 119.205  27.6530  0.00  0.00     0.000 C
ATOM     31   C  GU1 D   2     101.202 119.113  23.6160  0.00  0.00     0.000 C
ATOM     32   O  GU1 D   2     102.438 118.749  24.2240  0.00  0.00     0.000 O
BRANCH 27 33
ATOM     33   C  GU1 D   2     105.216 114.816  25.1140  0.00  0.00     0.000 C
ATOM     34   O  GU1 D   2     106.216 115.363  25.5320  0.00  0.00     0.000 OA
ATOM     35   O  GU1 D   2     105.282 113.751  24.5210  0.00  0.00     0.000 O
ENDBRANCH 27 33
BRANCH 23 36
ATOM     36  O4  GU6 D   3     102.688 116.301  28.4800  0.00  0.00     0.000 O
BRANCH 36 40
ATOM     37  C1  GU6 D   3     104.271 116.150  32.2440  0.00  0.00     0.000 C
ATOM     38  C2  GU6 D   3     102.850 115.609  32.1480  0.00  0.00     0.000 C
ATOM     39  C3  GU6 D   3     102.464 115.455  30.7000  0.00  0.00     0.000 C
ATOM     40  C4  GU6 D   3     103.362 116.028  29.6910  0.00  0.00     0.000 C
ATOM     41  C5  GU6 D   3     103.938 117.385  30.2150  0.00  0.00     0.000 C
ATOM     42  O5  GU6 D   3     104.319 117.411  31.5950  0.00  0.00     0.000 O
BRANCH 38 43
ATOM     43   O  GU6 D   3     102.746 114.363  32.8100  0.00  0.00     0.000 O
ATOM     44   S  GU6 D   3     101.665 114.307  33.8820  0.00  0.00     0.000 S
ATOM     45   O  GU6 D   3     102.198 114.910  35.1150  0.00  0.00     0.000 OA
ATOM     46   O  GU6 D   3     100.503 115.086  33.4180  0.00  0.00     0.000 O
ATOM     47   O  GU6 D   3     101.283 112.915  34.0920  0.00  0.00     0.000 OA
ENDBRANCH 38 43
BRANCH 39 48
ATOM     48   O  GU6 D   3     101.408 114.596  30.3170  0.00  0.00     0.000 O
ATOM     49   S  GU6 D   3     101.452 113.162  29.7900  0.00  0.00     0.000 S
ATOM     50   O  GU6 D   3     102.184 112.302  30.7270  0.00  0.00     0.000 OA
ATOM     51   O  GU6 D   3     100.033 112.788  29.7240  0.00  0.00     0.000 OA
ATOM     52   O  GU6 D   3     102.120 113.156  28.4700  0.00  0.00     0.000 O
ENDBRANCH 39 48
BRANCH 41 53
ATOM     53   C  GU6 D   3     104.164 118.670  29.4650  0.00  0.00     0.000 C
ATOM     54   O  GU6 D   3     105.159 118.208  28.5890  0.00  0.00     0.000 O
ATOM     55   S  GU6 D   3     105.863 119.177  27.6300  0.00  0.00     0.000 S
ATOM     56   O  GU6 D   3     106.643 120.117  28.4680  0.00  0.00     0.000 O
ATOM     57   O  GU6 D   3     106.753 118.402  26.7510  0.00  0.00     0.000 OA
ATOM     58   O  GU6 D   3     104.809 119.888  26.8720  0.00  0.00     0.000 OA
ENDBRANCH 41 53
BRANCH 37 59
ATOM     59  O4  Z9K D   4     105.460 115.426  31.8640  0.00  0.00     0.000 O
BRANCH 59 63
ATOM     60  C1  Z9K D   4     108.421 112.871  32.2560  0.00  0.00     0.000 C
ATOM     61  C2  Z9K D   4     107.892 112.945  33.7150  0.00  0.00     0.000 C
ATOM     62  C3  Z9K D   4     106.586 113.832  33.5180  0.00  0.00     0.000 C
ATOM     63  C4  Z9K D   4     106.667 115.129  32.6260  0.00  0.00     0.000 C
ATOM     64  C5  Z9K D   4     107.752 115.133  31.5380  0.00  0.00     0.000 C
ATOM     65  O5  Z9K D   4     107.842 113.733  31.1670  0.00  0.00     0.000 O
ATOM     66   O  Z9K D   4     106.005 114.272  34.7580  0.00  0.00     0.000 O
ATOM     67   C  Z9K D   4     105.116 113.340  35.3520  0.00  0.00     0.000 C
BRANCH 61 68
ATOM     68   O  Z9K D   4     107.447 111.661  34.0570  0.00  0.00     0.000 O
ATOM     69   O  Z9K D   4     108.431 112.871  36.0860  0.00  0.00     0.000 OA
ATOM     70   S  Z9K D   4     108.678 111.875  35.0880  0.00  0.00     0.000 S
ATOM     71   O  Z9K D   4     109.911 111.681  34.3880  0.00  0.00     0.000 OA
ATOM     72   O  Z9K D   4     108.156 110.609  35.4910  0.00  0.00     0.000 OA
ENDBRANCH 61 68
BRANCH 64 73
ATOM     73   C  Z9K D   4     107.427 116.171  30.4430  0.00  0.00     0.000 C
ATOM     74   O  Z9K D   4     107.044 115.812  29.2920  0.00  0.00     0.000 O
ATOM     75   O  Z9K D   4     107.523 117.405  30.6520  0.00  0.00     0.000 OA
ENDBRANCH 64 73
BRANCH 60 76
ATOM     76  O4  Z9L D   5     109.775 112.992  31.7890  0.00  0.00     0.000 O
BRANCH 76 80
ATOM     77  C1  Z9L D   5     112.413 111.662  29.0970  0.00  0.00     0.000 C
ATOM     78  C2  Z9L D   5     112.166 113.216  28.7850  0.00  0.00     0.000 C
ATOM     79  C3  Z9L D   5     111.437 113.878  30.1600  0.00  0.00     0.000 C
ATOM     80  C4  Z9L D   5     110.359 112.693  30.5470  0.00  0.00     0.000 C
ATOM     81  C5  Z9L D   5     110.538 111.094  30.6400  0.00  0.00     0.000 C
ATOM     82  O5  Z9L D   5     111.353 110.713  29.5220  0.00  0.00     0.000 O
ATOM     83   C  Z9L D   5     113.880 110.207  30.3700  0.00  0.00     0.000 C
ATOM     84   C  Z9L D   5     113.880 110.207  30.3700  0.00  0.00     0.000 C
BRANCH 78 85
ATOM     85   O  Z9L D   5     113.405 113.820  28.5900  0.00  0.00     0.000 O
ATOM     86   O  Z9L D   5     114.056 114.492  26.9070  0.00  0.00     0.000 OA
ATOM     87   S  Z9L D   5     112.738 113.986  27.1380  0.00  0.00     0.000 S
ATOM     88   O  Z9L D   5     111.871 115.133  27.0240  0.00  0.00     0.000 OA
ATOM     89   O  Z9L D   5     112.644 112.808  26.3450  0.00  0.00     0.000 OA
ENDBRANCH 78 85
BRANCH 79 90
ATOM     90   O  Z9L D   5     110.607 114.946  29.8300  0.00  0.00     0.000 O
ATOM     91   S  Z9L D   5     111.588 115.675  30.8510  0.00  0.00     0.000 S
ATOM     92   O  Z9L D   5     113.016 115.688  30.6720  0.00  0.00     0.000 OA
ATOM     93   O  Z9L D   5     111.007 115.653  32.1700  0.00  0.00     0.000 O
ATOM     94   O  Z9L D   5     111.068 116.822  30.1800  0.00  0.00     0.000 OA
ENDBRANCH 79 90
BRANCH 81 95
ATOM     95   C  Z9L D   5     109.170 110.184  30.9790  0.00  0.00     0.000 C
ATOM     96   S  Z9L D   5     107.682 109.127  30.1830  0.00  0.00     0.000 S
ATOM     97   O  Z9L D   5     108.473 110.430  29.7880  0.00  0.00     0.000 O
ATOM     98   O  Z9L D   5     106.830 109.478  31.2910  0.00  0.00     0.000 OA
ATOM     99   O  Z9L D   5     108.438 107.920  30.1840  0.00  0.00     0.000 OA
ATOM    100   O  Z9L D   5     106.989 109.440  28.9580  0.00  0.00     0.000 O
ENDBRANCH 81 95
ENDBRANCH 76 80
ENDBRANCH 60 76
ENDBRANCH 59 63
ENDBRANCH 37 59
ENDBRANCH 36 40
ENDBRANCH 23 36
ENDBRANCH 22 26
ENDBRANCH 1 22
TORSDOF 19
ENDMDL
MODEL 65
REMARK VINA RESULT:      -0.5     92.903     99.402
ROOT
ATOM      1  C1  Z9H D   1     103.893  16.965  43.1640  0.00  0.00     0.000 C
ATOM      2  C2  Z9H D   1     102.992  17.163  44.4060  0.00  0.00     0.000 C
ATOM      3  C3  Z9H D   1     104.074  17.725  45.3780  0.00  0.00     0.000 C
ATOM      4  C4  Z9H D   1     105.408  16.875  45.4740  0.00  0.00     0.000 C
ATOM      5  C5  Z9H D   1     106.190  16.348  44.2050  0.00  0.00     0.000 C
ATOM      6  O5  Z9H D   1     105.109  16.172  43.2550  0.00  0.00     0.000 O
ATOM      7   O  Z9H D   1     103.539  17.958  46.6820  0.00  0.00     0.000 O
ATOM      8   C  Z9H D   1     103.165  19.318  46.9600  0.00  0.00     0.000 C
ATOM      9   O  Z9H D   1     106.323  17.672  46.2330  0.00  0.00     0.000 O
ATOM     10   C  Z9H D   1     106.439  17.328  47.6170  0.00  0.00     0.000 C
ENDROOT
BRANCH 2 11
ATOM     11   O  Z9H D   1     102.222  18.276  44.0330  0.00  0.00     0.000 O
ATOM     12   O  Z9H D   1     100.370  18.212  43.6780  0.00  0.00     0.000 OA
ATOM     13   S  Z9H D   1     101.154  17.101  44.1030  0.00  0.00     0.000 S
ATOM     14   O  Z9H D   1     100.961  16.748  45.4800  0.00  0.00     0.000 OA
ATOM     15   O  Z9H D   1     101.324  16.161  43.0190  0.00  0.00     0.000 O
ENDBRANCH 2 11
BRANCH 5 16
ATOM     16   C  Z9H D   1     107.290  15.124  44.5090  0.00  0.00     0.000 C
ATOM     17   S  Z9H D   1     109.031  14.313  43.9140  0.00  0.00     0.000 S
ATOM     18   O  Z9H D   1     108.453  15.808  44.1090  0.00  0.00     0.000 O
ATOM     19   O  Z9H D   1     108.429  13.569  42.8460  0.00  0.00     0.000 O
ATOM     20   O  Z9H D   1     109.352  13.744  45.1760  0.00  0.00     0.000 OA
ATOM     21   O  Z9H D   1     110.169  15.064  43.4710  0.00  0.00     0.000 OA
ENDBRANCH 5 16
BRANCH 1 22
ATOM     22  O4  GU1 D   2     104.428  18.209  42.5820  0.00  0.00     0.000 O
BRANCH 22 26
ATOM     23  C1  GU1 D   2     105.914  19.873  39.1190  0.00  0.00     0.000 C
ATOM     24  C2  GU1 D   2     104.975  18.695  38.9110  0.00  0.00     0.000 C
ATOM     25  C3  GU1 D   2     104.218  18.432  40.1800  0.00  0.00     0.000 C
ATOM     26  C4  GU1 D   2     105.168  18.271  41.3570  0.00  0.00     0.000 C
ATOM     27  C5  GU1 D   2     106.137  19.456  41.4150  0.00  0.00     0.000 C
ATOM     28  O5  GU1 D   2     106.826  19.598  40.1760  0.00  0.00     0.000 O
ATOM     29   O  GU1 D   2     104.033  18.942  37.8740  0.00  0.00     0.000 O
ATOM     30   C  GU1 D   2     104.409  18.403  36.6150  0.00  0.00     0.000 C
ATOM     31   C  GU1 D   2     102.086  17.396  39.7630  0.00  0.00     0.000 C
ATOM     32   O  GU1 D   2     103.476  17.218  40.0210  0.00  0.00     0.000 O
BRANCH 27 33
ATOM     33   C  GU1 D   2     107.169  19.265  42.5010  0.00  0.00     0.000 C
ATOM     34   O  GU1 D   2     108.141  18.578  42.2590  0.00  0.00     0.000 OA
ATOM     35   O  GU1 D   2     107.028  19.795  43.5920  0.00  0.00     0.000 O
ENDBRANCH 27 33
BRANCH 23 36
ATOM     36  O4  GU6 D   3     106.926  20.171  38.1370  0.00  0.00     0.000 O
BRANCH 36 40
ATOM     37  C1  GU6 D   3     110.435  20.285  36.0470  0.00  0.00     0.000 C
ATOM     38  C2  GU6 D   3     109.476  21.420  35.7080  0.00  0.00     0.000 C
ATOM     39  C3  GU6 D   3     108.351  21.446  36.7090  0.00  0.00     0.000 C
ATOM     40  C4  GU6 D   3     108.241  20.317  37.6400  0.00  0.00     0.000 C
ATOM     41  C5  GU6 D   3     108.604  18.990  36.8970  0.00  0.00     0.000 C
ATOM     42  O5  GU6 D   3     109.720  19.060  36.0030  0.00  0.00     0.000 O
BRANCH 38 43
ATOM     43   O  GU6 D   3     110.153  22.661  35.7090  0.00  0.00     0.000 O
ATOM     44   S  GU6 D   3     110.012  23.457  34.4180  0.00  0.00     0.000 S
ATOM     45   O  GU6 D   3     110.983  22.937  33.4400  0.00  0.00     0.000 OA
ATOM     46   O  GU6 D   3     108.645  23.272  33.8980  0.00  0.00     0.000 O
ATOM     47   O  GU6 D   3     110.251  24.868  34.7070  0.00  0.00     0.000 OA
ENDBRANCH 38 43
BRANCH 39 48
ATOM     48   O  GU6 D   3     107.576  22.614  36.9010  0.00  0.00     0.000 O
ATOM     49   S  GU6 D   3     107.680  23.694  37.9770  0.00  0.00     0.000 S
ATOM     50   O  GU6 D   3     109.037  24.253  38.0030  0.00  0.00     0.000 OA
ATOM     51   O  GU6 D   3     106.701  24.697  37.5370  0.00  0.00     0.000 OA
ATOM     52   O  GU6 D   3     107.354  23.096  39.2900  0.00  0.00     0.000 O
ENDBRANCH 39 48
BRANCH 41 53
ATOM     53   C  GU6 D   3     107.953  17.637  37.0020  0.00  0.00     0.000 C
ATOM     54   O  GU6 D   3     108.357  17.332  38.3120  0.00  0.00     0.000 O
ATOM     55   S  GU6 D   3     108.049  15.957  38.9210  0.00  0.00     0.000 S
ATOM     56   O  GU6 D   3     108.830  14.963  38.1490  0.00  0.00     0.000 O
ATOM     57   O  GU6 D   3     108.466  15.965  40.3300  0.00  0.00     0.000 OA
ATOM     58   O  GU6 D   3     106.595  15.726  38.7690  0.00  0.00     0.000 OA
ENDBRANCH 41 53
BRANCH 37 59
ATOM     59  O4  Z9K D   4     111.289  20.242  37.2090  0.00  0.00     0.000 O
BRANCH 59 63
ATOM     60  C1  Z9K D   4     114.414  21.075  39.4430  0.00  0.00     0.000 C
ATOM     61  C2  Z9K D   4     114.877  21.618  38.0630  0.00  0.00     0.000 C
ATOM     62  C3  Z9K D   4     113.546  21.448  37.2100  0.00  0.00     0.000 C
ATOM     63  C4  Z9K D   4     112.736  20.100  37.3120  0.00  0.00     0.000 C
ATOM     64  C5  Z9K D   4     112.896  19.314  38.6220  0.00  0.00     0.000 C
ATOM     65  O5  Z9K D   4     113.099  20.363  39.6050  0.00  0.00     0.000 O
ATOM     66   O  Z9K D   4     113.744  21.654  35.8000  0.00  0.00     0.000 O
ATOM     67   C  Z9K D   4     113.670  23.010  35.3900  0.00  0.00     0.000 C
BRANCH 61 68
ATOM     68   O  Z9K D   4     115.077  22.997  38.2100  0.00  0.00     0.000 O
ATOM     69   O  Z9K D   4     116.739  21.994  36.5430  0.00  0.00     0.000 OA
ATOM     70   S  Z9K D   4     116.574  22.475  37.8810  0.00  0.00     0.000 S
ATOM     71   O  Z9K D   4     117.129  21.880  39.0580  0.00  0.00     0.000 OA
ATOM     72   O  Z9K D   4     116.748  23.891  37.9380  0.00  0.00     0.000 OA
ENDBRANCH 61 68
BRANCH 64 73
ATOM     73   C  Z9K D   4     111.724  18.329  38.8190  0.00  0.00     0.000 C
ATOM     74   O  Z9K D   4     111.619  17.285  38.1120  0.00  0.00     0.000 O
ATOM     75   O  Z9K D   4     110.838  18.520  39.6880  0.00  0.00     0.000 OA
ENDBRANCH 64 73
BRANCH 60 76
ATOM     76  O4  Z9L D   5     115.123  20.212  40.3490  0.00  0.00     0.000 O
BRANCH 76 80
ATOM     77  C1  Z9L D   5     116.007  19.596  44.1970  0.00  0.00     0.000 C
ATOM     78  C2  Z9L D   5     115.161  18.327  43.7000  0.00  0.00     0.000 C
ATOM     79  C3  Z9L D   5     115.186  18.358  42.0090  0.00  0.00     0.000 C
ATOM     80  C4  Z9L D   5     114.951  19.963  41.7200  0.00  0.00     0.000 C
ATOM     81  C5  Z9L D   5     115.635  21.265  42.3820  0.00  0.00     0.000 C
ATOM     82  O5  Z9L D   5     115.735  20.998  43.7880  0.00  0.00     0.000 O
ATOM     83   C  Z9L D   5     118.300  20.365  44.4120  0.00  0.00     0.000 C
ATOM     84   C  Z9L D   5     118.300  20.365  44.4120  0.00  0.00     0.000 C
BRANCH 78 85
ATOM     85   O  Z9L D   5     115.807  17.177  44.1440  0.00  0.00     0.000 O
ATOM     86   O  Z9L D   5     115.139  15.987  45.5040  0.00  0.00     0.000 OA
ATOM     87   S  Z9L D   5     114.423  17.098  44.9560  0.00  0.00     0.000 S
ATOM     88   O  Z9L D   5     113.341  16.512  44.2040  0.00  0.00     0.000 OA
ATOM     89   O  Z9L D   5     114.268  18.012  46.0350  0.00  0.00     0.000 OA
ENDBRANCH 78 85
BRANCH 79 90
ATOM     90   O  Z9L D   5     114.036  17.783  41.4750  0.00  0.00     0.000 O
ATOM     91   S  Z9L D   5     115.139  16.860  40.7920  0.00  0.00     0.000 S
ATOM     92   O  Z9L D   5     116.115  16.130  41.5580  0.00  0.00     0.000 OA
ATOM     93   O  Z9L D   5     115.462  17.385  39.4880  0.00  0.00     0.000 O
ATOM     94   O  Z9L D   5     114.004  16.010  40.6340  0.00  0.00     0.000 OA
ENDBRANCH 79 90
BRANCH 81 95
ATOM     95   C  Z9L D   5     115.068  22.765  41.8920  0.00  0.00     0.000 C
ATOM     96   S  Z9L D   5     113.827  24.259  42.3360  0.00  0.00     0.000 S
ATOM     97   O  Z9L D   5     113.793  22.690  42.4710  0.00  0.00     0.000 O
ATOM     98   O  Z9L D   5     113.674  24.557  40.9350  0.00  0.00     0.000 OA
ATOM     99   O  Z9L D   5     114.798  24.928  43.1340  0.00  0.00     0.000 OA
ATOM    100   O  Z9L D   5     112.515  24.118  42.9180  0.00  0.00     0.000 O
ENDBRANCH 81 95
ENDBRANCH 76 80
ENDBRANCH 60 76
ENDBRANCH 59 63
ENDBRANCH 37 59
ENDBRANCH 36 40
ENDBRANCH 23 36
ENDBRANCH 22 26
ENDBRANCH 1 22
TORSDOF 19
ENDMDL
MODEL 66
REMARK VINA RESULT:      -0.5    169.721    174.986
ROOT
ATOM      1  C1  Z9H D   1     124.007  66.638 151.0030  0.00  0.00     0.000 C
ATOM      2  C2  Z9H D   1     125.050  65.881 151.8580  0.00  0.00     0.000 C
ATOM      3  C3  Z9H D   1     125.831  65.192 150.6970  0.00  0.00     0.000 C
ATOM      4  C4  Z9H D   1     124.936  64.419 149.6420  0.00  0.00     0.000 C
ATOM      5  C5  Z9H D   1     123.638  65.042 148.9890  0.00  0.00     0.000 C
ATOM      6  O5  Z9H D   1     123.178  65.921 150.0460  0.00  0.00     0.000 O
ATOM      7   O  Z9H D   1     126.865  64.338 151.1920  0.00  0.00     0.000 O
ATOM      8   C  Z9H D   1     128.184  64.909 151.1980  0.00  0.00     0.000 C
ATOM      9   O  Z9H D   1     125.818  64.062 148.5720  0.00  0.00     0.000 O
ATOM     10   C  Z9H D   1     126.303  62.716 148.5960  0.00  0.00     0.000 C
ENDROOT
BRANCH 2 11
ATOM     11   O  Z9H D   1     125.885  66.924 152.2910  0.00  0.00     0.000 O
ATOM     12   O  Z9H D   1     126.026  67.493 154.0840  0.00  0.00     0.000 OA
ATOM     13   S  Z9H D   1     125.220  66.406 153.6380  0.00  0.00     0.000 S
ATOM     14   O  Z9H D   1     125.767  65.115 153.9440  0.00  0.00     0.000 OA
ATOM     15   O  Z9H D   1     123.820  66.754 153.7110  0.00  0.00     0.000 O
ENDBRANCH 2 11
BRANCH 5 16
ATOM     16   C  Z9H D   1     122.610  63.938 148.2650  0.00  0.00     0.000 C
ATOM     17   S  Z9H D   1     121.409  63.623 146.6850  0.00  0.00     0.000 S
ATOM     18   O  Z9H D   1     122.857  64.295 146.9260  0.00  0.00     0.000 O
ATOM     19   O  Z9H D   1     120.307  64.343 147.2570  0.00  0.00     0.000 O
ATOM     20   O  Z9H D   1     121.514  62.206 146.7150  0.00  0.00     0.000 OA
ATOM     21   O  Z9H D   1     121.693  64.054 145.3470  0.00  0.00     0.000 OA
ENDBRANCH 5 16
BRANCH 1 22
ATOM     22  O4  GU1 D   2     124.563  67.693 150.1370  0.00  0.00     0.000 O
BRANCH 22 26
ATOM     23  C1  GU1 D   2     123.895  71.411 148.4930  0.00  0.00     0.000 C
ATOM     24  C2  GU1 D   2     123.346  71.225 149.8990  0.00  0.00     0.000 C
ATOM     25  C3  GU1 D   2     123.970  70.010 150.5210  0.00  0.00     0.000 C
ATOM     26  C4  GU1 D   2     123.804  68.793 149.6210  0.00  0.00     0.000 C
ATOM     27  C5  GU1 D   2     124.290  69.118 148.2050  0.00  0.00     0.000 C
ATOM     28  O5  GU1 D   2     123.614  70.265 147.6970  0.00  0.00     0.000 O
ATOM     29   O  GU1 D   2     123.627  72.344 150.7320  0.00  0.00     0.000 O
ATOM     30   C  GU1 D   2     122.558  73.275 150.8240  0.00  0.00     0.000 C
ATOM     31   C  GU1 D   2     124.042  70.157 152.9220  0.00  0.00     0.000 C
ATOM     32   O  GU1 D   2     123.314  69.751 151.7660  0.00  0.00     0.000 O
BRANCH 27 33
ATOM     33   C  GU1 D   2     124.027  67.969 147.2610  0.00  0.00     0.000 C
ATOM     34   O  GU1 D   2     122.877  67.711 146.9730  0.00  0.00     0.000 OA
ATOM     35   O  GU1 D   2     124.953  67.322 146.7970  0.00  0.00     0.000 O
ENDBRANCH 27 33
BRANCH 23 36
ATOM     36  O4  GU6 D   3     123.278  72.357 147.5970  0.00  0.00     0.000 O
BRANCH 36 40
ATOM     37  C1  GU6 D   3     121.010  74.120 144.6920  0.00  0.00     0.000 C
ATOM     38  C2  GU6 D   3     122.299  74.868 145.0100  0.00  0.00     0.000 C
ATOM     39  C3  GU6 D   3     123.180  74.010 145.8790  0.00  0.00     0.000 C
ATOM     40  C4  GU6 D   3     122.602  72.779 146.4310  0.00  0.00     0.000 C
ATOM     41  C5  GU6 D   3     121.111  73.035 146.8290  0.00  0.00     0.000 C
ATOM     42  O5  GU6 D   3     120.346  73.825 145.9110  0.00  0.00     0.000 O
BRANCH 38 43
ATOM     43   O  GU6 D   3     122.982  75.212 143.8200  0.00  0.00     0.000 O
ATOM     44   S  GU6 D   3     123.281  76.698 143.6720  0.00  0.00     0.000 S
ATOM     45   O  GU6 D   3     122.072  77.371 143.1640  0.00  0.00     0.000 OA
ATOM     46   O  GU6 D   3     123.624  77.243 144.9980  0.00  0.00     0.000 O
ATOM     47   O  GU6 D   3     124.406  76.863 142.7570  0.00  0.00     0.000 OA
ENDBRANCH 38 43
BRANCH 39 48
ATOM     48   O  GU6 D   3     124.571  74.254 145.9690  0.00  0.00     0.000 O
ATOM     49   S  GU6 D   3     125.733  73.584 145.2370  0.00  0.00     0.000 S
ATOM     50   O  GU6 D   3     125.531  73.665 143.7860  0.00  0.00     0.000 OA
ATOM     51   O  GU6 D   3     126.894  74.382 145.6560  0.00  0.00     0.000 OA
ATOM     52   O  GU6 D   3     125.815  72.168 145.6590  0.00  0.00     0.000 O
ENDBRANCH 39 48
BRANCH 41 53
ATOM     53   C  GU6 D   3     120.358  72.554 148.0400  0.00  0.00     0.000 C
ATOM     54   O  GU6 D   3     120.409  71.179 147.7620  0.00  0.00     0.000 O
ATOM     55   S  GU6 D   3     119.667  70.176 148.6560  0.00  0.00     0.000 S
ATOM     56   O  GU6 D   3     118.220  70.441 148.4860  0.00  0.00     0.000 O
ATOM     57   O  GU6 D   3     120.002  68.815 148.2120  0.00  0.00     0.000 OA
ATOM     58   O  GU6 D   3     120.095  70.431 150.0500  0.00  0.00     0.000 OA
ENDBRANCH 41 53
BRANCH 37 59
ATOM     59  O4  Z9K D   4     120.919  72.946 143.8570  0.00  0.00     0.000 O
BRANCH 59 63
ATOM     60  C1  Z9K D   4     120.697  70.885 140.5180  0.00  0.00     0.000 C
ATOM     61  C2  Z9K D   4     120.424  72.325 140.0020  0.00  0.00     0.000 C
ATOM     62  C3  Z9K D   4     120.696  73.174 141.3190  0.00  0.00     0.000 C
ATOM     63  C4  Z9K D   4     120.089  72.683 142.6880  0.00  0.00     0.000 C
ATOM     64  C5  Z9K D   4     119.825  71.174 142.8060  0.00  0.00     0.000 C
ATOM     65  O5  Z9K D   4     120.874  70.598 141.9840  0.00  0.00     0.000 O
ATOM     66   O  Z9K D   4     120.284  74.548 141.2040  0.00  0.00     0.000 O
ATOM     67   C  Z9K D   4     121.253  75.403 140.6180  0.00  0.00     0.000 C
BRANCH 61 68
ATOM     68   O  Z9K D   4     121.454  72.644 139.1080  0.00  0.00     0.000 O
ATOM     69   O  Z9K D   4     119.246  73.729 138.4010  0.00  0.00     0.000 OA
ATOM     70   S  Z9K D   4     120.156  72.654 138.1390  0.00  0.00     0.000 S
ATOM     71   O  Z9K D   4     119.790  71.304 137.8370  0.00  0.00     0.000 OA
ATOM     72   O  Z9K D   4     121.199  73.072 137.2590  0.00  0.00     0.000 OA
ENDBRANCH 61 68
BRANCH 64 73
ATOM     73   C  Z9K D   4     119.724  70.748 144.2860  0.00  0.00     0.000 C
ATOM     74   O  Z9K D   4     118.716  71.050 144.9880  0.00  0.00     0.000 O
ATOM     75   O  Z9K D   4     120.630  70.084 144.8460  0.00  0.00     0.000 OA
ENDBRANCH 64 73
BRANCH 60 76
ATOM     76  O4  Z9L D   5     119.952  69.684 140.2550  0.00  0.00     0.000 O
BRANCH 76 80
ATOM     77  C1  Z9L D   5     120.254  65.769 139.5120  0.00  0.00     0.000 C
ATOM     78  C2  Z9L D   5     119.516  65.923 140.9280  0.00  0.00     0.000 C
ATOM     79  C3  Z9L D   5     118.982  67.525 141.0250  0.00  0.00     0.000 C
ATOM     80  C4  Z9L D   5     120.286  68.330 140.4200  0.00  0.00     0.000 C
ATOM     81  C5  Z9L D   5     121.186  68.047 139.1130  0.00  0.00     0.000 C
ATOM     82  O5  Z9L D   5     121.377  66.626 139.0530  0.00  0.00     0.000 O
ATOM     83   C  Z9L D   5     119.762  65.573 137.1430  0.00  0.00     0.000 C
ATOM     84   C  Z9L D   5     119.762  65.573 137.1430  0.00  0.00     0.000 C
BRANCH 78 85
ATOM     85   O  Z9L D   5     118.414  65.073 140.9350  0.00  0.00     0.000 O
ATOM     86   O  Z9L D   5     118.240  63.495 142.0250  0.00  0.00     0.000 OA
ATOM     87   S  Z9L D   5     119.313  64.438 142.1060  0.00  0.00     0.000 S
ATOM     88   O  Z9L D   5     119.147  65.087 143.3830  0.00  0.00     0.000 OA
ATOM     89   O  Z9L D   5     120.472  63.722 141.6960  0.00  0.00     0.000 OA
ENDBRANCH 78 85
BRANCH 79 90
ATOM     90   O  Z9L D   5     118.939  67.966 142.3450  0.00  0.00     0.000 O
ATOM     91   S  Z9L D   5     117.416  68.193 141.9380  0.00  0.00     0.000 S
ATOM     92   O  Z9L D   5     116.590  67.133 141.4230  0.00  0.00     0.000 OA
ATOM     93   O  Z9L D   5     117.239  69.554 141.4960  0.00  0.00     0.000 O
ATOM     94   O  Z9L D   5     117.273  68.190 143.3580  0.00  0.00     0.000 OA
ENDBRANCH 79 90
BRANCH 81 95
ATOM     95   C  Z9L D   5     122.512  69.043 138.8620  0.00  0.00     0.000 C
ATOM     96   S  Z9L D   5     124.475  69.238 139.1380  0.00  0.00     0.000 S
ATOM     97   O  Z9L D   5     123.278  68.628 139.9600  0.00  0.00     0.000 O
ATOM     98   O  Z9L D   5     124.332  70.670 139.1980  0.00  0.00     0.000 OA
ATOM     99   O  Z9L D   5     124.789  68.575 137.9170  0.00  0.00     0.000 OA
ATOM    100   O  Z9L D   5     125.208  68.804 140.3020  0.00  0.00     0.000 O
ENDBRANCH 81 95
ENDBRANCH 76 80
ENDBRANCH 60 76
ENDBRANCH 59 63
ENDBRANCH 37 59
ENDBRANCH 36 40
ENDBRANCH 23 36
ENDBRANCH 22 26
ENDBRANCH 1 22
TORSDOF 19
ENDMDL
MODEL 67
REMARK VINA RESULT:      -0.5     55.020     60.620
ROOT
ATOM      1  C1  Z9H D   1      36.935  84.953  44.8790  0.00  0.00     0.000 C
ATOM      2  C2  Z9H D   1      37.788  85.657  45.9610  0.00  0.00     0.000 C
ATOM      3  C3  Z9H D   1      38.690  86.507  45.0150  0.00  0.00     0.000 C
ATOM      4  C4  Z9H D   1      39.381  85.706  43.8350  0.00  0.00     0.000 C
ATOM      5  C5  Z9H D   1      38.601  84.694  42.9040  0.00  0.00     0.000 C
ATOM      6  O5  Z9H D   1      37.575  84.207  43.8060  0.00  0.00     0.000 O
ATOM      7   O  Z9H D   1      39.665  87.253  45.7470  0.00  0.00     0.000 O
ATOM      8   C  Z9H D   1      39.328  88.628  45.9960  0.00  0.00     0.000 C
ATOM      9   O  Z9H D   1      39.967  86.697  42.9840  0.00  0.00     0.000 O
ATOM     10   C  Z9H D   1      41.370  86.915  43.1650  0.00  0.00     0.000 C
ENDROOT
BRANCH 2 11
ATOM     11   O  Z9H D   1      36.871  86.568  46.5080  0.00  0.00     0.000 O
ATOM     12   O  Z9H D   1      36.198  86.466  48.2670  0.00  0.00     0.000 OA
ATOM     13   S  Z9H D   1      37.164  85.577  47.7150  0.00  0.00     0.000 S
ATOM     14   O  Z9H D   1      38.501  85.814  48.1780  0.00  0.00     0.000 OA
ATOM     15   O  Z9H D   1      36.580  84.275  47.4910  0.00  0.00     0.000 O
ENDBRANCH 2 11
BRANCH 5 16
ATOM     16   C  Z9H D   1      39.568  83.640  42.0360  0.00  0.00     0.000 C
ATOM     17   S  Z9H D   1      39.755  82.662  40.2900  0.00  0.00     0.000 S
ATOM     18   O  Z9H D   1      39.287  84.137  40.7500  0.00  0.00     0.000 O
ATOM     19   O  Z9H D   1      38.871  81.601  40.6810  0.00  0.00     0.000 O
ATOM     20   O  Z9H D   1      41.171  82.557  40.3450  0.00  0.00     0.000 OA
ATOM     21   O  Z9H D   1      39.405  83.206  39.0110  0.00  0.00     0.000 OA
ENDBRANCH 5 16
BRANCH 1 22
ATOM     22  O4  GU1 D   2      36.063  85.848  44.0990  0.00  0.00     0.000 O
BRANCH 22 26
ATOM     23  C1  GU1 D   2      32.420  86.192  42.2060  0.00  0.00     0.000 C
ATOM     24  C2  GU1 D   2      32.408  85.339  43.4660  0.00  0.00     0.000 C
ATOM     25  C3  GU1 D   2      33.659  85.600  44.2550  0.00  0.00     0.000 C
ATOM     26  C4  GU1 D   2      34.896  85.416  43.3880  0.00  0.00     0.000 C
ATOM     27  C5  GU1 D   2      34.761  86.234  42.1000  0.00  0.00     0.000 C
ATOM     28  O5  GU1 D   2      33.561  85.888  41.4140  0.00  0.00     0.000 O
ATOM     29   O  GU1 D   2      31.290  85.631  44.2960  0.00  0.00     0.000 O
ATOM     30   C  GU1 D   2      30.195  84.745  44.1180  0.00  0.00     0.000 C
ATOM     31   C  GU1 D   2      33.346  85.197  46.6070  0.00  0.00     0.000 C
ATOM     32   O  GU1 D   2      33.714  84.665  45.3360  0.00  0.00     0.000 O
BRANCH 27 33
ATOM     33   C  GU1 D   2      35.920  85.977  41.1660  0.00  0.00     0.000 C
ATOM     34   O  GU1 D   2      35.989  84.897  40.6150  0.00  0.00     0.000 OA
ATOM     35   O  GU1 D   2      36.762  86.839  40.9700  0.00  0.00     0.000 O
ENDBRANCH 27 33
BRANCH 23 36
ATOM     36  O4  GU6 D   3      31.456  85.948  41.1620  0.00  0.00     0.000 O
BRANCH 36 40
ATOM     37  C1  GU6 D   3      29.575  84.690  37.7610  0.00  0.00     0.000 C
ATOM     38  C2  GU6 D   3      29.018  85.989  38.3320  0.00  0.00     0.000 C
ATOM     39  C3  GU6 D   3      29.939  86.504  39.4060  0.00  0.00     0.000 C
ATOM     40  C4  GU6 D   3      31.019  85.620  39.8590  0.00  0.00     0.000 C
ATOM     41  C5  GU6 D   3      30.502  84.144  39.9040  0.00  0.00     0.000 C
ATOM     42  O5  GU6 D   3      29.672  83.740  38.8100  0.00  0.00     0.000 O
BRANCH 38 43
ATOM     43   O  GU6 D   3      28.874  86.959  37.3120  0.00  0.00     0.000 O
ATOM     44   S  GU6 D   3      27.469  87.533  37.1830  0.00  0.00     0.000 S
ATOM     45   O  GU6 D   3      26.651  86.595  36.3950  0.00  0.00     0.000 OA
ATOM     46   O  GU6 D   3      26.892  87.672  38.5320  0.00  0.00     0.000 O
ATOM     47   O  GU6 D   3      27.552  88.839  36.5370  0.00  0.00     0.000 OA
ENDBRANCH 38 43
BRANCH 39 48
ATOM     48   O  GU6 D   3      29.911  87.863  39.7960  0.00  0.00     0.000 O
ATOM     49   S  GU6 D   3      30.807  89.025  39.3680  0.00  0.00     0.000 S
ATOM     50   O  GU6 D   3      30.802  89.155  37.9060  0.00  0.00     0.000 OA
ATOM     51   O  GU6 D   3      30.175  90.187  40.0070  0.00  0.00     0.000 OA
ATOM     52   O  GU6 D   3      32.184  88.772  39.8490  0.00  0.00     0.000 O
ENDBRANCH 39 48
BRANCH 41 53
ATOM     53   C  GU6 D   3      30.769  83.078  40.9320  0.00  0.00     0.000 C
ATOM     54   O  GU6 D   3      32.151  82.950  40.7210  0.00  0.00     0.000 O
ATOM     55   S  GU6 D   3      32.955  81.873  41.4620  0.00  0.00     0.000 S
ATOM     56   O  GU6 D   3      32.474  80.563  40.9640  0.00  0.00     0.000 O
ATOM     57   O  GU6 D   3      34.380  82.056  41.1510  0.00  0.00     0.000 OA
ATOM     58   O  GU6 D   3      32.673  82.030  42.9060  0.00  0.00     0.000 OA
ENDBRANCH 41 53
BRANCH 37 59
ATOM     59  O4  Z9K D   4      30.777  84.581  36.9700  0.00  0.00     0.000 O
BRANCH 59 63
ATOM     60  C1  Z9K D   4      33.028  84.740  33.7520  0.00  0.00     0.000 C
ATOM     61  C2  Z9K D   4      31.608  84.852  33.1320  0.00  0.00     0.000 C
ATOM     62  C3  Z9K D   4      30.715  84.974  34.4430  0.00  0.00     0.000 C
ATOM     63  C4  Z9K D   4      30.990  83.999  35.6510  0.00  0.00     0.000 C
ATOM     64  C5  Z9K D   4      32.419  83.447  35.7620  0.00  0.00     0.000 C
ATOM     65  O5  Z9K D   4      33.225  84.530  35.2290  0.00  0.00     0.000 O
ATOM     66   O  Z9K D   4      29.305  84.854  34.1840  0.00  0.00     0.000 O
ATOM     67   C  Z9K D   4      28.673  86.066  33.8070  0.00  0.00     0.000 C
BRANCH 61 68
ATOM     68   O  Z9K D   4      31.537  86.096  32.4910  0.00  0.00     0.000 O
ATOM     69   O  Z9K D   4      30.162  84.333  31.2460  0.00  0.00     0.000 OA
ATOM     70   S  Z9K D   4      31.390  85.070  31.2470  0.00  0.00     0.000 S
ATOM     71   O  Z9K D   4      32.681  84.544  30.9220  0.00  0.00     0.000 OA
ATOM     72   O  Z9K D   4      31.223  86.340  30.6180  0.00  0.00     0.000 OA
ENDBRANCH 61 68
BRANCH 64 73
ATOM     73   C  Z9K D   4      32.704  82.944  37.1930  0.00  0.00     0.000 C
ATOM     74   O  Z9K D   4      32.179  81.880  37.6300  0.00  0.00     0.000 O
ATOM     75   O  Z9K D   4      33.469  83.565  37.9710  0.00  0.00     0.000 OA
ENDBRANCH 64 73
BRANCH 60 76
ATOM     76  O4  Z9L D   5      34.105  83.867  33.3690  0.00  0.00     0.000 O
BRANCH 76 80
ATOM     77  C1  Z9L D   5      38.069  83.606  32.9380  0.00  0.00     0.000 C
ATOM     78  C2  Z9L D   5      37.653  82.570  34.0890  0.00  0.00     0.000 C
ATOM     79  C3  Z9L D   5      35.982  82.341  33.9550  0.00  0.00     0.000 C
ATOM     80  C4  Z9L D   5      35.472  83.885  33.6880  0.00  0.00     0.000 C
ATOM     81  C5  Z9L D   5      36.031  85.022  32.6910  0.00  0.00     0.000 C
ATOM     82  O5  Z9L D   5      37.463  84.950  32.7590  0.00  0.00     0.000 O
ATOM     83   C  Z9L D   5      38.416  83.715  30.5380  0.00  0.00     0.000 C
ATOM     84   C  Z9L D   5      38.416  83.715  30.5380  0.00  0.00     0.000 C
BRANCH 78 85
ATOM     85   O  Z9L D   5      38.300  81.363  33.8390  0.00  0.00     0.000 O
ATOM     86   O  Z9L D   5      39.713  80.621  34.9180  0.00  0.00     0.000 OA
ATOM     87   S  Z9L D   5      38.960  81.796  35.2390  0.00  0.00     0.000 S
ATOM     88   O  Z9L D   5      38.172  81.432  36.3910  0.00  0.00     0.000 OA
ATOM     89   O  Z9L D   5      39.897  82.865  35.1940  0.00  0.00     0.000 OA
ENDBRANCH 78 85
BRANCH 79 90
ATOM     90   O  Z9L D   5      35.410  82.043  35.1890  0.00  0.00     0.000 O
ATOM     91   S  Z9L D   5      34.963  80.753  34.3690  0.00  0.00     0.000 S
ATOM     92   O  Z9L D   5      35.908  79.899  33.7000  0.00  0.00     0.000 OA
ATOM     93   O  Z9L D   5      33.643  80.966  33.8290  0.00  0.00     0.000 O
ATOM     94   O  Z9L D   5      34.799  80.247  35.6930  0.00  0.00     0.000 OA
ENDBRANCH 79 90
BRANCH 81 95
ATOM     95   C  Z9L D   5      35.303  86.531  32.7600  0.00  0.00     0.000 C
ATOM     96   S  Z9L D   5      35.405  88.351  33.5630  0.00  0.00     0.000 S
ATOM     97   O  Z9L D   5      35.712  86.886  34.0530  0.00  0.00     0.000 O
ATOM     98   O  Z9L D   5      33.971  88.471  33.4900  0.00  0.00     0.000 OA
ATOM     99   O  Z9L D   5      36.244  88.845  32.5240  0.00  0.00     0.000 OA
ATOM    100   O  Z9L D   5      35.819  88.654  34.9110  0.00  0.00     0.000 O
ENDBRANCH 81 95
ENDBRANCH 76 80
ENDBRANCH 60 76
ENDBRANCH 59 63
ENDBRANCH 37 59
ENDBRANCH 36 40
ENDBRANCH 23 36
ENDBRANCH 22 26
ENDBRANCH 1 22
TORSDOF 19
ENDMDL
MODEL 68
REMARK VINA RESULT:      -0.5    142.627    148.595
ROOT
ATOM      1  C1  Z9H D   1      67.946 113.564 130.5120  0.00  0.00     0.000 C
ATOM      2  C2  Z9H D   1      68.686 113.794 131.8510  0.00  0.00     0.000 C
ATOM      3  C3  Z9H D   1      67.887 115.042 132.3360  0.00  0.00     0.000 C
ATOM      4  C4  Z9H D   1      67.748 116.213 131.2770  0.00  0.00     0.000 C
ATOM      5  C5  Z9H D   1      67.318 115.973 129.7750  0.00  0.00     0.000 C
ATOM      6  O5  Z9H D   1      67.833 114.639 129.5380  0.00  0.00     0.000 O
ATOM      7   O  Z9H D   1      68.398 115.547 133.5710  0.00  0.00     0.000 O
ATOM      8   C  Z9H D   1      67.682 115.136 134.7480  0.00  0.00     0.000 C
ATOM      9   O  Z9H D   1      66.813 117.138 131.8410  0.00  0.00     0.000 O
ATOM     10   C  Z9H D   1      67.387 118.281 132.4820  0.00  0.00     0.000 C
ENDROOT
BRANCH 2 11
ATOM     11   O  Z9H D   1      68.212 112.729 132.6330  0.00  0.00     0.000 O
ATOM     12   O  Z9H D   1      69.277 111.284 133.2140  0.00  0.00     0.000 OA
ATOM     13   S  Z9H D   1      69.756 112.394 132.4600  0.00  0.00     0.000 S
ATOM     14   O  Z9H D   1      70.511 113.338 133.2340  0.00  0.00     0.000 OA
ATOM     15   O  Z9H D   1      70.066 111.990 131.1090  0.00  0.00     0.000 O
ENDBRANCH 2 11
BRANCH 5 16
ATOM     16   C  Z9H D   1      67.657 117.235 128.7300  0.00  0.00     0.000 C
ATOM     17   S  Z9H D   1      66.974 118.270 127.1480  0.00  0.00     0.000 S
ATOM     18   O  Z9H D   1      66.333 117.650 128.4940  0.00  0.00     0.000 O
ATOM     19   O  Z9H D   1      67.430 117.299 126.1960  0.00  0.00     0.000 O
ATOM     20   O  Z9H D   1      67.687 119.462 127.4490  0.00  0.00     0.000 OA
ATOM     21   O  Z9H D   1      65.600 118.624 126.9380  0.00  0.00     0.000 OA
ENDBRANCH 5 16
BRANCH 1 22
ATOM     22  O4  GU1 D   2      66.530 113.176 130.6460  0.00  0.00     0.000 O
BRANCH 22 26
ATOM     23  C1  GU1 D   2      63.479 110.929 129.0300  0.00  0.00     0.000 C
ATOM     24  C2  GU1 D   2      64.858 110.294 128.9390  0.00  0.00     0.000 C
ATOM     25  C3  GU1 D   2      65.794 111.001 129.8760  0.00  0.00     0.000 C
ATOM     26  C4  GU1 D   2      65.781 112.502 129.6280  0.00  0.00     0.000 C
ATOM     27  C5  GU1 D   2      64.341 113.023 129.6360  0.00  0.00     0.000 C
ATOM     28  O5  GU1 D   2      63.547 112.309 128.6920  0.00  0.00     0.000 O
ATOM     29   O  GU1 D   2      64.834 108.916 129.2910  0.00  0.00     0.000 O
ATOM     30   C  GU1 D   2      64.751 108.039 128.1760  0.00  0.00     0.000 C
ATOM     31   C  GU1 D   2      67.585 109.573 130.6150  0.00  0.00     0.000 C
ATOM     32   O  GU1 D   2      67.119 110.511 129.6470  0.00  0.00     0.000 O
BRANCH 27 33
ATOM     33   C  GU1 D   2      64.287 114.488 129.2730  0.00  0.00     0.000 C
ATOM     34   O  GU1 D   2      64.526 114.808 128.1270  0.00  0.00     0.000 OA
ATOM     35   O  GU1 D   2      64.006 115.326 130.1150  0.00  0.00     0.000 O
ENDBRANCH 27 33
BRANCH 23 36
ATOM     36  O4  GU6 D   3      62.468 110.597 128.0580  0.00  0.00     0.000 O
BRANCH 36 40
ATOM     37  C1  GU6 D   3      59.994 110.601 124.8060  0.00  0.00     0.000 C
ATOM     38  C2  GU6 D   3      59.438 109.844 126.0050  0.00  0.00     0.000 C
ATOM     39  C3  GU6 D   3      60.283 110.129 127.2190  0.00  0.00     0.000 C
ATOM     40  C4  GU6 D   3      61.546 110.847 127.0160  0.00  0.00     0.000 C
ATOM     41  C5  GU6 D   3      62.214 110.366 125.6850  0.00  0.00     0.000 C
ATOM     42  O5  GU6 D   3      61.327 110.170 124.5770  0.00  0.00     0.000 O
BRANCH 38 43
ATOM     43   O  GU6 D   3      58.097 110.220 126.2520  0.00  0.00     0.000 O
ATOM     44   S  GU6 D   3      57.112 109.058 126.2790  0.00  0.00     0.000 S
ATOM     45   O  GU6 D   3      56.754 108.715 124.8920  0.00  0.00     0.000 OA
ATOM     46   O  GU6 D   3      57.768 107.901 126.9160  0.00  0.00     0.000 O
ATOM     47   O  GU6 D   3      55.938 109.454 127.0500  0.00  0.00     0.000 OA
ENDBRANCH 38 43
BRANCH 39 48
ATOM     48   O  GU6 D   3      59.775 109.923 128.5230  0.00  0.00     0.000 O
ATOM     49   S  GU6 D   3      59.172 110.922 129.5100  0.00  0.00     0.000 S
ATOM     50   O  GU6 D   3      58.053 111.637 128.8850  0.00  0.00     0.000 OA
ATOM     51   O  GU6 D   3      58.708 110.065 130.6090  0.00  0.00     0.000 OA
ATOM     52   O  GU6 D   3      60.220 111.882 129.9210  0.00  0.00     0.000 O
ENDBRANCH 39 48
BRANCH 41 53
ATOM     53   C  GU6 D   3      63.665 110.093 125.3980  0.00  0.00     0.000 C
ATOM     54   O  GU6 D   3      64.139 111.407 125.5410  0.00  0.00     0.000 O
ATOM     55   S  GU6 D   3      65.605 111.743 125.2370  0.00  0.00     0.000 S
ATOM     56   O  GU6 D   3      65.799 111.534 123.7840  0.00  0.00     0.000 O
ATOM     57   O  GU6 D   3      65.847 113.148 125.5970  0.00  0.00     0.000 OA
ATOM     58   O  GU6 D   3      66.442 110.812 126.0260  0.00  0.00     0.000 OA
ENDBRANCH 41 53
BRANCH 37 59
ATOM     59  O4  Z9K D   4      59.974 112.036 124.6490  0.00  0.00     0.000 O
BRANCH 59 63
ATOM     60  C1  Z9K D   4      58.473 115.563 123.7820  0.00  0.00     0.000 C
ATOM     61  C2  Z9K D   4      57.403 114.620 123.1650  0.00  0.00     0.000 C
ATOM     62  C3  Z9K D   4      57.917 113.205 123.6770  0.00  0.00     0.000 C
ATOM     63  C4  Z9K D   4      59.451 112.860 123.5670  0.00  0.00     0.000 C
ATOM     64  C5  Z9K D   4      60.414 114.057 123.5700  0.00  0.00     0.000 C
ATOM     65  O5  Z9K D   4      59.727 115.021 124.4110  0.00  0.00     0.000 O
ATOM     66   O  Z9K D   4      57.243 112.096 123.0550  0.00  0.00     0.000 O
ATOM     67   C  Z9K D   4      56.025 111.726 123.6790  0.00  0.00     0.000 C
BRANCH 61 68
ATOM     68   O  Z9K D   4      56.199 114.868 123.8380  0.00  0.00     0.000 O
ATOM     69   O  Z9K D   4      55.781 114.258 121.3880  0.00  0.00     0.000 OA
ATOM     70   S  Z9K D   4      55.842 115.336 122.3280  0.00  0.00     0.000 S
ATOM     71   O  Z9K D   4      56.420 116.623 122.0900  0.00  0.00     0.000 OA
ATOM     72   O  Z9K D   4      54.594 115.494 123.0030  0.00  0.00     0.000 OA
ENDBRANCH 61 68
BRANCH 64 73
ATOM     73   C  Z9K D   4      61.839 113.614 123.9610  0.00  0.00     0.000 C
ATOM     74   O  Z9K D   4      62.557 112.939 123.1670  0.00  0.00     0.000 O
ATOM     75   O  Z9K D   4      62.342 113.910 125.0730  0.00  0.00     0.000 OA
ENDBRANCH 64 73
BRANCH 60 76
ATOM     76  O4  Z9L D   5      59.128 116.690 123.1750  0.00  0.00     0.000 O
BRANCH 76 80
ATOM     77  C1  Z9L D   5      60.598 120.345 123.8480  0.00  0.00     0.000 C
ATOM     78  C2  Z9L D   5      61.837 119.405 123.4560  0.00  0.00     0.000 C
ATOM     79  C3  Z9L D   5      61.186 118.019 122.7370  0.00  0.00     0.000 C
ATOM     80  C4  Z9L D   5      59.906 117.720 123.7290  0.00  0.00     0.000 C
ATOM     81  C5  Z9L D   5      58.777 118.708 124.3210  0.00  0.00     0.000 C
ATOM     82  O5  Z9L D   5      59.454 119.917 124.6930  0.00  0.00     0.000 O
ATOM     83   C  Z9L D   5      58.971 121.836 122.8370  0.00  0.00     0.000 C
ATOM     84   C  Z9L D   5      58.971 121.836 122.8370  0.00  0.00     0.000 C
BRANCH 78 85
ATOM     85   O  Z9L D   5      62.614 120.083 122.5210  0.00  0.00     0.000 O
ATOM     86   O  Z9L D   5      64.382 120.774 122.8440  0.00  0.00     0.000 OA
ATOM     87   S  Z9L D   5      63.631 119.970 123.7590  0.00  0.00     0.000 S
ATOM     88   O  Z9L D   5      64.337 118.714 123.8190  0.00  0.00     0.000 OA
ATOM     89   O  Z9L D   5      63.370 120.815 124.8730  0.00  0.00     0.000 OA
ENDBRANCH 78 85
BRANCH 79 90
ATOM     90   O  Z9L D   5      61.999 116.909 122.9490  0.00  0.00     0.000 O
ATOM     91   S  Z9L D   5      61.961 116.912 121.3560  0.00  0.00     0.000 S
ATOM     92   O  Z9L D   5      62.358 118.055 120.5780  0.00  0.00     0.000 OA
ATOM     93   O  Z9L D   5      60.910 116.034 120.9030  0.00  0.00     0.000 O
ATOM     94   O  Z9L D   5      63.125 116.109 121.5530  0.00  0.00     0.000 OA
ENDBRANCH 79 90
BRANCH 81 95
ATOM     95   C  Z9L D   5      57.665 118.052 125.3920  0.00  0.00     0.000 C
ATOM     96   S  Z9L D   5      57.211 117.803 127.3150  0.00  0.00     0.000 S
ATOM     97   O  Z9L D   5      58.538 117.829 126.4670  0.00  0.00     0.000 O
ATOM     98   O  Z9L D   5      56.546 116.564 127.0050  0.00  0.00     0.000 OA
ATOM     99   O  Z9L D   5      56.495 119.032 127.3830  0.00  0.00     0.000 OA
ATOM    100   O  Z9L D   5      58.155 117.560 128.3780  0.00  0.00     0.000 O
ENDBRANCH 81 95
ENDBRANCH 76 80
ENDBRANCH 60 76
ENDBRANCH 59 63
ENDBRANCH 37 59
ENDBRANCH 36 40
ENDBRANCH 23 36
ENDBRANCH 22 26
ENDBRANCH 1 22
TORSDOF 19
ENDMDL
MODEL 69
REMARK VINA RESULT:      -0.5    147.664    152.495
ROOT
ATOM      1  C1  Z9H D   1      84.272  52.977 141.6380  0.00  0.00     0.000 C
ATOM      2  C2  Z9H D   1      82.946  52.625 142.3520  0.00  0.00     0.000 C
ATOM      3  C3  Z9H D   1      83.421  51.328 143.0770  0.00  0.00     0.000 C
ATOM      4  C4  Z9H D   1      84.151  50.265 142.1570  0.00  0.00     0.000 C
ATOM      5  C5  Z9H D   1      85.301  50.646 141.1410  0.00  0.00     0.000 C
ATOM      6  O5  Z9H D   1      84.931  52.001 140.7840  0.00  0.00     0.000 O
ATOM      7   O  Z9H D   1      82.356  50.710 143.8020  0.00  0.00     0.000 O
ATOM      8   C  Z9H D   1      82.321  50.998 145.2100  0.00  0.00     0.000 C
ATOM      9   O  Z9H D   1      84.685  49.280 143.0480  0.00  0.00     0.000 O
ATOM     10   C  Z9H D   1      83.910  48.085 143.1840  0.00  0.00     0.000 C
ENDROOT
BRANCH 2 11
ATOM     11   O  Z9H D   1      82.886  53.604 143.3560  0.00  0.00     0.000 O
ATOM     12   O  Z9H D   1      81.606  54.988 143.4120  0.00  0.00     0.000 OA
ATOM     13   S  Z9H D   1      81.649  53.961 142.4260  0.00  0.00     0.000 S
ATOM     14   O  Z9H D   1      80.647  52.948 142.5990  0.00  0.00     0.000 OA
ATOM     15   O  Z9H D   1      82.075  54.500 141.1550  0.00  0.00     0.000 O
ENDBRANCH 2 11
BRANCH 5 16
ATOM     16   C  Z9H D   1      85.622  49.494 139.9700  0.00  0.00     0.000 C
ATOM     17   S  Z9H D   1      87.087  48.597 138.9260  0.00  0.00     0.000 S
ATOM     18   O  Z9H D   1      86.876  49.074 140.4530  0.00  0.00     0.000 O
ATOM     19   O  Z9H D   1      87.189  49.662 137.9700  0.00  0.00     0.000 O
ATOM     20   O  Z9H D   1      86.363  47.398 138.6820  0.00  0.00     0.000 OA
ATOM     21   O  Z9H D   1      88.365  48.234 139.4630  0.00  0.00     0.000 OA
ENDBRANCH 5 16
BRANCH 1 22
ATOM     22  O4  GU1 D   2      85.383  53.338 142.5370  0.00  0.00     0.000 O
BRANCH 22 26
ATOM     23  C1  GU1 D   2      88.697  55.739 143.0060  0.00  0.00     0.000 C
ATOM     24  C2  GU1 D   2      87.543  56.382 142.2530  0.00  0.00     0.000 C
ATOM     25  C3  GU1 D   2      86.293  55.581 142.4790  0.00  0.00     0.000 C
ATOM     26  C4  GU1 D   2      86.519  54.114 142.1400  0.00  0.00     0.000 C
ATOM     27  C5  GU1 D   2      87.762  53.594 142.8680  0.00  0.00     0.000 C
ATOM     28  O5  GU1 D   2      88.895  54.402 142.5610  0.00  0.00     0.000 O
ATOM     29   O  GU1 D   2      87.301  57.715 142.6870  0.00  0.00     0.000 O
ATOM     30   C  GU1 D   2      87.912  58.705 141.8720  0.00  0.00     0.000 C
ATOM     31   C  GU1 D   2      84.307  56.925 142.2750  0.00  0.00     0.000 C
ATOM     32   O  GU1 D   2      85.266  56.094 141.6250  0.00  0.00     0.000 O
BRANCH 27 33
ATOM     33   C  GU1 D   2      88.081  52.175 142.4590  0.00  0.00     0.000 C
ATOM     34   O  GU1 D   2      87.920  51.289 143.2720  0.00  0.00     0.000 OA
ATOM     35   O  GU1 D   2      88.488  51.931 141.3330  0.00  0.00     0.000 O
ENDBRANCH 27 33
BRANCH 23 36
ATOM     36  O4  GU6 D   3      90.050  56.171 142.7580  0.00  0.00     0.000 O
BRANCH 36 40
ATOM     37  C1  GU6 D   3      93.876  56.500 141.3630  0.00  0.00     0.000 C
ATOM     38  C2  GU6 D   3      93.661  57.130 142.7340  0.00  0.00     0.000 C
ATOM     39  C3  GU6 D   3      92.314  56.722 143.2710  0.00  0.00     0.000 C
ATOM     40  C4  GU6 D   3      91.398  56.029 142.3590  0.00  0.00     0.000 C
ATOM     41  C5  GU6 D   3      91.522  56.644 140.9260  0.00  0.00     0.000 C
ATOM     42  O5  GU6 D   3      92.851  56.952 140.4920  0.00  0.00     0.000 O
BRANCH 38 43
ATOM     43   O  GU6 D   3      94.679  56.730 143.6310  0.00  0.00     0.000 O
ATOM     44   S  GU6 D   3      95.430  57.884 144.2840  0.00  0.00     0.000 S
ATOM     45   O  GU6 D   3      96.456  58.366 143.3440  0.00  0.00     0.000 OA
ATOM     46   O  GU6 D   3      94.473  58.969 144.5640  0.00  0.00     0.000 O
ATOM     47   O  GU6 D   3      96.028  57.410 145.5280  0.00  0.00     0.000 OA
ENDBRANCH 38 43
BRANCH 39 48
ATOM     48   O  GU6 D   3      92.032  56.793 144.6560  0.00  0.00     0.000 O
ATOM     49   S  GU6 D   3      92.071  55.699 145.7220  0.00  0.00     0.000 S
ATOM     50   O  GU6 D   3      93.390  55.057 145.7390  0.00  0.00     0.000 OA
ATOM     51   O  GU6 D   3      91.823  56.439 146.9670  0.00  0.00     0.000 OA
ATOM     52   O  GU6 D   3      91.024  54.698 145.4200  0.00  0.00     0.000 O
ENDBRANCH 39 48
BRANCH 41 53
ATOM     53   C  GU6 D   3      90.437  56.945 139.9270  0.00  0.00     0.000 C
ATOM     54   O  GU6 D   3      90.022  55.625 139.6910  0.00  0.00     0.000 O
ATOM     55   S  GU6 D   3      88.963  55.321 138.6230  0.00  0.00     0.000 S
ATOM     56   O  GU6 D   3      89.567  55.662 137.3140  0.00  0.00     0.000 O
ATOM     57   O  GU6 D   3      88.632  53.890 138.6860  0.00  0.00     0.000 OA
ATOM     58   O  GU6 D   3      87.792  56.179 138.9090  0.00  0.00     0.000 OA
ENDBRANCH 41 53
BRANCH 37 59
ATOM     59  O4  Z9K D   4      94.056  55.089 141.1190  0.00  0.00     0.000 O
BRANCH 59 63
ATOM     60  C1  Z9K D   4      95.962  51.660 140.8870  0.00  0.00     0.000 C
ATOM     61  C2  Z9K D   4      97.146  52.652 141.0500  0.00  0.00     0.000 C
ATOM     62  C3  Z9K D   4      96.366  54.010 141.3270  0.00  0.00     0.000 C
ATOM     63  C4  Z9K D   4      95.125  54.380 140.4290  0.00  0.00     0.000 C
ATOM     64  C5  Z9K D   4      94.378  53.199 139.7900  0.00  0.00     0.000 C
ATOM     65  O5  Z9K D   4      94.542  52.144 140.7750  0.00  0.00     0.000 O
ATOM     66   O  Z9K D   4      97.213  55.172 141.2840  0.00  0.00     0.000 O
ATOM     67   C  Z9K D   4      97.873  55.462 142.5060  0.00  0.00     0.000 C
BRANCH 61 68
ATOM     68   O  Z9K D   4      97.799  52.322 142.2450  0.00  0.00     0.000 O
ATOM     69   O  Z9K D   4      99.453  53.190 140.4970  0.00  0.00     0.000 OA
ATOM     70   S  Z9K D   4      98.946  52.017 141.1430  0.00  0.00     0.000 S
ATOM     71   O  Z9K D   4      98.659  50.769 140.5040  0.00  0.00     0.000 OA
ATOM     72   O  Z9K D   4      99.630  51.776 142.3720  0.00  0.00     0.000 OA
ENDBRANCH 61 68
BRANCH 64 73
ATOM     73   C  Z9K D   4      92.950  53.612 139.3760  0.00  0.00     0.000 C
ATOM     74   O  Z9K D   4      92.749  54.374 138.3870  0.00  0.00     0.000 O
ATOM     75   O  Z9K D   4      91.938  53.205 139.9970  0.00  0.00     0.000 OA
ENDBRANCH 64 73
BRANCH 60 76
ATOM     76  O4  Z9L D   5      95.801  50.610 139.9180  0.00  0.00     0.000 O
BRANCH 76 80
ATOM     77  C1  Z9L D   5      94.542  46.856 139.3760  0.00  0.00     0.000 C
ATOM     78  C2  Z9L D   5      93.583  47.803 138.5070  0.00  0.00     0.000 C
ATOM     79  C3  Z9L D   5      94.373  49.292 138.3630  0.00  0.00     0.000 C
ATOM     80  C4  Z9L D   5      94.951  49.493 139.8920  0.00  0.00     0.000 C
ATOM     81  C5  Z9L D   5      95.719  48.467 140.8720  0.00  0.00     0.000 C
ATOM     82  O5  Z9L D   5      95.063  47.199 140.7240  0.00  0.00     0.000 O
ATOM     83   C  Z9L D   5      96.588  45.563 139.1860  0.00  0.00     0.000 C
ATOM     84   C  Z9L D   5      96.588  45.563 139.1860  0.00  0.00     0.000 C
BRANCH 78 85
ATOM     85   O  Z9L D   5      93.445  47.236 137.2440  0.00  0.00     0.000 O
ATOM     86   O  Z9L D   5      91.826  46.454 136.5520  0.00  0.00     0.000 OA
ATOM     87   S  Z9L D   5      91.939  47.150 137.7980  0.00  0.00     0.000 S
ATOM     88   O  Z9L D   5      91.183  48.364 137.6180  0.00  0.00     0.000 OA
ATOM     89   O  Z9L D   5      91.687  46.170 138.7980  0.00  0.00     0.000 OA
ENDBRANCH 78 85
BRANCH 79 90
ATOM     90   O  Z9L D   5      93.463  50.339 138.2440  0.00  0.00     0.000 O
ATOM     91   S  Z9L D   5      94.280  50.541 136.8920  0.00  0.00     0.000 S
ATOM     92   O  Z9L D   5      94.424  49.493 135.9150  0.00  0.00     0.000 OA
ATOM     93   O  Z9L D   5      95.332  51.502 137.1090  0.00  0.00     0.000 O
ATOM     94   O  Z9L D   5      93.102  51.273 136.5550  0.00  0.00     0.000 OA
ENDBRANCH 79 90
BRANCH 81 95
ATOM     95   C  Z9L D   5      96.080  49.006 142.4190  0.00  0.00     0.000 C
ATOM     96   S  Z9L D   5      95.465  49.039 144.3130  0.00  0.00     0.000 S
ATOM     97   O  Z9L D   5      94.767  49.100 142.9030  0.00  0.00     0.000 O
ATOM     98   O  Z9L D   5      96.116  50.310 144.5090  0.00  0.00     0.000 OA
ATOM     99   O  Z9L D   5      96.121  47.815 144.6270  0.00  0.00     0.000 OA
ATOM    100   O  Z9L D   5      94.096  49.156 144.7520  0.00  0.00     0.000 O
ENDBRANCH 81 95
ENDBRANCH 76 80
ENDBRANCH 60 76
ENDBRANCH 59 63
ENDBRANCH 37 59
ENDBRANCH 36 40
ENDBRANCH 23 36
ENDBRANCH 22 26
ENDBRANCH 1 22
TORSDOF 19
ENDMDL
MODEL 70
REMARK VINA RESULT:      -0.5    154.271    161.423
ROOT
ATOM      1  C1  Z9H D   1     129.693 137.666  78.4240  0.00  0.00     0.000 C
ATOM      2  C2  Z9H D   1     130.208 139.121  78.3240  0.00  0.00     0.000 C
ATOM      3  C3  Z9H D   1     128.837 139.827  78.0920  0.00  0.00     0.000 C
ATOM      4  C4  Z9H D   1     127.939 139.206  76.9440  0.00  0.00     0.000 C
ATOM      5  C5  Z9H D   1     127.663 137.656  76.8050  0.00  0.00     0.000 C
ATOM      6  O5  Z9H D   1     128.881 137.097  77.3600  0.00  0.00     0.000 O
ATOM      7   O  Z9H D   1     128.995 141.233  77.8940  0.00  0.00     0.000 O
ATOM      8   C  Z9H D   1     128.760 142.049  79.0540  0.00  0.00     0.000 C
ATOM      9   O  Z9H D   1     126.667 139.853  77.0530  0.00  0.00     0.000 O
ATOM     10   C  Z9H D   1     126.443 140.932  76.1390  0.00  0.00     0.000 C
ENDROOT
BRANCH 2 11
ATOM     11   O  Z9H D   1     130.545 139.404  79.6570  0.00  0.00     0.000 O
ATOM     12   O  Z9H D   1     132.308 139.675  80.2700  0.00  0.00     0.000 OA
ATOM     13   S  Z9H D   1     131.948 139.435  78.9130  0.00  0.00     0.000 S
ATOM     14   O  Z9H D   1     131.994 140.606  78.0850  0.00  0.00     0.000 OA
ATOM     15   O  Z9H D   1     132.367 138.113  78.5070  0.00  0.00     0.000 O
ENDBRANCH 2 11
BRANCH 5 16
ATOM     16   C  Z9H D   1     127.083 137.170  75.3130  0.00  0.00     0.000 C
ATOM     17   S  Z9H D   1     125.818 135.912  74.3870  0.00  0.00     0.000 S
ATOM     18   O  Z9H D   1     125.779 136.827  75.7160  0.00  0.00     0.000 O
ATOM     19   O  Z9H D   1     126.727 134.803  74.4450  0.00  0.00     0.000 O
ATOM     20   O  Z9H D   1     125.647 136.719  73.2300  0.00  0.00     0.000 OA
ATOM     21   O  Z9H D   1     124.515 135.563  74.8730  0.00  0.00     0.000 OA
ENDBRANCH 5 16
BRANCH 1 22
ATOM     22  O4  GU1 D   2     128.836 137.391  79.5910  0.00  0.00     0.000 O
BRANCH 22 26
ATOM     23  C1  GU1 D   2     127.771 134.577  82.4050  0.00  0.00     0.000 C
ATOM     24  C2  GU1 D   2     129.236 134.550  81.9960  0.00  0.00     0.000 C
ATOM     25  C3  GU1 D   2     129.577 135.828  81.2850  0.00  0.00     0.000 C
ATOM     26  C4  GU1 D   2     128.614 136.085  80.1350  0.00  0.00     0.000 C
ATOM     27  C5  GU1 D   2     127.168 135.987  80.6310  0.00  0.00     0.000 C
ATOM     28  O5  GU1 D   2     126.940 134.729  81.2590  0.00  0.00     0.000 O
ATOM     29   O  GU1 D   2     130.100 134.422  83.1190  0.00  0.00     0.000 O
ATOM     30   C  GU1 D   2     130.518 133.088  83.3730  0.00  0.00     0.000 C
ATOM     31   C  GU1 D   2     131.908 136.389  81.5010  0.00  0.00     0.000 C
ATOM     32   O  GU1 D   2     130.901 135.710  80.7540  0.00  0.00     0.000 O
BRANCH 27 33
ATOM     33   C  GU1 D   2     126.188 136.119  79.4900  0.00  0.00     0.000 C
ATOM     34   O  GU1 D   2     126.110 135.210  78.6880  0.00  0.00     0.000 OA
ATOM     35   O  GU1 D   2     125.491 137.115  79.3810  0.00  0.00     0.000 O
ENDBRANCH 27 33
BRANCH 23 36
ATOM     36  O4  GU6 D   3     127.134 133.376  82.8820  0.00  0.00     0.000 O
BRANCH 36 40
ATOM     37  C1  GU6 D   3     124.986 129.912  83.1700  0.00  0.00     0.000 C
ATOM     38  C2  GU6 D   3     125.099 130.681  84.4810  0.00  0.00     0.000 C
ATOM     39  C3  GU6 D   3     125.662 132.052  84.2150  0.00  0.00     0.000 C
ATOM     40  C4  GU6 D   3     126.191 132.323  82.8730  0.00  0.00     0.000 C
ATOM     41  C5  GU6 D   3     126.924 131.051  82.3330  0.00  0.00     0.000 C
ATOM     42  O5  GU6 D   3     126.280 129.800  82.5990  0.00  0.00     0.000 O
BRANCH 38 43
ATOM     43   O  GU6 D   3     123.833 130.791  85.1040  0.00  0.00     0.000 O
ATOM     44   S  GU6 D   3     123.786 130.259  86.5300  0.00  0.00     0.000 S
ATOM     45   O  GU6 D   3     123.625 128.796  86.4790  0.00  0.00     0.000 OA
ATOM     46   O  GU6 D   3     125.058 130.589  87.1980  0.00  0.00     0.000 O
ATOM     47   O  GU6 D   3     122.673 130.892  87.2310  0.00  0.00     0.000 OA
ENDBRANCH 38 43
BRANCH 39 48
ATOM     48   O  GU6 D   3     125.478 133.106  85.1410  0.00  0.00     0.000 O
ATOM     49   S  GU6 D   3     124.447 134.234  85.1520  0.00  0.00     0.000 S
ATOM     50   O  GU6 D   3     123.090 133.679  85.0880  0.00  0.00     0.000 OA
ATOM     51   O  GU6 D   3     124.691 134.896  86.4400  0.00  0.00     0.000 OA
ATOM     52   O  GU6 D   3     124.689 135.115  83.9880  0.00  0.00     0.000 O
ENDBRANCH 39 48
BRANCH 41 53
ATOM     53   C  GU6 D   3     128.209 130.957  81.5570  0.00  0.00     0.000 C
ATOM     54   O  GU6 D   3     127.780 131.621  80.3960  0.00  0.00     0.000 O
ATOM     55   S  GU6 D   3     128.700 131.720  79.1720  0.00  0.00     0.000 S
ATOM     56   O  GU6 D   3     128.875 130.342  78.6560  0.00  0.00     0.000 O
ATOM     57   O  GU6 D   3     128.049 132.572  78.1660  0.00  0.00     0.000 OA
ATOM     58   O  GU6 D   3     129.988 132.284  79.6340  0.00  0.00     0.000 OA
ENDBRANCH 41 53
BRANCH 37 59
ATOM     59  O4  Z9K D   4     124.070 130.228  82.1010  0.00  0.00     0.000 O
BRANCH 59 63
ATOM     60  C1  Z9K D   4     120.660 130.306  80.1480  0.00  0.00     0.000 C
ATOM     61  C2  Z9K D   4     120.354 129.250  81.2460  0.00  0.00     0.000 C
ATOM     62  C3  Z9K D   4     121.665 129.356  82.1400  0.00  0.00     0.000 C
ATOM     63  C4  Z9K D   4     123.074 129.398  81.4350  0.00  0.00     0.000 C
ATOM     64  C5  Z9K D   4     123.095 129.946  80.0000  0.00  0.00     0.000 C
ATOM     65  O5  Z9K D   4     122.024 130.926  80.0140  0.00  0.00     0.000 O
ATOM     66   O  Z9K D   4     121.772 128.308  83.1190  0.00  0.00     0.000 O
ATOM     67   C  Z9K D   4     121.088 128.568  84.3340  0.00  0.00     0.000 C
BRANCH 61 68
ATOM     68   O  Z9K D   4     119.305 129.757  82.0230  0.00  0.00     0.000 O
ATOM     69   O  Z9K D   4     119.173 127.207  81.8390  0.00  0.00     0.000 OA
ATOM     70   S  Z9K D   4     118.627 128.442  81.3620  0.00  0.00     0.000 S
ATOM     71   O  Z9K D   4     118.275 128.733  80.0060  0.00  0.00     0.000 OA
ATOM     72   O  Z9K D   4     117.598 128.914  82.2320  0.00  0.00     0.000 OA
ENDBRANCH 61 68
BRANCH 64 73
ATOM     73   C  Z9K D   4     124.515 130.405  79.6080  0.00  0.00     0.000 C
ATOM     74   O  Z9K D   4     125.438 129.568  79.3900  0.00  0.00     0.000 O
ATOM     75   O  Z9K D   4     124.807 131.620  79.4850  0.00  0.00     0.000 OA
ENDBRANCH 64 73
BRANCH 60 76
ATOM     76  O4  Z9L D   5     120.438 130.213  78.7300  0.00  0.00     0.000 O
BRANCH 76 80
ATOM     77  C1  Z9L D   5     119.245 132.228  75.4920  0.00  0.00     0.000 C
ATOM     78  C2  Z9L D   5     120.790 131.858  75.2720  0.00  0.00     0.000 C
ATOM     79  C3  Z9L D   5     121.161 130.641  76.3870  0.00  0.00     0.000 C
ATOM     80  C4  Z9L D   5     120.389 131.199  77.7320  0.00  0.00     0.000 C
ATOM     81  C5  Z9L D   5     118.903 131.793  77.9240  0.00  0.00     0.000 C
ATOM     82  O5  Z9L D   5     118.658 132.641  76.7920  0.00  0.00     0.000 O
ATOM     83   C  Z9L D   5     117.020 131.369  75.0420  0.00  0.00     0.000 C
ATOM     84   C  Z9L D   5     117.020 131.369  75.0420  0.00  0.00     0.000 C
BRANCH 78 85
ATOM     85   O  Z9L D   5     120.935 131.354  73.9830  0.00  0.00     0.000 O
ATOM     86   O  Z9L D   5     121.861 132.241  72.5460  0.00  0.00     0.000 OA
ATOM     87   S  Z9L D   5     121.817 132.695  73.9020  0.00  0.00     0.000 S
ATOM     88   O  Z9L D   5     123.164 132.535  74.3940  0.00  0.00     0.000 OA
ATOM     89   O  Z9L D   5     121.101 133.923  73.8640  0.00  0.00     0.000 OA
ENDBRANCH 78 85
BRANCH 79 90
ATOM     90   O  Z9L D   5     122.500 130.691  76.7650  0.00  0.00     0.000 O
ATOM     91   S  Z9L D   5     122.440 129.207  76.1890  0.00  0.00     0.000 S
ATOM     92   O  Z9L D   5     121.998 128.918  74.8510  0.00  0.00     0.000 OA
ATOM     93   O  Z9L D   5     122.187 128.286  77.2690  0.00  0.00     0.000 O
ATOM     94   O  Z9L D   5     123.851 129.414  76.1330  0.00  0.00     0.000 OA
ENDBRANCH 79 90
BRANCH 81 95
ATOM     95   C  Z9L D   5     118.490 132.356  79.4490  0.00  0.00     0.000 C
ATOM     96   S  Z9L D   5     118.380 133.970  80.6110  0.00  0.00     0.000 S
ATOM     97   O  Z9L D   5     119.362 133.454  79.4930  0.00  0.00     0.000 O
ATOM     98   O  Z9L D   5     118.614 133.155  81.7760  0.00  0.00     0.000 OA
ATOM     99   O  Z9L D   5     117.060 134.284  80.1790  0.00  0.00     0.000 OA
ATOM    100   O  Z9L D   5     119.319 135.064  80.6240  0.00  0.00     0.000 O
ENDBRANCH 81 95
ENDBRANCH 76 80
ENDBRANCH 60 76
ENDBRANCH 59 63
ENDBRANCH 37 59
ENDBRANCH 36 40
ENDBRANCH 23 36
ENDBRANCH 22 26
ENDBRANCH 1 22
TORSDOF 19
ENDMDL
MODEL 71
REMARK VINA RESULT:      -0.5    122.556    127.048
ROOT
ATOM      1  C1  Z9H D   1     136.060  60.233  44.7060  0.00  0.00     0.000 C
ATOM      2  C2  Z9H D   1     135.565  58.938  44.0190  0.00  0.00     0.000 C
ATOM      3  C3  Z9H D   1     134.151  58.866  44.6730  0.00  0.00     0.000 C
ATOM      4  C4  Z9H D   1     134.124  59.005  46.2510  0.00  0.00     0.000 C
ATOM      5  C5  Z9H D   1     134.912  60.131  47.0330  0.00  0.00     0.000 C
ATOM      6  O5  Z9H D   1     136.046  60.349  46.1560  0.00  0.00     0.000 O
ATOM      7   O  Z9H D   1     133.441  57.695  44.2650  0.00  0.00     0.000 O
ATOM      8   C  Z9H D   1     132.494  57.887  43.2020  0.00  0.00     0.000 C
ATOM      9   O  Z9H D   1     132.744  59.131  46.6070  0.00  0.00     0.000 O
ATOM     10   C  Z9H D   1     132.114  57.932  47.0700  0.00  0.00     0.000 C
ENDROOT
BRANCH 2 11
ATOM     11   O  Z9H D   1     135.338  59.373  42.7040  0.00  0.00     0.000 O
ATOM     12   O  Z9H D   1     136.352  58.818  41.2140  0.00  0.00     0.000 OA
ATOM     13   S  Z9H D   1     136.541  58.348  42.5450  0.00  0.00     0.000 S
ATOM     14   O  Z9H D   1     136.037  57.023  42.7690  0.00  0.00     0.000 OA
ATOM     15   O  Z9H D   1     137.768  58.875  43.0970  0.00  0.00     0.000 O
ENDBRANCH 2 11
BRANCH 5 16
ATOM     16   C  Z9H D   1     135.119  59.846  48.6690  0.00  0.00     0.000 C
ATOM     17   S  Z9H D   1     135.198  60.718  50.4780  0.00  0.00     0.000 S
ATOM     18   O  Z9H D   1     134.295  60.880  49.1500  0.00  0.00     0.000 O
ATOM     19   O  Z9H D   1     136.567  61.121  50.3290  0.00  0.00     0.000 O
ATOM     20   O  Z9H D   1     134.800  59.562  51.2030  0.00  0.00     0.000 OA
ATOM     21   O  Z9H D   1     134.361  61.805  50.8950  0.00  0.00     0.000 OA
ENDBRANCH 5 16
BRANCH 1 22
ATOM     22  O4  GU1 D   2     135.322  61.453  44.3330  0.00  0.00     0.000 O
BRANCH 22 26
ATOM     23  C1  GU1 D   2     135.634  65.501  43.6380  0.00  0.00     0.000 C
ATOM     24  C2  GU1 D   2     136.843  64.683  43.2080  0.00  0.00     0.000 C
ATOM     25  C3  GU1 D   2     136.466  63.231  43.1530  0.00  0.00     0.000 C
ATOM     26  C4  GU1 D   2     135.843  62.780  44.4660  0.00  0.00     0.000 C
ATOM     27  C5  GU1 D   2     134.707  63.729  44.8610  0.00  0.00     0.000 C
ATOM     28  O5  GU1 D   2     135.176  65.073  44.9150  0.00  0.00     0.000 O
ATOM     29   O  GU1 D   2     137.316  65.069  41.9230  0.00  0.00     0.000 O
ATOM     30   C  GU1 D   2     138.401  65.985  41.9620  0.00  0.00     0.000 C
ATOM     31   C  GU1 D   2     137.817  62.005  41.5830  0.00  0.00     0.000 C
ATOM     32   O  GU1 D   2     137.652  62.465  42.9230  0.00  0.00     0.000 O
BRANCH 27 33
ATOM     33   C  GU1 D   2     134.149  63.378  46.2190  0.00  0.00     0.000 C
ATOM     34   O  GU1 D   2     134.832  63.598  47.1990  0.00  0.00     0.000 OA
ATOM     35   O  GU1 D   2     133.035  62.888  46.3260  0.00  0.00     0.000 O
ENDBRANCH 27 33
BRANCH 23 36
ATOM     36  O4  GU6 D   3     135.795  66.886  44.0040  0.00  0.00     0.000 O
BRANCH 36 40
ATOM     37  C1  GU6 D   3     136.282  70.371  46.0800  0.00  0.00     0.000 C
ATOM     38  C2  GU6 D   3     135.604  70.547  44.7270  0.00  0.00     0.000 C
ATOM     39  C3  GU6 D   3     135.228  69.198  44.1720  0.00  0.00     0.000 C
ATOM     40  C4  GU6 D   3     135.746  68.010  44.8590  0.00  0.00     0.000 C
ATOM     41  C5  GU6 D   3     137.207  68.283  45.3470  0.00  0.00     0.000 C
ATOM     42  O5  GU6 D   3     137.447  69.581  45.9020  0.00  0.00     0.000 O
BRANCH 38 43
ATOM     43   O  GU6 D   3     134.450  71.357  44.8500  0.00  0.00     0.000 O
ATOM     44   S  GU6 D   3     134.432  72.571  43.9300  0.00  0.00     0.000 S
ATOM     45   O  GU6 D   3     135.239  73.638  44.5480  0.00  0.00     0.000 OA
ATOM     46   O  GU6 D   3     135.030  72.190  42.6370  0.00  0.00     0.000 O
ATOM     47   O  GU6 D   3     133.049  72.994  43.7360  0.00  0.00     0.000 OA
ENDBRANCH 38 43
BRANCH 39 48
ATOM     48   O  GU6 D   3     134.232  69.074  43.1750  0.00  0.00     0.000 O
ATOM     49   S  GU6 D   3     132.752  68.716  43.3060  0.00  0.00     0.000 S
ATOM     50   O  GU6 D   3     132.092  69.629  44.2470  0.00  0.00     0.000 OA
ATOM     51   O  GU6 D   3     132.242  68.900  41.9400  0.00  0.00     0.000 OA
ATOM     52   O  GU6 D   3     132.637  67.321  43.7890  0.00  0.00     0.000 O
ENDBRANCH 39 48
BRANCH 41 53
ATOM     53   C  GU6 D   3     138.399  67.365  45.3280  0.00  0.00     0.000 C
ATOM     54   O  GU6 D   3     137.922  66.415  46.2460  0.00  0.00     0.000 O
ATOM     55   S  GU6 D   3     138.820  65.258  46.7060  0.00  0.00     0.000 S
ATOM     56   O  GU6 D   3     139.930  65.861  47.4790  0.00  0.00     0.000 O
ATOM     57   O  GU6 D   3     138.025  64.358  47.5540  0.00  0.00     0.000 OA
ATOM     58   O  GU6 D   3     139.324  64.583  45.4900  0.00  0.00     0.000 OA
ENDBRANCH 41 53
BRANCH 37 59
ATOM     59  O4  Z9K D   4     135.629  69.909  47.2810  0.00  0.00     0.000 O
BRANCH 59 63
ATOM     60  C1  Z9K D   4     133.436  70.157  50.5330  0.00  0.00     0.000 C
ATOM     61  C2  Z9K D   4     133.647  71.659  50.1970  0.00  0.00     0.000 C
ATOM     62  C3  Z9K D   4     134.374  71.553  48.7870  0.00  0.00     0.000 C
ATOM     63  C4  Z9K D   4     135.547  70.516  48.6030  0.00  0.00     0.000 C
ATOM     64  C5  Z9K D   4     135.513  69.289  49.5260  0.00  0.00     0.000 C
ATOM     65  O5  Z9K D   4     134.091  69.072  49.7220  0.00  0.00     0.000 O
ATOM     66   O  Z9K D   4     134.914  72.807  48.3300  0.00  0.00     0.000 O
ATOM     67   C  Z9K D   4     133.987  73.626  47.6360  0.00  0.00     0.000 C
BRANCH 61 68
ATOM     68   O  Z9K D   4     132.381  72.207  49.9480  0.00  0.00     0.000 O
ATOM     69   O  Z9K D   4     133.930  73.919  51.0520  0.00  0.00     0.000 OA
ATOM     70   S  Z9K D   4     132.841  73.016  51.2730  0.00  0.00     0.000 S
ATOM     71   O  Z9K D   4     132.675  72.171  52.4160  0.00  0.00     0.000 OA
ATOM     72   O  Z9K D   4     131.594  73.633  50.9540  0.00  0.00     0.000 OA
ENDBRANCH 61 68
BRANCH 64 73
ATOM     73   C  Z9K D   4     136.366  68.142  48.9460  0.00  0.00     0.000 C
ATOM     74   O  Z9K D   4     137.630  68.199  48.9480  0.00  0.00     0.000 O
ATOM     75   O  Z9K D   4     135.843  67.110  48.4580  0.00  0.00     0.000 OA
ENDBRANCH 64 73
BRANCH 60 76
ATOM     76  O4  Z9L D   5     133.622  69.487  51.7910  0.00  0.00     0.000 O
BRANCH 76 80
ATOM     77  C1  Z9L D   5     132.183  66.626  54.1830  0.00  0.00     0.000 C
ATOM     78  C2  Z9L D   5     133.655  66.169  53.7370  0.00  0.00     0.000 C
ATOM     79  C3  Z9L D   5     134.426  67.546  53.1260  0.00  0.00     0.000 C
ATOM     80  C4  Z9L D   5     133.214  68.219  52.2370  0.00  0.00     0.000 C
ATOM     81  C5  Z9L D   5     131.662  68.476  52.5930  0.00  0.00     0.000 C
ATOM     82  O5  Z9L D   5     131.209  67.306  53.2910  0.00  0.00     0.000 O
ATOM     83   C  Z9L D   5     131.042  67.843  55.9460  0.00  0.00     0.000 C
ATOM     84   C  Z9L D   5     131.042  67.843  55.9460  0.00  0.00     0.000 C
BRANCH 78 85
ATOM     85   O  Z9L D   5     134.333  65.731  54.8700  0.00  0.00     0.000 O
ATOM     86   O  Z9L D   5     134.839  63.906  55.2200  0.00  0.00     0.000 OA
ATOM     87   S  Z9L D   5     134.255  64.380  54.0030  0.00  0.00     0.000 S
ATOM     88   O  Z9L D   5     135.300  64.262  53.0160  0.00  0.00     0.000 OA
ATOM     89   O  Z9L D   5     132.983  63.749  53.9270  0.00  0.00     0.000 OA
ENDBRANCH 78 85
BRANCH 79 90
ATOM     90   O  Z9L D   5     135.365  67.211  52.1540  0.00  0.00     0.000 O
ATOM     91   S  Z9L D   5     136.301  68.007  53.1680  0.00  0.00     0.000 S
ATOM     92   O  Z9L D   5     136.422  67.640  54.5540  0.00  0.00     0.000 OA
ATOM     93   O  Z9L D   5     136.389  69.385  52.7550  0.00  0.00     0.000 O
ATOM     94   O  Z9L D   5     137.304  67.287  52.4510  0.00  0.00     0.000 OA
ENDBRANCH 79 90
BRANCH 81 95
ATOM     95   C  Z9L D   5     130.690  69.111  51.3830  0.00  0.00     0.000 C
ATOM     96   S  Z9L D   5     129.409  68.665  49.9240  0.00  0.00     0.000 S
ATOM     97   O  Z9L D   5     130.712  68.008  50.5160  0.00  0.00     0.000 O
ATOM     98   O  Z9L D   5     129.829  69.830  49.1890  0.00  0.00     0.000 OA
ATOM     99   O  Z9L D   5     128.285  68.704  50.7960  0.00  0.00     0.000 OA
ATOM    100   O  Z9L D   5     129.494  67.520  49.0500  0.00  0.00     0.000 O
ENDBRANCH 81 95
ENDBRANCH 76 80
ENDBRANCH 60 76
ENDBRANCH 59 63
ENDBRANCH 37 59
ENDBRANCH 36 40
ENDBRANCH 23 36
ENDBRANCH 22 26
ENDBRANCH 1 22
TORSDOF 19
ENDMDL
MODEL 72
REMARK VINA RESULT:      -0.5    144.108    148.999
ROOT
ATOM      1  C1  Z9H D   1      47.508 140.231 116.3680  0.00  0.00     0.000 C
ATOM      2  C2  Z9H D   1      48.310 141.362 117.0540  0.00  0.00     0.000 C
ATOM      3  C3  Z9H D   1      47.149 142.390 117.2160  0.00  0.00     0.000 C
ATOM      4  C4  Z9H D   1      46.307 142.677 115.9050  0.00  0.00     0.000 C
ATOM      5  C5  Z9H D   1      45.750 141.532 114.9680  0.00  0.00     0.000 C
ATOM      6  O5  Z9H D   1      46.748 140.497 115.1560  0.00  0.00     0.000 O
ATOM      7   O  Z9H D   1      47.608 143.616 117.7900  0.00  0.00     0.000 O
ATOM      8   C  Z9H D   1      47.387 143.756 119.2030  0.00  0.00     0.000 C
ATOM      9   O  Z9H D   1      45.185 143.460 116.3270  0.00  0.00     0.000 O
ATOM     10   C  Z9H D   1      45.304 144.871 116.1160  0.00  0.00     0.000 C
ENDROOT
BRANCH 2 11
ATOM     11   O  Z9H D   1      48.515 140.836 118.3390  0.00  0.00     0.000 O
ATOM     12   O  Z9H D   1      50.200 140.333 119.0210  0.00  0.00     0.000 OA
ATOM     13   S  Z9H D   1      49.984 140.912 117.7380  0.00  0.00     0.000 S
ATOM     14   O  Z9H D   1      50.366 142.293 117.6530  0.00  0.00     0.000 OA
ATOM     15   O  Z9H D   1      50.188 139.927 116.7010  0.00  0.00     0.000 O
ENDBRANCH 2 11
BRANCH 5 16
ATOM     16   C  Z9H D   1      45.289 142.029 113.4380  0.00  0.00     0.000 C
ATOM     17   S  Z9H D   1      43.944 141.752 111.9710  0.00  0.00     0.000 S
ATOM     18   O  Z9H D   1      43.903 141.834 113.5830  0.00  0.00     0.000 O
ATOM     19   O  Z9H D   1      44.614 140.598 111.4440  0.00  0.00     0.000 O
ATOM     20   O  Z9H D   1      44.079 143.053 111.4170  0.00  0.00     0.000 OA
ATOM     21   O  Z9H D   1      42.547 141.509 112.1830  0.00  0.00     0.000 OA
ENDBRANCH 5 16
BRANCH 1 22
ATOM     22  O4  GU1 D   2      46.466 139.614 117.2070  0.00  0.00     0.000 O
BRANCH 22 26
ATOM     23  C1  GU1 D   2      44.505 136.105 118.1090  0.00  0.00     0.000 C
ATOM     24  C2  GU1 D   2      45.975 135.943 117.7520  0.00  0.00     0.000 C
ATOM     25  C3  GU1 D   2      46.654 137.280 117.8240  0.00  0.00     0.000 C
ATOM     26  C4  GU1 D   2      45.918 138.310 116.9800  0.00  0.00     0.000 C
ATOM     27  C5  GU1 D   2      44.430 138.320 117.3450  0.00  0.00     0.000 C
ATOM     28  O5  GU1 D   2      43.876 137.014 117.2140  0.00  0.00     0.000 O
ATOM     29   O  GU1 D   2      46.643 135.056 118.6410  0.00  0.00     0.000 O
ATOM     30   C  GU1 D   2      46.749 133.725 118.1550  0.00  0.00     0.000 C
ATOM     31   C  GU1 D   2      49.002 137.076 118.3110  0.00  0.00     0.000 C
ATOM     32   O  GU1 D   2      47.984 137.138 117.3150  0.00  0.00     0.000 O
BRANCH 27 33
ATOM     33   C  GU1 D   2      43.652 139.246 116.4420  0.00  0.00     0.000 C
ATOM     34   O  GU1 D   2      43.504 138.930 115.2790  0.00  0.00     0.000 OA
ATOM     35   O  GU1 D   2      43.181 140.286 116.8760  0.00  0.00     0.000 O
ENDBRANCH 27 33
BRANCH 23 36
ATOM     36  O4  GU6 D   3      43.583 135.021 117.8790  0.00  0.00     0.000 O
BRANCH 36 40
ATOM     37  C1  GU6 D   3      40.765 132.528 116.2870  0.00  0.00     0.000 C
ATOM     38  C2  GU6 D   3      40.864 132.459 117.8060  0.00  0.00     0.000 C
ATOM     39  C3  GU6 D   3      41.721 133.592 118.3070  0.00  0.00     0.000 C
ATOM     40  C4  GU6 D   3      42.457 134.382 117.3140  0.00  0.00     0.000 C
ATOM     41  C5  GU6 D   3      42.981 133.438 116.1810  0.00  0.00     0.000 C
ATOM     42  O5  GU6 D   3      42.071 132.423 115.7430  0.00  0.00     0.000 O
BRANCH 38 43
ATOM     43   O  GU6 D   3      39.579 132.528 118.3920  0.00  0.00     0.000 O
ATOM     44   S  GU6 D   3      39.250 131.370 119.3250  0.00  0.00     0.000 S
ATOM     45   O  GU6 D   3      38.808 130.224 118.5110  0.00  0.00     0.000 OA
ATOM     46   O  GU6 D   3      40.469 131.002 120.0680  0.00  0.00     0.000 O
ATOM     47   O  GU6 D   3      38.208 131.796 120.2540  0.00  0.00     0.000 OA
ENDBRANCH 38 43
BRANCH 39 48
ATOM     48   O  GU6 D   3      41.637 134.026 119.6510  0.00  0.00     0.000 O
ATOM     49   S  GU6 D   3      40.862 135.195 120.2580  0.00  0.00     0.000 S
ATOM     50   O  GU6 D   3      39.440 135.093 119.9100  0.00  0.00     0.000 OA
ATOM     51   O  GU6 D   3      41.069 135.018 121.7020  0.00  0.00     0.000 OA
ATOM     52   O  GU6 D   3      41.421 136.463 119.7390  0.00  0.00     0.000 O
ENDBRANCH 39 48
BRANCH 41 53
ATOM     53   C  GU6 D   3      44.309 133.456 115.4720  0.00  0.00     0.000 C
ATOM     54   O  GU6 D   3      44.163 134.694 114.8260  0.00  0.00     0.000 O
ATOM     55   S  GU6 D   3      45.227 135.185 113.8340  0.00  0.00     0.000 S
ATOM     56   O  GU6 D   3      45.191 134.260 112.6780  0.00  0.00     0.000 O
ATOM     57   O  GU6 D   3      44.883 136.552 113.4170  0.00  0.00     0.000 OA
ATOM     58   O  GU6 D   3      46.534 135.122 114.5260  0.00  0.00     0.000 OA
ENDBRANCH 41 53
BRANCH 37 59
ATOM     59  O4  Z9K D   4      40.072 133.556 115.5480  0.00  0.00     0.000 O
BRANCH 59 63
ATOM     60  C1  Z9K D   4      37.006 135.421 113.9460  0.00  0.00     0.000 C
ATOM     61  C2  Z9K D   4      36.371 134.049 114.3030  0.00  0.00     0.000 C
ATOM     62  C3  Z9K D   4      37.558 133.369 115.1140  0.00  0.00     0.000 C
ATOM     63  C4  Z9K D   4      39.024 133.451 114.5410  0.00  0.00     0.000 C
ATOM     64  C5  Z9K D   4      39.325 134.647 113.6260  0.00  0.00     0.000 C
ATOM     65  O5  Z9K D   4      38.470 135.689 114.1660  0.00  0.00     0.000 O
ATOM     66   O  Z9K D   4      37.341 131.971 115.3750  0.00  0.00     0.000 O
ATOM     67   C  Z9K D   4      36.576 131.704 116.5390  0.00  0.00     0.000 C
BRANCH 61 68
ATOM     68   O  Z9K D   4      35.352 134.297 115.2320  0.00  0.00     0.000 O
ATOM     69   O  Z9K D   4      34.755 132.331 113.7060  0.00  0.00     0.000 OA
ATOM     70   S  Z9K D   4      34.519 133.719 113.9680  0.00  0.00     0.000 S
ATOM     71   O  Z9K D   4      34.397 134.748 112.9810  0.00  0.00     0.000 OA
ATOM     72   O  Z9K D   4      33.502 133.886 114.9560  0.00  0.00     0.000 OA
ENDBRANCH 61 68
BRANCH 64 73
ATOM     73   C  Z9K D   4      40.845 134.905 113.5420  0.00  0.00     0.000 C
ATOM     74   O  Z9K D   4      41.372 135.907 114.1060  0.00  0.00     0.000 O
ATOM     75   O  Z9K D   4      41.613 134.132 112.9190  0.00  0.00     0.000 OA
ENDBRANCH 64 73
BRANCH 60 76
ATOM     76  O4  Z9L D   5      36.945 136.138 112.7010  0.00  0.00     0.000 O
BRANCH 76 80
ATOM     77  C1  Z9L D   5      36.721 139.771 111.0510  0.00  0.00     0.000 C
ATOM     78  C2  Z9L D   5      38.137 139.149 110.6270  0.00  0.00     0.000 C
ATOM     79  C3  Z9L D   5      38.044 137.486 110.9200  0.00  0.00     0.000 C
ATOM     80  C4  Z9L D   5      37.274 137.464 112.3760  0.00  0.00     0.000 C
ATOM     81  C5  Z9L D   5      35.974 138.265 112.8940  0.00  0.00     0.000 C
ATOM     82  O5  Z9L D   5      36.097 139.603 112.3890  0.00  0.00     0.000 O
ATOM     83   C  Z9L D   5      34.426 139.932 110.2760  0.00  0.00     0.000 C
ATOM     84   C  Z9L D   5      34.426 139.932 110.2760  0.00  0.00     0.000 C
BRANCH 78 85
ATOM     85   O  Z9L D   5      38.311 139.364 109.2630  0.00  0.00     0.000 O
ATOM     86   O  Z9L D   5      39.600 140.567 108.4870  0.00  0.00     0.000 OA
ATOM     87   S  Z9L D   5      39.502 140.250 109.8800  0.00  0.00     0.000 S
ATOM     88   O  Z9L D   5      40.694 139.495 110.1760  0.00  0.00     0.000 OA
ATOM     89   O  Z9L D   5      39.123 141.465 110.5150  0.00  0.00     0.000 OA
ENDBRANCH 78 85
BRANCH 79 90
ATOM     90   O  Z9L D   5      39.293 136.955 111.2300  0.00  0.00     0.000 O
ATOM     91   S  Z9L D   5      38.927 136.056 109.9670  0.00  0.00     0.000 S
ATOM     92   O  Z9L D   5      38.596 136.624 108.6870  0.00  0.00     0.000 OA
ATOM     93   O  Z9L D   5      38.314 134.831 110.4160  0.00  0.00     0.000 O
ATOM     94   O  Z9L D   5      40.339 135.853 109.9870  0.00  0.00     0.000 OA
ENDBRANCH 79 90
BRANCH 81 95
ATOM     95   C  Z9L D   5      35.528 138.054 114.4970  0.00  0.00     0.000 C
ATOM     96   S  Z9L D   5      35.681 138.796 116.3390  0.00  0.00     0.000 S
ATOM     97   O  Z9L D   5      36.634 138.678 115.0910  0.00  0.00     0.000 O
ATOM     98   O  Z9L D   5      35.554 137.471 116.8910  0.00  0.00     0.000 OA
ATOM     99   O  Z9L D   5      34.547 139.641 116.1740  0.00  0.00     0.000 OA
ATOM    100   O  Z9L D   5      36.855 139.414 116.9020  0.00  0.00     0.000 O
ENDBRANCH 81 95
ENDBRANCH 76 80
ENDBRANCH 60 76
ENDBRANCH 59 63
ENDBRANCH 37 59
ENDBRANCH 36 40
ENDBRANCH 23 36
ENDBRANCH 22 26
ENDBRANCH 1 22
TORSDOF 19
ENDMDL
MODEL 73
REMARK VINA RESULT:      -0.5    102.345    109.210
ROOT
ATOM      1  C1  Z9H D   1      84.724 106.174  61.3150  0.00  0.00     0.000 C
ATOM      2  C2  Z9H D   1      85.694 106.989  60.4270  0.00  0.00     0.000 C
ATOM      3  C3  Z9H D   1      87.017 106.661  61.1860  0.00  0.00     0.000 C
ATOM      4  C4  Z9H D   1      86.974 106.884  62.7540  0.00  0.00     0.000 C
ATOM      5  C5  Z9H D   1      85.800 106.354  63.6700  0.00  0.00     0.000 C
ATOM      6  O5  Z9H D   1      84.679 106.393  62.7520  0.00  0.00     0.000 O
ATOM      7   O  Z9H D   1      88.134 107.347  60.6170  0.00  0.00     0.000 O
ATOM      8   C  Z9H D   1      88.937 106.572  59.7110  0.00  0.00     0.000 C
ATOM      9   O  Z9H D   1      88.191 106.324  63.2600  0.00  0.00     0.000 O
ATOM     10   C  Z9H D   1      89.238 107.262  63.5250  0.00  0.00     0.000 C
ENDROOT
BRANCH 2 11
ATOM     11   O  Z9H D   1      85.742 106.215  59.2580  0.00  0.00     0.000 O
ATOM     12   O  Z9H D   1      85.050 106.768  57.5920  0.00  0.00     0.000 OA
ATOM     13   S  Z9H D   1      85.052 107.562  58.7740  0.00  0.00     0.000 S
ATOM     14   O  Z9H D   1      86.042 108.601  58.7740  0.00  0.00     0.000 OA
ATOM     15   O  Z9H D   1      83.711 107.692  59.2960  0.00  0.00     0.000 O
ENDBRANCH 2 11
BRANCH 5 16
ATOM     16   C  Z9H D   1      85.710 107.059  65.1850  0.00  0.00     0.000 C
ATOM     17   S  Z9H D   1      85.323 106.707  67.1260  0.00  0.00     0.000 S
ATOM     18   O  Z9H D   1      86.107 105.940  65.9410  0.00  0.00     0.000 O
ATOM     19   O  Z9H D   1      83.900 106.785  66.9550  0.00  0.00     0.000 O
ATOM     20   O  Z9H D   1      86.109 107.784  67.6180  0.00  0.00     0.000 OA
ATOM     21   O  Z9H D   1      85.713 105.522  67.8320  0.00  0.00     0.000 OA
ENDBRANCH 5 16
BRANCH 1 22
ATOM     22  O4  GU1 D   2      84.924 104.715  61.2720  0.00  0.00     0.000 O
BRANCH 22 26
ATOM     23  C1  GU1 D   2      83.045 101.050  61.3820  0.00  0.00     0.000 C
ATOM     24  C2  GU1 D   2      82.265 102.148  60.6740  0.00  0.00     0.000 C
ATOM     25  C3  GU1 D   2      83.186 103.293  60.3660  0.00  0.00     0.000 C
ATOM     26  C4  GU1 D   2      83.918 103.755  61.6170  0.00  0.00     0.000 C
ATOM     27  C5  GU1 D   2      84.581 102.560  62.3090  0.00  0.00     0.000 C
ATOM     28  O5  GU1 D   2      83.617 101.547  62.5860  0.00  0.00     0.000 O
ATOM     29   O  GU1 D   2      81.696 101.694  59.4530  0.00  0.00     0.000 O
ATOM     30   C  GU1 D   2      80.337 101.296  59.5650  0.00  0.00     0.000 C
ATOM     31   C  GU1 D   2      82.453 104.554  58.4510  0.00  0.00     0.000 C
ATOM     32   O  GU1 D   2      82.403 104.381  59.8650  0.00  0.00     0.000 O
BRANCH 27 33
ATOM     33   C  GU1 D   2      85.213 102.968  63.6180  0.00  0.00     0.000 C
ATOM     34   O  GU1 D   2      86.425 102.993  63.6910  0.00  0.00     0.000 OA
ATOM     35   O  GU1 D   2      84.518 103.268  64.5760  0.00  0.00     0.000 O
ENDBRANCH 27 33
BRANCH 23 36
ATOM     36  O4  GU6 D   3      82.345  99.953  62.0020  0.00  0.00     0.000 O
BRANCH 36 40
ATOM     37  C1  GU6 D   3      80.491  97.487  64.6790  0.00  0.00     0.000 C
ATOM     38  C2  GU6 D   3      81.059  96.765  63.4630  0.00  0.00     0.000 C
ATOM     39  C3  GU6 D   3      81.945  97.703  62.6870  0.00  0.00     0.000 C
ATOM     40  C4  GU6 D   3      81.935  99.120  63.0670  0.00  0.00     0.000 C
ATOM     41  C5  GU6 D   3      80.480  99.548  63.4520  0.00  0.00     0.000 C
ATOM     42  O5  GU6 D   3      79.738  98.603  64.2320  0.00  0.00     0.000 O
BRANCH 38 43
ATOM     43   O  GU6 D   3      81.794  95.623  63.8610  0.00  0.00     0.000 O
ATOM     44   S  GU6 D   3      81.334  94.322  63.2160  0.00  0.00     0.000 S
ATOM     45   O  GU6 D   3      80.166  93.819  63.9590  0.00  0.00     0.000 OA
ATOM     46   O  GU6 D   3      80.945  94.600  61.8210  0.00  0.00     0.000 O
ATOM     47   O  GU6 D   3      82.436  93.366  63.2470  0.00  0.00     0.000 OA
ENDBRANCH 38 43
BRANCH 39 48
ATOM     48   O  GU6 D   3      82.919  97.207  61.7890  0.00  0.00     0.000 O
ATOM     49   S  GU6 D   3      84.419  96.992  61.9890  0.00  0.00     0.000 S
ATOM     50   O  GU6 D   3      84.655  96.135  63.1570  0.00  0.00     0.000 OA
ATOM     51   O  GU6 D   3      84.828  96.322  60.7470  0.00  0.00     0.000 OA
ATOM     52   O  GU6 D   3      85.070  98.306  62.1850  0.00  0.00     0.000 O
ENDBRANCH 39 48
BRANCH 41 53
ATOM     53   C  GU6 D   3      79.751 100.825  63.1320  0.00  0.00     0.000 C
ATOM     54   O  GU6 D   3      80.563 101.699  63.8730  0.00  0.00     0.000 O
ATOM     55   S  GU6 D   3      80.197 103.184  63.9960  0.00  0.00     0.000 S
ATOM     56   O  GU6 D   3      78.935 103.250  64.7700  0.00  0.00     0.000 O
ATOM     57   O  GU6 D   3      81.281 103.875  64.7090  0.00  0.00     0.000 OA
ATOM     58   O  GU6 D   3      80.008 103.705  62.6240  0.00  0.00     0.000 OA
ENDBRANCH 41 53
BRANCH 37 59
ATOM     59  O4  Z9K D   4      81.262  97.918  65.8210  0.00  0.00     0.000 O
BRANCH 59 63
ATOM     60  C1  Z9K D   4      83.140  97.581  69.2570  0.00  0.00     0.000 C
ATOM     61  C2  Z9K D   4      82.350  96.244  69.2130  0.00  0.00     0.000 C
ATOM     62  C3  Z9K D   4      81.741  96.302  67.7450  0.00  0.00     0.000 C
ATOM     63  C4  Z9K D   4      81.081  97.641  67.2400  0.00  0.00     0.000 C
ATOM     64  C5  Z9K D   4      81.591  98.933  67.8950  0.00  0.00     0.000 C
ATOM     65  O5  Z9K D   4      82.980  98.622  68.1830  0.00  0.00     0.000 O
ATOM     66   O  Z9K D   4      80.751  95.286  67.5000  0.00  0.00     0.000 O
ATOM     67   C  Z9K D   4      81.282  94.039  67.0820  0.00  0.00     0.000 C
BRANCH 61 68
ATOM     68   O  Z9K D   4      83.295  95.209  69.2060  0.00  0.00     0.000 O
ATOM     69   O  Z9K D   4      81.177  94.521  70.4670  0.00  0.00     0.000 OA
ATOM     70   S  Z9K D   4      82.533  94.958  70.6130  0.00  0.00     0.000 S
ATOM     71   O  Z9K D   4      83.008  95.904  71.5750  0.00  0.00     0.000 OA
ATOM     72   O  Z9K D   4      83.434  93.852  70.5500  0.00  0.00     0.000 OA
ENDBRANCH 61 68
BRANCH 64 73
ATOM     73   C  Z9K D   4      81.273 100.159  67.0130  0.00  0.00     0.000 C
ATOM     74   O  Z9K D   4      80.090 100.595  66.8980  0.00  0.00     0.000 O
ATOM     75   O  Z9K D   4      82.169 100.772  66.3830  0.00  0.00     0.000 OA
ENDBRANCH 64 73
BRANCH 60 76
ATOM     76  O4  Z9L D   5      83.223  98.536  70.3290  0.00  0.00     0.000 O
BRANCH 76 80
ATOM     77  C1  Z9L D   5      85.636 101.090  72.2310  0.00  0.00     0.000 C
ATOM     78  C2  Z9L D   5      84.490 101.963  71.5280  0.00  0.00     0.000 C
ATOM     79  C3  Z9L D   5      83.242 100.894  71.1280  0.00  0.00     0.000 C
ATOM     80  C4  Z9L D   5      84.099  99.611  70.5480  0.00  0.00     0.000 C
ATOM     81  C5  Z9L D   5      85.402  98.864  71.1330  0.00  0.00     0.000 C
ATOM     82  O5  Z9L D   5      86.273  99.894  71.6240  0.00  0.00     0.000 O
ATOM     83   C  Z9L D   5      86.138  99.983  74.3330  0.00  0.00     0.000 C
ATOM     84   C  Z9L D   5      86.138  99.983  74.3330  0.00  0.00     0.000 C
BRANCH 78 85
ATOM     85   O  Z9L D   5      84.019 102.887  72.4560  0.00  0.00     0.000 O
ATOM     86   O  Z9L D   5      84.280 104.792  72.3530  0.00  0.00     0.000 OA
ATOM     87   S  Z9L D   5      84.653 103.853  71.3400  0.00  0.00     0.000 S
ATOM     88   O  Z9L D   5      83.767 104.124  70.2350  0.00  0.00     0.000 OA
ATOM     89   O  Z9L D   5      86.073 103.908  71.2820  0.00  0.00     0.000 OA
ENDBRANCH 78 85
BRANCH 79 90
ATOM     90   O  Z9L D   5      82.545 101.325  70.0020  0.00  0.00     0.000 O
ATOM     91   S  Z9L D   5      81.346 101.257  71.0480  0.00  0.00     0.000 S
ATOM     92   O  Z9L D   5      81.370 101.973  72.2960  0.00  0.00     0.000 OA
ATOM     93   O  Z9L D   5      80.692  99.976  70.9410  0.00  0.00     0.000 O
ATOM     94   O  Z9L D   5      80.751 102.117  70.0780  0.00  0.00     0.000 OA
ENDBRANCH 79 90
BRANCH 81 95
ATOM     95   C  Z9L D   5      86.064  97.633  70.2060  0.00  0.00     0.000 C
ATOM     96   S  Z9L D   5      87.456  97.184  68.8530  0.00  0.00     0.000 S
ATOM     97   O  Z9L D   5      86.518  98.417  69.1360  0.00  0.00     0.000 O
ATOM     98   O  Z9L D   5      86.617  96.137  68.3270  0.00  0.00     0.000 OA
ATOM     99   O  Z9L D   5      88.441  96.915  69.8460  0.00  0.00     0.000 OA
ATOM    100   O  Z9L D   5      87.870  98.028  67.7600  0.00  0.00     0.000 O
ENDBRANCH 81 95
ENDBRANCH 76 80
ENDBRANCH 60 76
ENDBRANCH 59 63
ENDBRANCH 37 59
ENDBRANCH 36 40
ENDBRANCH 23 36
ENDBRANCH 22 26
ENDBRANCH 1 22
TORSDOF 19
ENDMDL
MODEL 74
REMARK VINA RESULT:      -0.5    104.787    109.072
ROOT
ATOM      1  C1  Z9H D   1      66.501 123.413  42.3020  0.00  0.00     0.000 C
ATOM      2  C2  Z9H D   1      65.581 124.350  41.4840  0.00  0.00     0.000 C
ATOM      3  C3  Z9H D   1      65.287 125.402  42.5980  0.00  0.00     0.000 C
ATOM      4  C4  Z9H D   1      64.806 124.805  43.9850  0.00  0.00     0.000 C
ATOM      5  C5  Z9H D   1      65.528 123.596  44.7030  0.00  0.00     0.000 C
ATOM      6  O5  Z9H D   1      66.048 122.858  43.5680  0.00  0.00     0.000 O
ATOM      7   O  Z9H D   1      64.377 126.406  42.1470  0.00  0.00     0.000 O
ATOM      8   C  Z9H D   1      64.982 127.635  41.7120  0.00  0.00     0.000 C
ATOM      9   O  Z9H D   1      64.809 125.904  44.9030  0.00  0.00     0.000 O
ATOM     10   C  Z9H D   1      63.536 126.512  45.1410  0.00  0.00     0.000 C
ENDROOT
BRANCH 2 11
ATOM     11   O  Z9H D   1      66.494 124.977  40.6220  0.00  0.00     0.000 O
ATOM     12   O  Z9H D   1      66.539 124.715  38.7540  0.00  0.00     0.000 OA
ATOM     13   S  Z9H D   1      65.588 124.124  39.6340  0.00  0.00     0.000 S
ATOM     14   O  Z9H D   1      64.288 124.731  39.5770  0.00  0.00     0.000 OA
ATOM     15   O  Z9H D   1      65.838 122.707  39.7690  0.00  0.00     0.000 O
ENDBRANCH 2 11
BRANCH 5 16
ATOM     16   C  Z9H D   1      64.630 122.841  45.8950  0.00  0.00     0.000 C
ATOM     17   S  Z9H D   1      64.736 121.923  47.6800  0.00  0.00     0.000 S
ATOM     18   O  Z9H D   1      65.420 123.216  46.9980  0.00  0.00     0.000 O
ATOM     19   O  Z9H D   1      65.130 120.664  47.1170  0.00  0.00     0.000 O
ATOM     20   O  Z9H D   1      63.400 122.221  48.0650  0.00  0.00     0.000 OA
ATOM     21   O  Z9H D   1      65.599 122.324  48.7520  0.00  0.00     0.000 OA
ENDBRANCH 5 16
BRANCH 1 22
ATOM     22  O4  GU1 D   2      67.783 124.011  42.7150  0.00  0.00     0.000 O
BRANCH 22 26
ATOM     23  C1  GU1 D   2      71.778 123.274  43.3950  0.00  0.00     0.000 C
ATOM     24  C2  GU1 D   2      71.166 122.476  42.2540  0.00  0.00     0.000 C
ATOM     25  C3  GU1 D   2      69.855 123.095  41.8620  0.00  0.00     0.000 C
ATOM     26  C4  GU1 D   2      68.945 123.253  43.0710  0.00  0.00     0.000 C
ATOM     27  C5  GU1 D   2      69.690 123.976  44.1970  0.00  0.00     0.000 C
ATOM     28  O5  GU1 D   2      70.900 123.292  44.5140  0.00  0.00     0.000 O
ATOM     29   O  GU1 D   2      72.008 122.455  41.1070  0.00  0.00     0.000 O
ATOM     30   C  GU1 D   2      72.817 121.291  41.0100  0.00  0.00     0.000 C
ATOM     31   C  GU1 D   2      69.303 122.662  39.5590  0.00  0.00     0.000 C
ATOM     32   O  GU1 D   2      69.214 122.233  40.9160  0.00  0.00     0.000 O
BRANCH 27 33
ATOM     33   C  GU1 D   2      68.853 124.041  45.4520  0.00  0.00     0.000 C
ATOM     34   O  GU1 D   2      68.661 123.015  46.0720  0.00  0.00     0.000 OA
ATOM     35   O  GU1 D   2      68.387 125.103  45.8330  0.00  0.00     0.000 O
ENDBRANCH 27 33
BRANCH 23 36
ATOM     36  O4  GU6 D   3      72.911 122.749  44.1150  0.00  0.00     0.000 O
BRANCH 36 40
ATOM     37  C1  GU6 D   3      75.317 120.923  46.8670  0.00  0.00     0.000 C
ATOM     38  C2  GU6 D   3      76.012 122.017  46.0660  0.00  0.00     0.000 C
ATOM     39  C3  GU6 D   3      74.989 122.801  45.2870  0.00  0.00     0.000 C
ATOM     40  C4  GU6 D   3      73.619 122.278  45.2440  0.00  0.00     0.000 C
ATOM     41  C5  GU6 D   3      73.657 120.718  45.1470  0.00  0.00     0.000 C
ATOM     42  O5  GU6 D   3      74.636 120.065  45.9640  0.00  0.00     0.000 O
BRANCH 38 43
ATOM     43   O  GU6 D   3      76.732 122.881  46.9250  0.00  0.00     0.000 O
ATOM     44   S  GU6 D   3      78.207 123.028  46.5770  0.00  0.00     0.000 S
ATOM     45   O  GU6 D   3      78.937 121.877  47.1360  0.00  0.00     0.000 OA
ATOM     46   O  GU6 D   3      78.347 123.031  45.1100  0.00  0.00     0.000 O
ATOM     47   O  GU6 D   3      78.697 124.287  47.1290  0.00  0.00     0.000 OA
ENDBRANCH 38 43
BRANCH 39 48
ATOM     48   O  GU6 D   3      75.277 124.103  44.8150  0.00  0.00     0.000 O
ATOM     49   S  GU6 D   3      74.921 125.464  45.4120  0.00  0.00     0.000 S
ATOM     50   O  GU6 D   3      75.413 125.555  46.7920  0.00  0.00     0.000 OA
ATOM     51   O  GU6 D   3      75.627 126.407  44.5340  0.00  0.00     0.000 OA
ATOM     52   O  GU6 D   3      73.451 125.630  45.3860  0.00  0.00     0.000 O
ENDBRANCH 39 48
BRANCH 41 53
ATOM     53   C  GU6 D   3      72.797 119.798  44.3230  0.00  0.00     0.000 C
ATOM     54   O  GU6 D   3      71.574 120.055  44.9650  0.00  0.00     0.000 O
ATOM     55   S  GU6 D   3      70.314 119.267  44.5830  0.00  0.00     0.000 S
ATOM     56   O  GU6 D   3      70.551 117.861  44.9870  0.00  0.00     0.000 O
ATOM     57   O  GU6 D   3      69.170 119.831  45.3130  0.00  0.00     0.000 OA
ATOM     58   O  GU6 D   3      70.153 119.379  43.1160  0.00  0.00     0.000 OA
ENDBRANCH 41 53
BRANCH 37 59
ATOM     59  O4  Z9K D   4      74.438 121.149  47.9890  0.00  0.00     0.000 O
BRANCH 59 63
ATOM     60  C1  Z9K D   4      73.458 121.888  51.7230  0.00  0.00     0.000 C
ATOM     61  C2  Z9K D   4      74.967 121.551  51.8690  0.00  0.00     0.000 C
ATOM     62  C3  Z9K D   4      75.399 121.434  50.3430  0.00  0.00     0.000 C
ATOM     63  C4  Z9K D   4      74.488 120.622  49.3470  0.00  0.00     0.000 C
ATOM     64  C5  Z9K D   4      73.000 120.528  49.7180  0.00  0.00     0.000 C
ATOM     65  O5  Z9K D   4      72.757 121.788  50.3960  0.00  0.00     0.000 O
ATOM     66   O  Z9K D   4      76.719 120.889  50.1660  0.00  0.00     0.000 O
ATOM     67   C  Z9K D   4      77.764 121.844  50.2460  0.00  0.00     0.000 C
BRANCH 61 68
ATOM     68   O  Z9K D   4      75.598 122.698  52.3700  0.00  0.00     0.000 O
ATOM     69   O  Z9K D   4      76.720 120.569  53.2410  0.00  0.00     0.000 OA
ATOM     70   S  Z9K D   4      75.826 121.637  53.5730  0.00  0.00     0.000 S
ATOM     71   O  Z9K D   4      74.612 121.510  54.3190  0.00  0.00     0.000 OA
ATOM     72   O  Z9K D   4      76.547 122.781  54.0310  0.00  0.00     0.000 OA
ENDBRANCH 61 68
BRANCH 64 73
ATOM     73   C  Z9K D   4      72.147 120.174  48.4810  0.00  0.00     0.000 C
ATOM     74   O  Z9K D   4      72.181 119.017  47.9700  0.00  0.00     0.000 O
ATOM     75   O  Z9K D   4      71.386 121.013  47.9400  0.00  0.00     0.000 OA
ENDBRANCH 64 73
BRANCH 60 76
ATOM     76  O4  Z9L D   5      72.349 121.369  52.4770  0.00  0.00     0.000 O
BRANCH 76 80
ATOM     77  C1  Z9L D   5      68.817 122.306  54.0950  0.00  0.00     0.000 C
ATOM     78  C2  Z9L D   5      68.538 121.202  52.9660  0.00  0.00     0.000 C
ATOM     79  C3  Z9L D   5      70.027 120.481  52.6130  0.00  0.00     0.000 C
ATOM     80  C4  Z9L D   5      71.016 121.799  52.5810  0.00  0.00     0.000 C
ATOM     81  C5  Z9L D   5      71.146 123.043  53.5980  0.00  0.00     0.000 C
ATOM     82  O5  Z9L D   5      69.807 123.405  53.9680  0.00  0.00     0.000 O
ATOM     83   C  Z9L D   5      69.281 122.495  56.4700  0.00  0.00     0.000 C
ATOM     84   C  Z9L D   5      69.281 122.495  56.4700  0.00  0.00     0.000 C
BRANCH 78 85
ATOM     85   O  Z9L D   5      67.682 120.243  53.5010  0.00  0.00     0.000 O
ATOM     86   O  Z9L D   5      65.852 119.971  52.9670  0.00  0.00     0.000 OA
ATOM     87   S  Z9L D   5      66.771 120.868  52.3350  0.00  0.00     0.000 S
ATOM     88   O  Z9L D   5      67.017 120.297  51.0340  0.00  0.00     0.000 OA
ATOM     89   O  Z9L D   5      66.245 122.169  52.5710  0.00  0.00     0.000 OA
ENDBRANCH 78 85
BRANCH 79 90
ATOM     90   O  Z9L D   5      70.075 120.035  51.2950  0.00  0.00     0.000 O
ATOM     91   S  Z9L D   5      70.387 118.668  52.0510  0.00  0.00     0.000 S
ATOM     92   O  Z9L D   5      69.505 118.121  53.0480  0.00  0.00     0.000 OA
ATOM     93   O  Z9L D   5      71.814 118.490  52.1450  0.00  0.00     0.000 O
ATOM     94   O  Z9L D   5      69.978 118.141  50.7890  0.00  0.00     0.000 OA
ENDBRANCH 79 90
BRANCH 81 95
ATOM     95   C  Z9L D   5      72.218 124.265  53.1840  0.00  0.00     0.000 C
ATOM     96   S  Z9L D   5      72.401 126.034  52.2870  0.00  0.00     0.000 S
ATOM     97   O  Z9L D   5      71.553 124.730  52.0410  0.00  0.00     0.000 O
ATOM     98   O  Z9L D   5      73.759 125.719  51.9260  0.00  0.00     0.000 OA
ATOM     99   O  Z9L D   5      72.098 126.754  53.4770  0.00  0.00     0.000 OA
ATOM    100   O  Z9L D   5      71.699 126.451  51.0980  0.00  0.00     0.000 O
ENDBRANCH 81 95
ENDBRANCH 76 80
ENDBRANCH 60 76
ENDBRANCH 59 63
ENDBRANCH 37 59
ENDBRANCH 36 40
ENDBRANCH 23 36
ENDBRANCH 22 26
ENDBRANCH 1 22
TORSDOF 19
ENDMDL
MODEL 75
REMARK VINA RESULT:      -0.5     76.073     82.109
ROOT
ATOM      1  C1  Z9H D   1      10.810 112.474  27.6370  0.00  0.00     0.000 C
ATOM      2  C2  Z9H D   1      10.077 111.691  28.7530  0.00  0.00     0.000 C
ATOM      3  C3  Z9H D   1       8.703 112.425  28.6720  0.00  0.00     0.000 C
ATOM      4  C4  Z9H D   1       8.775 114.007  28.7080  0.00  0.00     0.000 C
ATOM      5  C5  Z9H D   1       9.774 114.847  27.8160  0.00  0.00     0.000 C
ATOM      6  O5  Z9H D   1      10.885 113.926  27.6830  0.00  0.00     0.000 O
ATOM      7   O  Z9H D   1       7.792 111.946  29.6630  0.00  0.00     0.000 O
ATOM      8   C  Z9H D   1       6.840 110.972  29.2060  0.00  0.00     0.000 C
ATOM      9   O  Z9H D   1       7.452 114.464  28.4060  0.00  0.00     0.000 O
ATOM     10   C  Z9H D   1       6.657 114.841  29.5330  0.00  0.00     0.000 C
ENDROOT
BRANCH 2 11
ATOM     11   O  Z9H D   1       9.862 110.445  28.1420  0.00  0.00     0.000 O
ATOM     12   O  Z9H D   1      10.695 108.842  28.6850  0.00  0.00     0.000 OA
ATOM     13   S  Z9H D   1      10.867 110.103  29.3250  0.00  0.00     0.000 S
ATOM     14   O  Z9H D   1      10.159 110.224  30.5670  0.00  0.00     0.000 OA
ATOM     15   O  Z9H D   1      12.190 110.622  29.0680  0.00  0.00     0.000 O
ENDBRANCH 2 11
BRANCH 5 16
ATOM     16   C  Z9H D   1      10.008 116.428  28.3110  0.00  0.00     0.000 C
ATOM     17   S  Z9H D   1      10.480 118.279  27.6850  0.00  0.00     0.000 S
ATOM     18   O  Z9H D   1       9.570 117.065  27.1350  0.00  0.00     0.000 O
ATOM     19   O  Z9H D   1      11.892 118.022  27.6840  0.00  0.00     0.000 O
ATOM     20   O  Z9H D   1       9.811 118.954  28.7430  0.00  0.00     0.000 OA
ATOM     21   O  Z9H D   1      10.040 118.858  26.4500  0.00  0.00     0.000 OA
ENDBRANCH 5 16
BRANCH 1 22
ATOM     22  O4  GU1 D   2      10.266 112.276  26.2820  0.00  0.00     0.000 O
BRANCH 22 26
ATOM     23  C1  GU1 D   2      11.210 111.937  22.2870  0.00  0.00     0.000 C
ATOM     24  C2  GU1 D   2      12.231 111.332  23.2390  0.00  0.00     0.000 C
ATOM     25  C3  GU1 D   2      11.611 111.174  24.5970  0.00  0.00     0.000 C
ATOM     26  C4  GU1 D   2      11.012 112.488  25.0780  0.00  0.00     0.000 C
ATOM     27  C5  GU1 D   2      10.082 113.063  24.0050  0.00  0.00     0.000 C
ATOM     28  O5  GU1 D   2      10.774 113.203  22.7680  0.00  0.00     0.000 O
ATOM     29   O  GU1 D   2      12.674 110.053  22.8010  0.00  0.00     0.000 O
ATOM     30   C  GU1 D   2      13.898 110.085  22.0800  0.00  0.00     0.000 C
ATOM     31   C  GU1 D   2      12.626 109.389  25.8520  0.00  0.00     0.000 C
ATOM     32   O  GU1 D   2      12.633 110.774  25.5160  0.00  0.00     0.000 O
BRANCH 27 33
ATOM     33   C  GU1 D   2       9.566 114.426  24.4040  0.00  0.00     0.000 C
ATOM     34   O  GU1 D   2      10.339 115.362  24.3930  0.00  0.00     0.000 OA
ATOM     35   O  GU1 D   2       8.398 114.578  24.7240  0.00  0.00     0.000 O
ENDBRANCH 27 33
BRANCH 23 36
ATOM     36  O4  GU6 D   3      11.626 112.415  20.9920  0.00  0.00     0.000 O
BRANCH 36 40
ATOM     37  C1  GU6 D   3      12.817 114.750  17.8580  0.00  0.00     0.000 C
ATOM     38  C2  GU6 D   3      12.074 113.487  17.4410  0.00  0.00     0.000 C
ATOM     39  C3  GU6 D   3      11.448 112.846  18.6520  0.00  0.00     0.000 C
ATOM     40  C4  GU6 D   3      11.821 113.371  19.9700  0.00  0.00     0.000 C
ATOM     41  C5  GU6 D   3      13.340 113.745  19.9720  0.00  0.00     0.000 C
ATOM     42  O5  GU6 D   3      13.825 114.394  18.7910  0.00  0.00     0.000 O
BRANCH 38 43
ATOM     43   O  GU6 D   3      11.076 113.789  16.4850  0.00  0.00     0.000 O
ATOM     44   S  GU6 D   3      11.193 113.006  15.1840  0.00  0.00     0.000 S
ATOM     45   O  GU6 D   3      12.199 113.662  14.3310  0.00  0.00     0.000 OA
ATOM     46   O  GU6 D   3      11.636 111.635  15.4970  0.00  0.00     0.000 O
ATOM     47   O  GU6 D   3       9.886 112.973  14.5350  0.00  0.00     0.000 OA
ENDBRANCH 38 43
BRANCH 39 48
ATOM     48   O  GU6 D   3      10.371 111.938  18.5190  0.00  0.00     0.000 O
ATOM     49   S  GU6 D   3       8.868 112.169  18.6730  0.00  0.00     0.000 S
ATOM     50   O  GU6 D   3       8.430 113.251  17.7850  0.00  0.00     0.000 OA
ATOM     51   O  GU6 D   3       8.290 110.881  18.2660  0.00  0.00     0.000 OA
ATOM     52   O  GU6 D   3       8.579 112.520  20.0810  0.00  0.00     0.000 O
ENDBRANCH 39 48
BRANCH 41 53
ATOM     53   C  GU6 D   3      14.367 113.533  21.0520  0.00  0.00     0.000 C
ATOM     54   O  GU6 D   3      13.802 114.377  22.0210  0.00  0.00     0.000 O
ATOM     55   S  GU6 D   3      14.529 114.637  23.3470  0.00  0.00     0.000 S
ATOM     56   O  GU6 D   3      15.767 115.380  23.0170  0.00  0.00     0.000 O
ATOM     57   O  GU6 D   3      13.654 115.442  24.2120  0.00  0.00     0.000 OA
ATOM     58   O  GU6 D   3      14.843 113.318  23.9410  0.00  0.00     0.000 OA
ENDBRANCH 41 53
BRANCH 37 59
ATOM     59  O4  Z9K D   4      12.193 115.958  18.3400  0.00  0.00     0.000 O
BRANCH 59 63
ATOM     60  C1  Z9K D   4      10.335 119.416  18.1450  0.00  0.00     0.000 C
ATOM     61  C2  Z9K D   4      10.729 119.201  16.6570  0.00  0.00     0.000 C
ATOM     62  C3  Z9K D   4      11.313 117.723  16.7100  0.00  0.00     0.000 C
ATOM     63  C4  Z9K D   4      12.308 117.332  17.8690  0.00  0.00     0.000 C
ATOM     64  C5  Z9K D   4      12.177 118.138  19.1710  0.00  0.00     0.000 C
ATOM     65  O5  Z9K D   4      10.760 118.449  19.2160  0.00  0.00     0.000 O
ATOM     66   O  Z9K D   4      11.986 117.333  15.4990  0.00  0.00     0.000 O
ATOM     67   C  Z9K D   4      11.130 116.812  14.4960  0.00  0.00     0.000 C
BRANCH 61 68
ATOM     68   O  Z9K D   4       9.537 119.127  15.9230  0.00  0.00     0.000 O
ATOM     69   O  Z9K D   4      11.395 120.246  14.5640  0.00  0.00     0.000 OA
ATOM     70   S  Z9K D   4      10.210 120.478  15.3340  0.00  0.00     0.000 S
ATOM     71   O  Z9K D   4      10.017 121.541  16.2720  0.00  0.00     0.000 OA
ATOM     72   O  Z9K D   4       9.042 120.339  14.5260  0.00  0.00     0.000 OA
ENDBRANCH 61 68
BRANCH 64 73
ATOM     73   C  Z9K D   4      12.807 117.374  20.3550  0.00  0.00     0.000 C
ATOM     74   O  Z9K D   4      14.062 117.248  20.4600  0.00  0.00     0.000 O
ATOM     75   O  Z9K D   4      12.104 116.857  21.2570  0.00  0.00     0.000 OA
ENDBRANCH 64 73
BRANCH 60 76
ATOM     76  O4  Z9L D   5      10.528 120.583  18.9620  0.00  0.00     0.000 O
BRANCH 76 80
ATOM     77  C1  Z9L D   5       8.947 122.768  21.9110  0.00  0.00     0.000 C
ATOM     78  C2  Z9L D   5      10.336 122.179  22.4550  0.00  0.00     0.000 C
ATOM     79  C3  Z9L D   5      11.207 121.659  21.1010  0.00  0.00     0.000 C
ATOM     80  C4  Z9L D   5      10.020 120.926  20.2250  0.00  0.00     0.000 C
ATOM     81  C5  Z9L D   5       8.525 121.411  19.8620  0.00  0.00     0.000 C
ATOM     82  O5  Z9L D   5       7.997 122.017  21.0510  0.00  0.00     0.000 O
ATOM     83   C  Z9L D   5       8.039 124.718  20.7870  0.00  0.00     0.000 C
ATOM     84   C  Z9L D   5       8.039 124.718  20.7870  0.00  0.00     0.000 C
BRANCH 78 85
ATOM     85   O  Z9L D   5      11.031 123.214  23.0740  0.00  0.00     0.000 O
ATOM     86   O  Z9L D   5      11.350 123.356  24.9680  0.00  0.00     0.000 OA
ATOM     87   S  Z9L D   5      10.747 122.234  24.3150  0.00  0.00     0.000 S
ATOM     88   O  Z9L D   5      11.708 121.166  24.4440  0.00  0.00     0.000 OA
ATOM     89   O  Z9L D   5       9.410 122.193  24.7980  0.00  0.00     0.000 OA
ENDBRANCH 78 85
BRANCH 79 90
ATOM     90   O  Z9L D   5      12.049 120.597  21.4170  0.00  0.00     0.000 O
ATOM     91   S  Z9L D   5      13.118 121.619  20.8270  0.00  0.00     0.000 S
ATOM     92   O  Z9L D   5      13.281 122.951  21.3500  0.00  0.00     0.000 OA
ATOM     93   O  Z9L D   5      13.322 121.342  19.4270  0.00  0.00     0.000 O
ATOM     94   O  Z9L D   5      14.000 120.768  21.5590  0.00  0.00     0.000 OA
ENDBRANCH 79 90
BRANCH 81 95
ATOM     95   C  Z9L D   5       7.554 120.339  19.0120  0.00  0.00     0.000 C
ATOM     96   S  Z9L D   5       6.140 118.946  19.1750  0.00  0.00     0.000 S
ATOM     97   O  Z9L D   5       7.396 119.377  20.0210  0.00  0.00     0.000 O
ATOM     98   O  Z9L D   5       6.639 118.290  17.9950  0.00  0.00     0.000 OA
ATOM     99   O  Z9L D   5       5.085 119.901  19.1030  0.00  0.00     0.000 OA
ATOM    100   O  Z9L D   5       6.038 117.969  20.2310  0.00  0.00     0.000 O
ENDBRANCH 81 95
ENDBRANCH 76 80
ENDBRANCH 60 76
ENDBRANCH 59 63
ENDBRANCH 37 59
ENDBRANCH 36 40
ENDBRANCH 23 36
ENDBRANCH 22 26
ENDBRANCH 1 22
TORSDOF 19
ENDMDL
MODEL 76
REMARK VINA RESULT:      -0.5    103.521    109.432
ROOT
ATOM      1  C1  Z9H D   1     119.557  47.239  20.1320  0.00  0.00     0.000 C
ATOM      2  C2  Z9H D   1     118.044  47.425  19.8650  0.00  0.00     0.000 C
ATOM      3  C3  Z9H D   1     117.565  47.503  21.3470  0.00  0.00     0.000 C
ATOM      4  C4  Z9H D   1     118.083  46.340  22.2900  0.00  0.00     0.000 C
ATOM      5  C5  Z9H D   1     119.593  45.877  22.3420  0.00  0.00     0.000 C
ATOM      6  O5  Z9H D   1     120.027  46.161  20.9880  0.00  0.00     0.000 O
ATOM      7   O  Z9H D   1     116.143  47.618  21.4350  0.00  0.00     0.000 O
ATOM      8   C  Z9H D   1     115.644  48.952  21.6280  0.00  0.00     0.000 C
ATOM      9   O  Z9H D   1     117.713  46.723  23.6190  0.00  0.00     0.000 O
ATOM     10   C  Z9H D   1     116.525  46.110  24.1300  0.00  0.00     0.000 C
ENDROOT
BRANCH 2 11
ATOM     11   O  Z9H D   1     117.991  48.746  19.3930  0.00  0.00     0.000 O
ATOM     12   O  Z9H D   1     117.542  49.222  17.6240  0.00  0.00     0.000 OA
ATOM     13   S  Z9H D   1     117.553  47.890  18.1280  0.00  0.00     0.000 S
ATOM     14   O  Z9H D   1     116.246  47.353  18.3770  0.00  0.00     0.000 OA
ATOM     15   O  Z9H D   1     118.664  47.151  17.5740  0.00  0.00     0.000 O
ENDBRANCH 2 11
BRANCH 5 16
ATOM     16   C  Z9H D   1     119.852  44.380  23.0430  0.00  0.00     0.000 C
ATOM     17   S  Z9H D   1     121.111  43.314  24.1910  0.00  0.00     0.000 S
ATOM     18   O  Z9H D   1     120.534  44.821  24.1920  0.00  0.00     0.000 O
ATOM     19   O  Z9H D   1     121.996  43.008  23.1030  0.00  0.00     0.000 O
ATOM     20   O  Z9H D   1     120.124  42.410  24.6700  0.00  0.00     0.000 OA
ATOM     21   O  Z9H D   1     121.816  43.834  25.3260  0.00  0.00     0.000 OA
ENDBRANCH 5 16
BRANCH 1 22
ATOM     22  O4  GU1 D   2     120.219  48.393  20.7660  0.00  0.00     0.000 O
BRANCH 22 26
ATOM     23  C1  GU1 D   2     123.703  50.583  20.9710  0.00  0.00     0.000 C
ATOM     24  C2  GU1 D   2     123.378  50.024  19.5940  0.00  0.00     0.000 C
ATOM     25  C3  GU1 D   2     121.941  49.593  19.5580  0.00  0.00     0.000 C
ATOM     26  C4  GU1 D   2     121.629  48.644  20.7050  0.00  0.00     0.000 C
ATOM     27  C5  GU1 D   2     122.087  49.256  22.0320  0.00  0.00     0.000 C
ATOM     28  O5  GU1 D   2     123.469  49.598  21.9720  0.00  0.00     0.000 O
ATOM     29   O  GU1 D   2     123.579  50.988  18.5680  0.00  0.00     0.000 O
ATOM     30   C  GU1 D   2     124.839  50.883  17.9190  0.00  0.00     0.000 C
ATOM     31   C  GU1 D   2     121.025  49.682  17.3340  0.00  0.00     0.000 C
ATOM     32   O  GU1 D   2     121.704  48.911  18.3220  0.00  0.00     0.000 O
BRANCH 27 33
ATOM     33   C  GU1 D   2     121.900  48.286  23.1750  0.00  0.00     0.000 C
ATOM     34   O  GU1 D   2     122.621  47.311  23.2280  0.00  0.00     0.000 OA
ATOM     35   O  GU1 D   2     121.046  48.485  24.0240  0.00  0.00     0.000 O
ENDBRANCH 27 33
BRANCH 23 36
ATOM     36  O4  GU6 D   3     125.072  50.837  21.3420  0.00  0.00     0.000 O
BRANCH 36 40
ATOM     37  C1  GU6 D   3     128.851  50.544  22.8680  0.00  0.00     0.000 C
ATOM     38  C2  GU6 D   3     128.368  51.978  22.6830  0.00  0.00     0.000 C
ATOM     39  C3  GU6 D   3     126.892  51.978  22.3810  0.00  0.00     0.000 C
ATOM     40  C4  GU6 D   3     126.253  50.687  22.1040  0.00  0.00     0.000 C
ATOM     41  C5  GU6 D   3     127.228  49.789  21.2710  0.00  0.00     0.000 C
ATOM     42  O5  GU6 D   3     128.603  49.825  21.6700  0.00  0.00     0.000 O
BRANCH 38 43
ATOM     43   O  GU6 D   3     128.623  52.743  23.8450  0.00  0.00     0.000 O
ATOM     44   S  GU6 D   3     129.435  54.008  23.5990  0.00  0.00     0.000 S
ATOM     45   O  GU6 D   3     130.861  53.644  23.5340  0.00  0.00     0.000 OA
ATOM     46   O  GU6 D   3     129.019  54.591  22.3110  0.00  0.00     0.000 O
ATOM     47   O  GU6 D   3     129.176  54.951  24.6830  0.00  0.00     0.000 OA
ENDBRANCH 38 43
BRANCH 39 48
ATOM     48   O  GU6 D   3     126.109  53.138  22.5870  0.00  0.00     0.000 O
ATOM     49   S  GU6 D   3     125.214  53.521  23.7650  0.00  0.00     0.000 S
ATOM     50   O  GU6 D   3     125.979  53.477  25.0160  0.00  0.00     0.000 OA
ATOM     51   O  GU6 D   3     124.805  54.894  23.4400  0.00  0.00     0.000 OA
ATOM     52   O  GU6 D   3     124.078  52.575  23.8330  0.00  0.00     0.000 O
ENDBRANCH 39 48
BRANCH 41 53
ATOM     53   C  GU6 D   3     126.921  48.877  20.1150  0.00  0.00     0.000 C
ATOM     54   O  GU6 D   3     126.133  47.946  20.8100  0.00  0.00     0.000 O
ATOM     55   S  GU6 D   3     125.621  46.681  20.1070  0.00  0.00     0.000 S
ATOM     56   O  GU6 D   3     126.810  45.858  19.7880  0.00  0.00     0.000 O
ATOM     57   O  GU6 D   3     124.725  45.965  21.0270  0.00  0.00     0.000 OA
ATOM     58   O  GU6 D   3     124.927  47.115  18.8740  0.00  0.00     0.000 OA
ENDBRANCH 41 53
BRANCH 37 59
ATOM     59  O4  Z9K D   4     128.489  49.683  23.9680  0.00  0.00     0.000 O
BRANCH 59 63
ATOM     60  C1  Z9K D   4     128.635  48.206  27.6080  0.00  0.00     0.000 C
ATOM     61  C2  Z9K D   4     129.942  49.046  27.5710  0.00  0.00     0.000 C
ATOM     62  C3  Z9K D   4     129.786  49.785  26.1720  0.00  0.00     0.000 C
ATOM     63  C4  Z9K D   4     129.328  48.956  24.9120  0.00  0.00     0.000 C
ATOM     64  C5  Z9K D   4     128.489  47.701  25.1980  0.00  0.00     0.000 C
ATOM     65  O5  Z9K D   4     127.755  48.072  26.3950  0.00  0.00     0.000 O
ATOM     66   O  Z9K D   4     130.982  50.465  25.7510  0.00  0.00     0.000 O
ATOM     67   C  Z9K D   4     131.125  51.776  26.2730  0.00  0.00     0.000 C
BRANCH 61 68
ATOM     68   O  Z9K D   4     129.822  50.036  28.5550  0.00  0.00     0.000 O
ATOM     69   O  Z9K D   4     132.248  49.259  28.3140  0.00  0.00     0.000 OA
ATOM     70   S  Z9K D   4     131.064  49.159  29.1130  0.00  0.00     0.000 S
ATOM     71   O  Z9K D   4     130.557  47.961  29.7100  0.00  0.00     0.000 OA
ATOM     72   O  Z9K D   4     130.994  50.227  30.0570  0.00  0.00     0.000 OA
ENDBRANCH 61 68
BRANCH 64 73
ATOM     73   C  Z9K D   4     127.697  47.272  23.9450  0.00  0.00     0.000 C
ATOM     74   O  Z9K D   4     126.444  47.433  23.8750  0.00  0.00     0.000 O
ATOM     75   O  Z9K D   4     128.262  46.757  22.9500  0.00  0.00     0.000 OA
ENDBRANCH 64 73
BRANCH 60 76
ATOM     76  O4  Z9L D   5     128.459  46.842  28.0280  0.00  0.00     0.000 O
BRANCH 76 80
ATOM     77  C1  Z9L D   5     125.996  44.313  29.9000  0.00  0.00     0.000 C
ATOM     78  C2  Z9L D   5     126.094  43.829  28.3740  0.00  0.00     0.000 C
ATOM     79  C3  Z9L D   5     127.454  44.587  27.7110  0.00  0.00     0.000 C
ATOM     80  C4  Z9L D   5     127.302  46.106  28.3310  0.00  0.00     0.000 C
ATOM     81  C5  Z9L D   5     126.972  46.606  29.8280  0.00  0.00     0.000 C
ATOM     82  O5  Z9L D   5     125.948  45.734  30.3290  0.00  0.00     0.000 O
ATOM     83   C  Z9L D   5     127.041  43.954  32.0610  0.00  0.00     0.000 C
ATOM     84   C  Z9L D   5     127.041  43.954  32.0610  0.00  0.00     0.000 C
BRANCH 78 85
ATOM     85   O  Z9L D   5     126.292  42.452  28.3690  0.00  0.00     0.000 O
ATOM     86   O  Z9L D   5     125.003  41.151  27.7740  0.00  0.00     0.000 OA
ATOM     87   S  Z9L D   5     124.853  42.570  27.6640  0.00  0.00     0.000 S
ATOM     88   O  Z9L D   5     124.919  42.844  26.2500  0.00  0.00     0.000 OA
ATOM     89   O  Z9L D   5     123.758  42.898  28.5100  0.00  0.00     0.000 OA
ENDBRANCH 78 85
BRANCH 79 90
ATOM     90   O  Z9L D   5     127.300  44.801  26.3440  0.00  0.00     0.000 O
ATOM     91   S  Z9L D   5     128.636  43.933  26.3300  0.00  0.00     0.000 S
ATOM     92   O  Z9L D   5     128.713  42.628  26.9310  0.00  0.00     0.000 OA
ATOM     93   O  Z9L D   5     129.777  44.815  26.3220  0.00  0.00     0.000 O
ATOM     94   O  Z9L D   5     128.234  43.752  24.9730  0.00  0.00     0.000 OA
ENDBRANCH 79 90
BRANCH 81 95
ATOM     95   C  Z9L D   5     126.803  48.258  30.0670  0.00  0.00     0.000 C
ATOM     96   S  Z9L D   5     125.498  49.757  30.1940  0.00  0.00     0.000 S
ATOM     97   O  Z9L D   5     125.618  48.440  29.3400  0.00  0.00     0.000 O
ATOM     98   O  Z9L D   5     126.489  50.672  29.6870  0.00  0.00     0.000 OA
ATOM     99   O  Z9L D   5     125.308  49.573  31.5930  0.00  0.00     0.000 OA
ATOM    100   O  Z9L D   5     124.300  49.899  29.4050  0.00  0.00     0.000 O
ENDBRANCH 81 95
ENDBRANCH 76 80
ENDBRANCH 60 76
ENDBRANCH 59 63
ENDBRANCH 37 59
ENDBRANCH 36 40
ENDBRANCH 23 36
ENDBRANCH 22 26
ENDBRANCH 1 22
TORSDOF 19
ENDMDL
MODEL 77
REMARK VINA RESULT:      -0.5    125.525    129.613
ROOT
ATOM      1  C1  Z9H D   1      37.980  34.279 138.8780  0.00  0.00     0.000 C
ATOM      2  C2  Z9H D   1      37.043  33.091 139.2070  0.00  0.00     0.000 C
ATOM      3  C3  Z9H D   1      37.388  32.191 137.9810  0.00  0.00     0.000 C
ATOM      4  C4  Z9H D   1      37.319  32.909 136.5700  0.00  0.00     0.000 C
ATOM      5  C5  Z9H D   1      37.983  34.315 136.2830  0.00  0.00     0.000 C
ATOM      6  O5  Z9H D   1      37.901  34.943 137.5870  0.00  0.00     0.000 O
ATOM      7   O  Z9H D   1      36.605  30.996 137.9690  0.00  0.00     0.000 O
ATOM      8   C  Z9H D   1      37.256  29.828 138.4960  0.00  0.00     0.000 C
ATOM      9   O  Z9H D   1      37.874  31.980 135.6330  0.00  0.00     0.000 O
ATOM     10   C  Z9H D   1      36.923  31.219 134.8820  0.00  0.00     0.000 C
ENDROOT
BRANCH 2 11
ATOM     11   O  Z9H D   1      37.700  32.494 140.2950  0.00  0.00     0.000 O
ATOM     12   O  Z9H D   1      37.020  32.462 142.0540  0.00  0.00     0.000 OA
ATOM     13   S  Z9H D   1      36.344  33.022 140.9330  0.00  0.00     0.000 S
ATOM     14   O  Z9H D   1      35.268  32.210 140.4400  0.00  0.00     0.000 OA
ATOM     15   O  Z9H D   1      36.322  34.464 141.0250  0.00  0.00     0.000 O
ENDBRANCH 2 11
BRANCH 5 16
ATOM     16   C  Z9H D   1      37.431  35.091 134.9060  0.00  0.00     0.000 C
ATOM     17   S  Z9H D   1      37.983  36.230 133.3450  0.00  0.00     0.000 S
ATOM     18   O  Z9H D   1      38.598  34.961 134.1310  0.00  0.00     0.000 O
ATOM     19   O  Z9H D   1      37.951  37.449 134.1010  0.00  0.00     0.000 O
ATOM     20   O  Z9H D   1      36.925  35.813 132.4930  0.00  0.00     0.000 OA
ATOM     21   O  Z9H D   1      39.212  36.079 132.6220  0.00  0.00     0.000 OA
ENDBRANCH 5 16
BRANCH 1 22
ATOM     22  O4  GU1 D   2      39.419  33.966 138.9320  0.00  0.00     0.000 O
BRANCH 22 26
ATOM     23  C1  GU1 D   2      43.151  35.422 139.8890  0.00  0.00     0.000 C
ATOM     24  C2  GU1 D   2      42.024  35.914 140.7840  0.00  0.00     0.000 C
ATOM     25  C3  GU1 D   2      40.818  35.041 140.5900  0.00  0.00     0.000 C
ATOM     26  C4  GU1 D   2      40.448  34.945 139.1170  0.00  0.00     0.000 C
ATOM     27  C5  GU1 D   2      41.675  34.544 138.2930  0.00  0.00     0.000 C
ATOM     28  O5  GU1 D   2      42.749  35.452 138.5250  0.00  0.00     0.000 O
ATOM     29   O  GU1 D   2      42.382  35.877 142.1600  0.00  0.00     0.000 O
ATOM     30   C  GU1 D   2      42.845  37.121 142.6670  0.00  0.00     0.000 C
ATOM     31   C  GU1 D   2      39.411  34.995 142.5420  0.00  0.00     0.000 C
ATOM     32   O  GU1 D   2      39.720  35.623 141.3000  0.00  0.00     0.000 O
BRANCH 27 33
ATOM     33   C  GU1 D   2      41.369  34.557 136.8150  0.00  0.00     0.000 C
ATOM     34   O  GU1 D   2      41.316  33.497 136.2260  0.00  0.00     0.000 OA
ATOM     35   O  GU1 D   2      41.176  35.612 136.2300  0.00  0.00     0.000 O
ENDBRANCH 27 33
BRANCH 23 36
ATOM     36  O4  GU6 D   3      44.331  36.230 139.7060  0.00  0.00     0.000 O
BRANCH 36 40
ATOM     37  C1  GU6 D   3      47.122  38.837 138.2550  0.00  0.00     0.000 C
ATOM     38  C2  GU6 D   3      47.699  37.751 139.1540  0.00  0.00     0.000 C
ATOM     39  C3  GU6 D   3      46.652  36.699 139.4100  0.00  0.00     0.000 C
ATOM     40  C4  GU6 D   3      45.279  36.984 138.9780  0.00  0.00     0.000 C
ATOM     41  C5  GU6 D   3      44.956  38.495 139.2270  0.00  0.00     0.000 C
ATOM     42  O5  GU6 D   3      46.003  39.418 138.9070  0.00  0.00     0.000 O
BRANCH 38 43
ATOM     43   O  GU6 D   3      48.838  37.163 138.5570  0.00  0.00     0.000 O
ATOM     44   S  GU6 D   3      50.092  37.201 139.4210  0.00  0.00     0.000 S
ATOM     45   O  GU6 D   3      50.715  38.529 139.2860  0.00  0.00     0.000 OA
ATOM     46   O  GU6 D   3      49.701  36.984 140.8260  0.00  0.00     0.000 O
ATOM     47   O  GU6 D   3      50.996  36.142 138.9840  0.00  0.00     0.000 OA
ENDBRANCH 38 43
BRANCH 39 48
ATOM     48   O  GU6 D   3      47.016  35.399 139.8340  0.00  0.00     0.000 O
ATOM     49   S  GU6 D   3      47.187  34.115 139.0230  0.00  0.00     0.000 S
ATOM     50   O  GU6 D   3      48.143  34.330 137.9310  0.00  0.00     0.000 OA
ATOM     51   O  GU6 D   3      47.714  33.164 140.0120  0.00  0.00     0.000 OA
ATOM     52   O  GU6 D   3      45.872  33.716 138.4730  0.00  0.00     0.000 O
ENDBRANCH 39 48
BRANCH 41 53
ATOM     53   C  GU6 D   3      43.689  39.120 139.7440  0.00  0.00     0.000 C
ATOM     54   O  GU6 D   3      42.853  38.773 138.6690  0.00  0.00     0.000 O
ATOM     55   S  GU6 D   3      41.405  39.277 138.6160  0.00  0.00     0.000 S
ATOM     56   O  GU6 D   3      41.469  40.748 138.4570  0.00  0.00     0.000 O
ATOM     57   O  GU6 D   3      40.736  38.658 137.4620  0.00  0.00     0.000 OA
ATOM     58   O  GU6 D   3      40.764  38.908 139.8980  0.00  0.00     0.000 OA
ENDBRANCH 41 53
BRANCH 37 59
ATOM     59  O4  Z9K D   4      46.767  38.661 136.8670  0.00  0.00     0.000 O
BRANCH 59 63
ATOM     60  C1  Z9K D   4      47.317  38.397 132.9840  0.00  0.00     0.000 C
ATOM     61  C2  Z9K D   4      48.690  38.959 133.4460  0.00  0.00     0.000 C
ATOM     62  C3  Z9K D   4      48.529  38.890 135.0260  0.00  0.00     0.000 C
ATOM     63  C4  Z9K D   4      47.190  39.400 135.6840  0.00  0.00     0.000 C
ATOM     64  C5  Z9K D   4      45.938  39.344 134.7960  0.00  0.00     0.000 C
ATOM     65  O5  Z9K D   4      46.189  38.186 133.9570  0.00  0.00     0.000 O
ATOM     66   O  Z9K D   4      49.575  39.578 135.7350  0.00  0.00     0.000 O
ATOM     67   C  Z9K D   4      50.741  38.801 135.9580  0.00  0.00     0.000 C
BRANCH 61 68
ATOM     68   O  Z9K D   4      49.660  38.005 133.1070  0.00  0.00     0.000 O
ATOM     69   O  Z9K D   4      50.595  40.380 132.9240  0.00  0.00     0.000 OA
ATOM     70   S  Z9K D   4      50.091  39.263 132.1830  0.00  0.00     0.000 S
ATOM     71   O  Z9K D   4      49.213  39.335 131.0550  0.00  0.00     0.000 OA
ATOM     72   O  Z9K D   4      51.127  38.318 131.9180  0.00  0.00     0.000 OA
ENDBRANCH 61 68
BRANCH 64 73
ATOM     73   C  Z9K D   4      44.655  39.375 135.6530  0.00  0.00     0.000 C
ATOM     74   O  Z9K D   4      44.287  40.432 136.2440  0.00  0.00     0.000 O
ATOM     75   O  Z9K D   4      43.928  38.362 135.7920  0.00  0.00     0.000 OA
ENDBRANCH 64 73
BRANCH 60 76
ATOM     76  O4  Z9L D   5      46.467  38.870 131.9260  0.00  0.00     0.000 O
BRANCH 76 80
ATOM     77  C1  Z9L D   5      44.048  37.742 128.9520  0.00  0.00     0.000 C
ATOM     78  C2  Z9L D   5      43.142  38.514 130.0270  0.00  0.00     0.000 C
ATOM     79  C3  Z9L D   5      44.202  39.375 131.0260  0.00  0.00     0.000 C
ATOM     80  C4  Z9L D   5      45.395  38.261 131.2540  0.00  0.00     0.000 C
ATOM     81  C5  Z9L D   5      46.159  37.305 130.2050  0.00  0.00     0.000 C
ATOM     82  O5  Z9L D   5      45.158  36.819 129.2980  0.00  0.00     0.000 O
ATOM     83   C  Z9L D   5      45.345  38.150 126.9410  0.00  0.00     0.000 C
ATOM     84   C  Z9L D   5      45.345  38.150 126.9410  0.00  0.00     0.000 C
BRANCH 78 85
ATOM     85   O  Z9L D   5      42.330  39.413 129.3410  0.00  0.00     0.000 O
ATOM     86   O  Z9L D   5      40.419  39.260 129.1580  0.00  0.00     0.000 OA
ATOM     87   S  Z9L D   5      41.240  38.410 129.9650  0.00  0.00     0.000 S
ATOM     88   O  Z9L D   5      40.876  38.720 131.3250  0.00  0.00     0.000 OA
ATOM     89   O  Z9L D   5      41.148  37.123 129.3660  0.00  0.00     0.000 OA
ENDBRANCH 78 85
BRANCH 79 90
ATOM     90   O  Z9L D   5      43.680  39.526 132.3070  0.00  0.00     0.000 O
ATOM     91   S  Z9L D   5      43.883  41.057 131.9190  0.00  0.00     0.000 S
ATOM     92   O  Z9L D   5      43.292  41.639 130.7420  0.00  0.00     0.000 OA
ATOM     93   O  Z9L D   5      45.163  41.507 132.4060  0.00  0.00     0.000 O
ATOM     94   O  Z9L D   5      42.947  41.217 132.9850  0.00  0.00     0.000 OA
ENDBRANCH 79 90
BRANCH 81 95
ATOM     95   C  Z9L D   5      47.272  36.215 130.8270  0.00  0.00     0.000 C
ATOM     96   S  Z9L D   5      47.544  34.338 131.4350  0.00  0.00     0.000 S
ATOM     97   O  Z9L D   5      46.371  35.386 131.5110  0.00  0.00     0.000 O
ATOM     98   O  Z9L D   5      48.553  34.778 132.3640  0.00  0.00     0.000 OA
ATOM     99   O  Z9L D   5      47.886  33.885 130.1290  0.00  0.00     0.000 OA
ATOM    100   O  Z9L D   5      46.582  33.538 132.1530  0.00  0.00     0.000 O
ENDBRANCH 81 95
ENDBRANCH 76 80
ENDBRANCH 60 76
ENDBRANCH 59 63
ENDBRANCH 37 59
ENDBRANCH 36 40
ENDBRANCH 23 36
ENDBRANCH 22 26
ENDBRANCH 1 22
TORSDOF 19
ENDMDL
MODEL 78
REMARK VINA RESULT:      -0.5    113.281    120.033
ROOT
ATOM      1  C1  Z9H D   1      18.966 138.346  65.0120  0.00  0.00     0.000 C
ATOM      2  C2  Z9H D   1      18.450 136.955  65.4530  0.00  0.00     0.000 C
ATOM      3  C3  Z9H D   1      19.613 136.093  64.8730  0.00  0.00     0.000 C
ATOM      4  C4  Z9H D   1      19.978 136.377  63.3570  0.00  0.00     0.000 C
ATOM      5  C5  Z9H D   1      20.179 137.832  62.7750  0.00  0.00     0.000 C
ATOM      6  O5  Z9H D   1      19.286 138.604  63.6170  0.00  0.00     0.000 O
ATOM      7   O  Z9H D   1      19.384 134.697  65.0760  0.00  0.00     0.000 O
ATOM      8   C  Z9H D   1      20.062 134.120  66.2050  0.00  0.00     0.000 C
ATOM      9   O  Z9H D   1      21.186 135.650  63.1060  0.00  0.00     0.000 O
ATOM     10   C  Z9H D   1      21.023 134.390  62.4480  0.00  0.00     0.000 C
ENDROOT
BRANCH 2 11
ATOM     11   O  Z9H D   1      18.674 136.987  66.8380  0.00  0.00     0.000 O
ATOM     12   O  Z9H D   1      17.302 137.010  68.1330  0.00  0.00     0.000 OA
ATOM     13   S  Z9H D   1      17.090 136.930  66.7270  0.00  0.00     0.000 S
ATOM     14   O  Z9H D   1      16.717 135.622  66.2700  0.00  0.00     0.000 OA
ATOM     15   O  Z9H D   1      16.545 138.171  66.2280  0.00  0.00     0.000 O
ENDBRANCH 2 11
BRANCH 5 16
ATOM     16   C  Z9H D   1      20.115 137.943  61.1060  0.00  0.00     0.000 C
ATOM     17   S  Z9H D   1      20.892 138.875  59.5040  0.00  0.00     0.000 S
ATOM     18   O  Z9H D   1      21.467 138.265  60.8830  0.00  0.00     0.000 O
ATOM     19   O  Z9H D   1      20.063 140.036  59.6580  0.00  0.00     0.000 O
ATOM     20   O  Z9H D   1      20.605 137.828  58.5860  0.00  0.00     0.000 OA
ATOM     21   O  Z9H D   1      22.276 139.221  59.3540  0.00  0.00     0.000 OA
ENDBRANCH 5 16
BRANCH 1 22
ATOM     22  O4  GU1 D   2      20.219 138.775  65.6580  0.00  0.00     0.000 O
BRANCH 22 26
ATOM     23  C1  GU1 D   2      22.318 142.000  67.1290  0.00  0.00     0.000 C
ATOM     24  C2  GU1 D   2      20.811 142.076  67.3210  0.00  0.00     0.000 C
ATOM     25  C3  GU1 D   2      20.212 140.716  67.1050  0.00  0.00     0.000 C
ATOM     26  C4  GU1 D   2      20.642 140.139  65.7640  0.00  0.00     0.000 C
ATOM     27  C5  GU1 D   2      22.166 140.204  65.6300  0.00  0.00     0.000 C
ATOM     28  O5  GU1 D   2      22.627 141.539  65.8190  0.00  0.00     0.000 O
ATOM     29   O  GU1 D   2      20.462 142.513  68.6290  0.00  0.00     0.000 O
ATOM     30   C  GU1 D   2      20.183 143.903  68.7160  0.00  0.00     0.000 C
ATOM     31   C  GU1 D   2      18.156 140.430  68.3230  0.00  0.00     0.000 C
ATOM     32   O  GU1 D   2      18.787 140.844  67.1130  0.00  0.00     0.000 O
BRANCH 27 33
ATOM     33   C  GU1 D   2      22.614 139.750  64.2610  0.00  0.00     0.000 C
ATOM     34   O  GU1 D   2      22.367 140.460  63.3070  0.00  0.00     0.000 OA
ATOM     35   O  GU1 D   2      23.213 138.695  64.1220  0.00  0.00     0.000 O
ENDBRANCH 27 33
BRANCH 23 36
ATOM     36  O4  GU6 D   3      23.096 143.210  67.0390  0.00  0.00     0.000 O
BRANCH 36 40
ATOM     37  C1  GU6 D   3      25.188 146.446  65.6830  0.00  0.00     0.000 C
ATOM     38  C2  GU6 D   3      25.598 145.985  67.0770  0.00  0.00     0.000 C
ATOM     39  C3  GU6 D   3      24.973 144.645  67.3680  0.00  0.00     0.000 C
ATOM     40  C4  GU6 D   3      23.961 144.147  66.4300  0.00  0.00     0.000 C
ATOM     41  C5  GU6 D   3      23.076 145.338  65.9340  0.00  0.00     0.000 C
ATOM     42  O5  GU6 D   3      23.774 146.553  65.6390  0.00  0.00     0.000 O
BRANCH 38 43
ATOM     43   O  GU6 D   3      27.006 145.894  67.1770  0.00  0.00     0.000 O
ATOM     44   S  GU6 D   3      27.609 146.702  68.3180  0.00  0.00     0.000 S
ATOM     45   O  GU6 D   3      27.738 148.103  67.8830  0.00  0.00     0.000 OA
ATOM     46   O  GU6 D   3      26.700 146.631  69.4770  0.00  0.00     0.000 O
ATOM     47   O  GU6 D   3      28.906 146.131  68.6650  0.00  0.00     0.000 OA
ENDBRANCH 38 43
BRANCH 39 48
ATOM     48   O  GU6 D   3      25.505 143.798  68.3690  0.00  0.00     0.000 O
ATOM     49   S  GU6 D   3      26.455 142.608  68.2440  0.00  0.00     0.000 S
ATOM     50   O  GU6 D   3      27.679 143.010  67.5410  0.00  0.00     0.000 OA
ATOM     51   O  GU6 D   3      26.736 142.258  69.6430  0.00  0.00     0.000 OA
ATOM     52   O  GU6 D   3      25.774 141.527  67.4970  0.00  0.00     0.000 O
ENDBRANCH 39 48
BRANCH 41 53
ATOM     53   C  GU6 D   3      21.589 145.383  65.7080  0.00  0.00     0.000 C
ATOM     54   O  GU6 D   3      21.530 144.466  64.6450  0.00  0.00     0.000 O
ATOM     55   S  GU6 D   3      20.205 144.202  63.9180  0.00  0.00     0.000 S
ATOM     56   O  GU6 D   3      19.841 145.459  63.2240  0.00  0.00     0.000 O
ATOM     57   O  GU6 D   3      20.411 143.114  62.9510  0.00  0.00     0.000 OA
ATOM     58   O  GU6 D   3      19.201 143.853  64.9480  0.00  0.00     0.000 OA
ENDBRANCH 41 53
BRANCH 37 59
ATOM     59  O4  Z9K D   4      25.611 145.830  64.4490  0.00  0.00     0.000 O
BRANCH 59 63
ATOM     60  C1  Z9K D   4      27.996 145.040  61.4260  0.00  0.00     0.000 C
ATOM     61  C2  Z9K D   4      28.696 146.281  62.0460  0.00  0.00     0.000 C
ATOM     62  C3  Z9K D   4      27.837 146.483  63.3690  0.00  0.00     0.000 C
ATOM     63  C4  Z9K D   4      26.265 146.408  63.2810  0.00  0.00     0.000 C
ATOM     64  C5  Z9K D   4      25.692 145.564  62.1330  0.00  0.00     0.000 C
ATOM     65  O5  Z9K D   4      26.692 144.523  61.9680  0.00  0.00     0.000 O
ATOM     66   O  Z9K D   4      28.111 147.725  64.0410  0.00  0.00     0.000 O
ATOM     67   C  Z9K D   4      29.215 147.679  64.9300  0.00  0.00     0.000 C
BRANCH 61 68
ATOM     68   O  Z9K D   4      29.969 145.869  62.4630  0.00  0.00     0.000 O
ATOM     69   O  Z9K D   4      30.001 148.296  61.6540  0.00  0.00     0.000 OA
ATOM     70   S  Z9K D   4      30.328 146.946  61.3080  0.00  0.00     0.000 S
ATOM     71   O  Z9K D   4      30.129 146.339  60.0270  0.00  0.00     0.000 OA
ATOM     72   O  Z9K D   4      31.617 146.590  61.8070  0.00  0.00     0.000 OA
ENDBRANCH 61 68
BRANCH 64 73
ATOM     73   C  Z9K D   4      24.234 145.152  62.4270  0.00  0.00     0.000 C
ATOM     74   O  Z9K D   4      23.293 145.996  62.3810  0.00  0.00     0.000 O
ATOM     75   O  Z9K D   4      23.926 143.970  62.7160  0.00  0.00     0.000 OA
ENDBRANCH 64 73
BRANCH 60 76
ATOM     76  O4  Z9L D   5      27.650 144.803  60.0510  0.00  0.00     0.000 O
BRANCH 76 80
ATOM     77  C1  Z9L D   5      27.381 142.012  57.2030  0.00  0.00     0.000 C
ATOM     78  C2  Z9L D   5      25.892 142.533  57.4920  0.00  0.00     0.000 C
ATOM     79  C3  Z9L D   5      26.043 143.995  58.3300  0.00  0.00     0.000 C
ATOM     80  C4  Z9L D   5      27.258 143.632  59.3810  0.00  0.00     0.000 C
ATOM     81  C5  Z9L D   5      28.673 142.896  59.1440  0.00  0.00     0.000 C
ATOM     82  O5  Z9L D   5      28.416 141.805  58.2480  0.00  0.00     0.000 O
ATOM     83   C  Z9L D   5      29.283 142.450  55.7590  0.00  0.00     0.000 C
ATOM     84   C  Z9L D   5      29.283 142.450  55.7590  0.00  0.00     0.000 C
BRANCH 78 85
ATOM     85   O  Z9L D   5      25.272 142.770  56.2680  0.00  0.00     0.000 O
ATOM     86   O  Z9L D   5      23.819 141.734  55.5440  0.00  0.00     0.000 OA
ATOM     87   S  Z9L D   5      24.375 141.572  56.8530  0.00  0.00     0.000 S
ATOM     88   O  Z9L D   5      23.339 142.010  57.7560  0.00  0.00     0.000 OA
ATOM     89   O  Z9L D   5      24.967 140.279  56.8520  0.00  0.00     0.000 OA
ENDBRANCH 78 85
BRANCH 79 90
ATOM     90   O  Z9L D   5      24.961 144.206  59.1790  0.00  0.00     0.000 O
ATOM     91   S  Z9L D   5      24.863 145.523  58.2890  0.00  0.00     0.000 S
ATOM     92   O  Z9L D   5      24.755 145.478  56.8550  0.00  0.00     0.000 OA
ATOM     93   O  Z9L D   5      25.567 146.597  58.9460  0.00  0.00     0.000 O
ATOM     94   O  Z9L D   5      23.536 145.506  58.8140  0.00  0.00     0.000 OA
ENDBRANCH 79 90
BRANCH 81 95
ATOM     95   C  Z9L D   5      29.629 142.614  60.4930  0.00  0.00     0.000 C
ATOM     96   S  Z9L D   5      30.133 141.274  61.8770  0.00  0.00     0.000 S
ATOM     97   O  Z9L D   5      28.810 141.662  61.1170  0.00  0.00     0.000 O
ATOM     98   O  Z9L D   5      30.398 142.334  62.8170  0.00  0.00     0.000 OA
ATOM     99   O  Z9L D   5      31.170 140.721  61.0730  0.00  0.00     0.000 OA
ATOM    100   O  Z9L D   5      29.239 140.328  62.4980  0.00  0.00     0.000 O
ENDBRANCH 81 95
ENDBRANCH 76 80
ENDBRANCH 60 76
ENDBRANCH 59 63
ENDBRANCH 37 59
ENDBRANCH 36 40
ENDBRANCH 23 36
ENDBRANCH 22 26
ENDBRANCH 1 22
TORSDOF 19
ENDMDL
MODEL 79
REMARK VINA RESULT:      -0.5    116.729    123.395
ROOT
ATOM      1  C1  Z9H D   1      41.096  90.732 118.2730  0.00  0.00     0.000 C
ATOM      2  C2  Z9H D   1      42.056  91.933 118.0950  0.00  0.00     0.000 C
ATOM      3  C3  Z9H D   1      41.042  92.934 117.4600  0.00  0.00     0.000 C
ATOM      4  C4  Z9H D   1      40.212  92.374 116.2330  0.00  0.00     0.000 C
ATOM      5  C5  Z9H D   1      39.488  90.969 116.2490  0.00  0.00     0.000 C
ATOM      6  O5  Z9H D   1      40.347  90.213 117.1390  0.00  0.00     0.000 O
ATOM      7   O  Z9H D   1      41.671  94.170 117.1130  0.00  0.00     0.000 O
ATOM      8   C  Z9H D   1      41.505  95.234 118.0640  0.00  0.00     0.000 C
ATOM      9   O  Z9H D   1      39.212  93.361 115.9570  0.00  0.00     0.000 O
ATOM     10   C  Z9H D   1      39.507  94.253 114.8770  0.00  0.00     0.000 C
ENDROOT
BRANCH 2 11
ATOM     11   O  Z9H D   1      42.223  92.371 119.4180  0.00  0.00     0.000 O
ATOM     12   O  Z9H D   1      43.844  92.255 120.3750  0.00  0.00     0.000 OA
ATOM     13   S  Z9H D   1      43.673  91.859 119.0180  0.00  0.00     0.000 S
ATOM     14   O  Z9H D   1      44.231  92.780 118.0690  0.00  0.00     0.000 OA
ATOM     15   O  Z9H D   1      43.718  90.419 118.9040  0.00  0.00     0.000 O
ENDBRANCH 2 11
BRANCH 5 16
ATOM     16   C  Z9H D   1      39.057  90.377 114.7440  0.00  0.00     0.000 C
ATOM     17   S  Z9H D   1      37.664  89.328 113.7430  0.00  0.00     0.000 S
ATOM     18   O  Z9H D   1      37.661  90.454 114.9000  0.00  0.00     0.000 O
ATOM     19   O  Z9H D   1      38.198  88.057 114.1400  0.00  0.00     0.000 O
ATOM     20   O  Z9H D   1      37.929  89.924 112.4800  0.00  0.00     0.000 OA
ATOM     21   O  Z9H D   1      36.253  89.416 113.9800  0.00  0.00     0.000 OA
ENDBRANCH 5 16
BRANCH 1 22
ATOM     22  O4  GU1 D   2      40.004  90.949 119.2380  0.00  0.00     0.000 O
BRANCH 22 26
ATOM     23  C1  GU1 D   2      37.629  89.168 122.0940  0.00  0.00     0.000 C
ATOM     24  C2  GU1 D   2      39.055  88.642 122.0290  0.00  0.00     0.000 C
ATOM     25  C3  GU1 D   2      39.904  89.602 121.2480  0.00  0.00     0.000 C
ATOM     26  C4  GU1 D   2      39.285  89.895 119.8890  0.00  0.00     0.000 C
ATOM     27  C5  GU1 D   2      37.822  90.316 120.0590  0.00  0.00     0.000 C
ATOM     28  O5  GU1 D   2      37.099  89.324 120.7820  0.00  0.00     0.000 O
ATOM     29   O  GU1 D   2      39.626  88.493 123.3230  0.00  0.00     0.000 O
ATOM     30   C  GU1 D   2      39.544  87.173 123.8390  0.00  0.00     0.000 C
ATOM     31   C  GU1 D   2      42.218  89.501 121.9010  0.00  0.00     0.000 C
ATOM     32   O  GU1 D   2      41.190  89.007 121.0460  0.00  0.00     0.000 O
BRANCH 27 33
ATOM     33   C  GU1 D   2      37.147  90.497 118.7200  0.00  0.00     0.000 C
ATOM     34   O  GU1 D   2      36.917  89.510 118.0510  0.00  0.00     0.000 OA
ATOM     35   O  GU1 D   2      36.838  91.611 118.3260  0.00  0.00     0.000 O
ENDBRANCH 27 33
BRANCH 23 36
ATOM     36  O4  GU6 D   3      36.568  88.318 122.5730  0.00  0.00     0.000 O
BRANCH 36 40
ATOM     37  C1  GU6 D   3      33.401  85.750 122.8300  0.00  0.00     0.000 C
ATOM     38  C2  GU6 D   3      33.543  86.679 124.0300  0.00  0.00     0.000 C
ATOM     39  C3  GU6 D   3      34.554  87.752 123.7200  0.00  0.00     0.000 C
ATOM     40  C4  GU6 D   3      35.350  87.605 122.4970  0.00  0.00     0.000 C
ATOM     41  C5  GU6 D   3      35.711  86.098 122.2860  0.00  0.00     0.000 C
ATOM     42  O5  GU6 D   3      34.664  85.161 122.5630  0.00  0.00     0.000 O
BRANCH 38 43
ATOM     43   O  GU6 D   3      32.298  87.267 124.3530  0.00  0.00     0.000 O
ATOM     44   S  GU6 D   3      31.859  87.058 125.7970  0.00  0.00     0.000 S
ATOM     45   O  GU6 D   3      31.250  85.722 125.9120  0.00  0.00     0.000 OA
ATOM     46   O  GU6 D   3      33.049  87.131 126.6650  0.00  0.00     0.000 O
ATOM     47   O  GU6 D   3      30.912  88.108 126.1580  0.00  0.00     0.000 OA
ENDBRANCH 38 43
BRANCH 39 48
ATOM     48   O  GU6 D   3      34.572  88.965 124.4490  0.00  0.00     0.000 O
ATOM     49   S  GU6 D   3      33.973  90.327 124.1010  0.00  0.00     0.000 S
ATOM     50   O  GU6 D   3      32.538  90.192 123.8230  0.00  0.00     0.000 OA
ATOM     51   O  GU6 D   3      34.206  91.114 125.3200  0.00  0.00     0.000 OA
ATOM     52   O  GU6 D   3      34.670  90.869 122.9140  0.00  0.00     0.000 O
ENDBRANCH 39 48
BRANCH 41 53
ATOM     53   C  GU6 D   3      37.004  85.490 121.8150  0.00  0.00     0.000 C
ATOM     54   O  GU6 D   3      36.990  85.999 120.5070  0.00  0.00     0.000 O
ATOM     55   S  GU6 D   3      38.070  85.586 119.4980  0.00  0.00     0.000 S
ATOM     56   O  GU6 D   3      37.881  84.140 119.2370  0.00  0.00     0.000 O
ATOM     57   O  GU6 D   3      37.884  86.366 118.2660  0.00  0.00     0.000 OA
ATOM     58   O  GU6 D   3      39.383  85.845 120.1310  0.00  0.00     0.000 OA
ENDBRANCH 41 53
BRANCH 37 59
ATOM     59  O4  Z9K D   4      32.821  86.118 121.5610  0.00  0.00     0.000 O
BRANCH 59 63
ATOM     60  C1  Z9K D   4      29.956  86.843 118.9710  0.00  0.00     0.000 C
ATOM     61  C2  Z9K D   4      29.166  86.125 120.1000  0.00  0.00     0.000 C
ATOM     62  C3  Z9K D   4      30.288  86.000 121.2200  0.00  0.00     0.000 C
ATOM     63  C4  Z9K D   4      31.730  85.510 120.8110  0.00  0.00     0.000 C
ATOM     64  C5  Z9K D   4      32.144  85.774 119.3550  0.00  0.00     0.000 C
ATOM     65  O5  Z9K D   4      31.449  87.009 119.0410  0.00  0.00     0.000 O
ATOM     66   O  Z9K D   4      29.906  85.149 122.3160  0.00  0.00     0.000 O
ATOM     67   C  Z9K D   4      29.160  85.801 123.3300  0.00  0.00     0.000 C
BRANCH 61 68
ATOM     68   O  Z9K D   4      28.223  87.040 120.5880  0.00  0.00     0.000 O
ATOM     69   O  Z9K D   4      27.323  84.646 120.6770  0.00  0.00     0.000 OA
ATOM     70   S  Z9K D   4      27.276  85.885 119.9610  0.00  0.00     0.000 S
ATOM     71   O  Z9K D   4      27.248  86.028 118.5370  0.00  0.00     0.000 OA
ATOM     72   O  Z9K D   4      26.327  86.777 120.5460  0.00  0.00     0.000 OA
ENDBRANCH 61 68
BRANCH 64 73
ATOM     73   C  Z9K D   4      33.679  85.727 119.2050  0.00  0.00     0.000 C
ATOM     74   O  Z9K D   4      34.352  86.783 119.0210  0.00  0.00     0.000 O
ATOM     75   O  Z9K D   4      34.318  84.648 119.2650  0.00  0.00     0.000 OA
ENDBRANCH 64 73
BRANCH 60 76
ATOM     76  O4  Z9L D   5      29.938  86.576 117.5580  0.00  0.00     0.000 O
BRANCH 76 80
ATOM     77  C1  Z9L D   5      30.125  88.254 113.9360  0.00  0.00     0.000 C
ATOM     78  C2  Z9L D   5      31.423  87.324 114.0900  0.00  0.00     0.000 C
ATOM     79  C3  Z9L D   5      31.121  86.281 115.3880  0.00  0.00     0.000 C
ATOM     80  C4  Z9L D   5      30.426  87.314 116.4680  0.00  0.00     0.000 C
ATOM     81  C5  Z9L D   5      29.272  88.423 116.2730  0.00  0.00     0.000 C
ATOM     82  O5  Z9L D   5      29.550  89.080 115.0270  0.00  0.00     0.000 O
ATOM     83   C  Z9L D   5      27.839  88.177 113.1250  0.00  0.00     0.000 C
ATOM     84   C  Z9L D   5      27.839  88.177 113.1250  0.00  0.00     0.000 C
BRANCH 78 85
ATOM     85   O  Z9L D   5      31.559  86.575 112.9250  0.00  0.00     0.000 O
ATOM     86   O  Z9L D   5      32.963  86.795 111.6250  0.00  0.00     0.000 OA
ATOM     87   S  Z9L D   5      32.890  87.475 112.8830  0.00  0.00     0.000 S
ATOM     88   O  Z9L D   5      33.978  86.939 113.6620  0.00  0.00     0.000 OA
ATOM     89   O  Z9L D   5      32.715  88.848 112.5560  0.00  0.00     0.000 OA
ENDBRANCH 78 85
BRANCH 79 90
ATOM     90   O  Z9L D   5      32.301  85.919 116.0320  0.00  0.00     0.000 O
ATOM     91   S  Z9L D   5      31.754  84.474 115.6440  0.00  0.00     0.000 S
ATOM     92   O  Z9L D   5      31.439  84.108 114.2880  0.00  0.00     0.000 OA
ATOM     93   O  Z9L D   5      31.004  83.935 116.7510  0.00  0.00     0.000 O
ATOM     94   O  Z9L D   5      33.125  84.145 115.8630  0.00  0.00     0.000 OA
ENDBRANCH 79 90
BRANCH 81 95
ATOM     95   C  Z9L D   5      28.879  89.365 117.6040  0.00  0.00     0.000 C
ATOM     96   S  Z9L D   5      29.237  91.086 118.5400  0.00  0.00     0.000 S
ATOM     97   O  Z9L D   5      30.097  90.050 117.7240  0.00  0.00     0.000 O
ATOM     98   O  Z9L D   5      28.934  90.469 119.8060  0.00  0.00     0.000 OA
ATOM     99   O  Z9L D   5      28.241  91.784 117.7990  0.00  0.00     0.000 OA
ATOM    100   O  Z9L D   5      30.520  91.737 118.6450  0.00  0.00     0.000 O
ENDBRANCH 81 95
ENDBRANCH 76 80
ENDBRANCH 60 76
ENDBRANCH 59 63
ENDBRANCH 37 59
ENDBRANCH 36 40
ENDBRANCH 23 36
ENDBRANCH 22 26
ENDBRANCH 1 22
TORSDOF 19
ENDMDL
MODEL 80
REMARK VINA RESULT:      -0.5    144.180    150.145
ROOT
ATOM      1  C1  Z9H D   1      93.821  79.391 135.1100  0.00  0.00     0.000 C
ATOM      2  C2  Z9H D   1      92.616  79.226 136.0670  0.00  0.00     0.000 C
ATOM      3  C3  Z9H D   1      91.504  79.770 135.1190  0.00  0.00     0.000 C
ATOM      4  C4  Z9H D   1      91.813  81.168 134.4410  0.00  0.00     0.000 C
ATOM      5  C5  Z9H D   1      93.189  81.503 133.7400  0.00  0.00     0.000 C
ATOM      6  O5  Z9H D   1      94.108  80.681 134.5020  0.00  0.00     0.000 O
ATOM      7   O  Z9H D   1      90.230  79.802 135.7660  0.00  0.00     0.000 O
ATOM      8   C  Z9H D   1      89.365  78.690 135.4790  0.00  0.00     0.000 C
ATOM      9   O  Z9H D   1      90.783  81.364 133.4670  0.00  0.00     0.000 O
ATOM     10   C  Z9H D   1      89.704  82.213 133.8710  0.00  0.00     0.000 C
ENDROOT
BRANCH 2 11
ATOM     11   O  Z9H D   1      92.440  77.833 136.0770  0.00  0.00     0.000 O
ATOM     12   O  Z9H D   1      92.742  76.737 137.5820  0.00  0.00     0.000 OA
ATOM     13   S  Z9H D   1      92.871  78.156 137.5710  0.00  0.00     0.000 S
ATOM     14   O  Z9H D   1      91.787  78.841 138.2160  0.00  0.00     0.000 OA
ATOM     15   O  Z9H D   1      94.263  78.536 137.6550  0.00  0.00     0.000 O
ENDBRANCH 2 11
BRANCH 5 16
ATOM     16   C  Z9H D   1      93.480  83.132 133.4910  0.00  0.00     0.000 C
ATOM     17   S  Z9H D   1      94.232  84.475 132.1980  0.00  0.00     0.000 S
ATOM     18   O  Z9H D   1      93.324  83.144 132.0930  0.00  0.00     0.000 O
ATOM     19   O  Z9H D   1      95.589  84.248 132.6040  0.00  0.00     0.000 O
ATOM     20   O  Z9H D   1      93.450  85.566 132.6660  0.00  0.00     0.000 OA
ATOM     21   O  Z9H D   1      94.079  84.407 130.7740  0.00  0.00     0.000 OA
ENDBRANCH 5 16
BRANCH 1 22
ATOM     22  O4  GU1 D   2      93.782  78.533 133.9120  0.00  0.00     0.000 O
BRANCH 22 26
ATOM     23  C1  GU1 D   2      96.048  76.348 131.2550  0.00  0.00     0.000 C
ATOM     24  C2  GU1 D   2      96.553  76.333 132.6900  0.00  0.00     0.000 C
ATOM     25  C3  GU1 D   2      95.468  76.822 133.6050  0.00  0.00     0.000 C
ATOM     26  C4  GU1 D   2      94.937  78.172 133.1450  0.00  0.00     0.000 C
ATOM     27  C5  GU1 D   2      94.554  78.107 131.6630  0.00  0.00     0.000 C
ATOM     28  O5  GU1 D   2      95.660  77.664 130.8810  0.00  0.00     0.000 O
ATOM     29   O  GU1 D   2      96.931  75.026 133.1080  0.00  0.00     0.000 O
ATOM     30   C  GU1 D   2      98.323  74.766 132.9940  0.00  0.00     0.000 C
ATOM     31   C  GU1 D   2      95.683  75.922 135.8270  0.00  0.00     0.000 C
ATOM     32   O  GU1 D   2      96.016  76.969 134.9180  0.00  0.00     0.000 O
BRANCH 27 33
ATOM     33   C  GU1 D   2      94.137  79.464 131.1470  0.00  0.00     0.000 C
ATOM     34   O  GU1 D   2      94.986  80.324 131.0300  0.00  0.00     0.000 OA
ATOM     35   O  GU1 D   2      92.972  79.685 130.8530  0.00  0.00     0.000 O
ENDBRANCH 27 33
BRANCH 23 36
ATOM     36  O4  GU6 D   3      96.971  76.159 130.1640  0.00  0.00     0.000 O
BRANCH 36 40
ATOM     37  C1  GU6 D   3      99.564  76.752 127.0630  0.00  0.00     0.000 C
ATOM     38  C2  GU6 D   3      98.855  75.404 127.0270  0.00  0.00     0.000 C
ATOM     39  C3  GU6 D   3      97.738  75.394 128.0380  0.00  0.00     0.000 C
ATOM     40  C4  GU6 D   3      97.668  76.511 128.9860  0.00  0.00     0.000 C
ATOM     41  C5  GU6 D   3      99.114  76.928 129.4120  0.00  0.00     0.000 C
ATOM     42  O5  GU6 D   3     100.091  76.951 128.3650  0.00  0.00     0.000 O
BRANCH 38 43
ATOM     43   O  GU6 D   3      98.338  75.148 125.7350  0.00  0.00     0.000 O
ATOM     44   S  GU6 D   3      98.799  73.832 125.1230  0.00  0.00     0.000 S
ATOM     45   O  GU6 D   3     100.138  74.030 124.5400  0.00  0.00     0.000 OA
ATOM     46   O  GU6 D   3      98.875  72.817 126.1890  0.00  0.00     0.000 O
ATOM     47   O  GU6 D   3      97.834  73.421 124.1080  0.00  0.00     0.000 OA
ENDBRANCH 38 43
BRANCH 39 48
ATOM     48   O  GU6 D   3      96.669  74.473 127.9310  0.00  0.00     0.000 O
ATOM     49   S  GU6 D   3      95.270  74.659 127.3450  0.00  0.00     0.000 S
ATOM     50   O  GU6 D   3      95.361  75.141 125.9620  0.00  0.00     0.000 OA
ATOM     51   O  GU6 D   3      94.704  73.304 127.3990  0.00  0.00     0.000 OA
ATOM     52   O  GU6 D   3      94.529  75.635 128.1740  0.00  0.00     0.000 O
ENDBRANCH 39 48
BRANCH 41 53
ATOM     53   C  GU6 D   3      99.624  77.324 130.7720  0.00  0.00     0.000 C
ATOM     54   O  GU6 D   3      98.885  78.510 130.9140  0.00  0.00     0.000 O
ATOM     55   S  GU6 D   3      99.107  79.424 132.1270  0.00  0.00     0.000 S
ATOM     56   O  GU6 D   3     100.481  79.963 132.0100  0.00  0.00     0.000 O
ATOM     57   O  GU6 D   3      98.117  80.509 132.0820  0.00  0.00     0.000 OA
ATOM     58   O  GU6 D   3      98.965  78.587 133.3390  0.00  0.00     0.000 OA
ENDBRANCH 41 53
BRANCH 37 59
ATOM     59  O4  Z9K D   4      98.986  78.004 126.6370  0.00  0.00     0.000 O
BRANCH 59 63
ATOM     60  C1  Z9K D   4      97.854  80.795 124.1120  0.00  0.00     0.000 C
ATOM     61  C2  Z9K D   4      98.760  79.918 123.2050  0.00  0.00     0.000 C
ATOM     62  C3  Z9K D   4      99.065  78.695 124.1750  0.00  0.00     0.000 C
ATOM     63  C4  Z9K D   4      99.466  78.984 125.6720  0.00  0.00     0.000 C
ATOM     64  C5  Z9K D   4      98.955  80.306 126.2640  0.00  0.00     0.000 C
ATOM     65  O5  Z9K D   4      97.690  80.499 125.5780  0.00  0.00     0.000 O
ATOM     66   O  Z9K D   4     100.093  77.819 123.6800  0.00  0.00     0.000 O
ATOM     67   C  Z9K D   4      99.630  76.818 122.7880  0.00  0.00     0.000 C
BRANCH 61 68
ATOM     68   O  Z9K D   4      97.949  79.413 122.1790  0.00  0.00     0.000 O
ATOM     69   O  Z9K D   4     100.330  79.852 121.3480  0.00  0.00     0.000 OA
ATOM     70   S  Z9K D   4      98.986  80.348 121.3580  0.00  0.00     0.000 S
ATOM     71   O  Z9K D   4      98.601  81.717 121.5120  0.00  0.00     0.000 OA
ATOM     72   O  Z9K D   4      98.216  79.753 120.3140  0.00  0.00     0.000 OA
ENDBRANCH 61 68
BRANCH 64 73
ATOM     73   C  Z9K D   4      98.962  80.256 127.8070  0.00  0.00     0.000 C
ATOM     74   O  Z9K D   4     100.046  80.298 128.4590  0.00  0.00     0.000 O
ATOM     75   O  Z9K D   4      97.900  80.180 128.4710  0.00  0.00     0.000 OA
ENDBRANCH 64 73
BRANCH 60 76
ATOM     76  O4  Z9L D   5      97.876  82.222 124.2870  0.00  0.00     0.000 O
BRANCH 76 80
ATOM     77  C1  Z9L D   5      95.596  85.475 124.7250  0.00  0.00     0.000 C
ATOM     78  C2  Z9L D   5      96.428  85.297 126.0850  0.00  0.00     0.000 C
ATOM     79  C3  Z9L D   5      97.697  84.233 125.7420  0.00  0.00     0.000 C
ATOM     80  C4  Z9L D   5      96.925  83.106 124.8210  0.00  0.00     0.000 C
ATOM     81  C5  Z9L D   5      95.899  83.276 123.5890  0.00  0.00     0.000 C
ATOM     82  O5  Z9L D   5      95.019  84.353 123.9420  0.00  0.00     0.000 O
ATOM     83   C  Z9L D   5      95.724  86.586 122.5710  0.00  0.00     0.000 C
ATOM     84   C  Z9L D   5      95.724  86.586 122.5710  0.00  0.00     0.000 C
BRANCH 78 85
ATOM     85   O  Z9L D   5      96.954  86.537 126.4350  0.00  0.00     0.000 O
ATOM     86   O  Z9L D   5      96.403  87.584 127.9550  0.00  0.00     0.000 OA
ATOM     87   S  Z9L D   5      95.956  86.256 127.6630  0.00  0.00     0.000 S
ATOM     88   O  Z9L D   5      96.528  85.433 128.6990  0.00  0.00     0.000 OA
ATOM     89   O  Z9L D   5      94.566  86.381 127.3900  0.00  0.00     0.000 OA
ENDBRANCH 78 85
BRANCH 79 90
ATOM     90   O  Z9L D   5      98.065  83.503 126.8690  0.00  0.00     0.000 O
ATOM     91   S  Z9L D   5      99.458  84.199 126.5360  0.00  0.00     0.000 S
ATOM     92   O  Z9L D   5      99.600  85.627 126.4290  0.00  0.00     0.000 OA
ATOM     93   O  Z9L D   5     100.252  83.311 125.7230  0.00  0.00     0.000 O
ATOM     94   O  Z9L D   5      99.700  83.851 127.8990  0.00  0.00     0.000 OA
ENDBRANCH 79 90
BRANCH 81 95
ATOM     95   C  Z9L D   5      95.232  81.877 122.9460  0.00  0.00     0.000 C
ATOM     96   S  Z9L D   5      93.657  80.660 122.9850  0.00  0.00     0.000 S
ATOM     97   O  Z9L D   5      94.447  81.510 124.0480  0.00  0.00     0.000 O
ATOM     98   O  Z9L D   5      94.500  79.546 122.6350  0.00  0.00     0.000 OA
ATOM     99   O  Z9L D   5      92.962  81.404 121.9890  0.00  0.00     0.000 OA
ATOM    100   O  Z9L D   5      92.896  80.305 124.1570  0.00  0.00     0.000 O
ENDBRANCH 81 95
ENDBRANCH 76 80
ENDBRANCH 60 76
ENDBRANCH 59 63
ENDBRANCH 37 59
ENDBRANCH 36 40
ENDBRANCH 23 36
ENDBRANCH 22 26
ENDBRANCH 1 22
TORSDOF 19
ENDMDL
MODEL 81
REMARK VINA RESULT:      -0.5    144.637    149.051
ROOT
ATOM      1  C1  Z9H D   1     108.609 117.075  98.8080  0.00  0.00     0.000 C
ATOM      2  C2  Z9H D   1     109.111 117.208 100.2660  0.00  0.00     0.000 C
ATOM      3  C3  Z9H D   1     110.043 118.442 100.0680  0.00  0.00     0.000 C
ATOM      4  C4  Z9H D   1     111.070 118.333  98.8660  0.00  0.00     0.000 C
ATOM      5  C5  Z9H D   1     110.655 117.861  97.4160  0.00  0.00     0.000 C
ATOM      6  O5  Z9H D   1     109.557 116.961  97.7100  0.00  0.00     0.000 O
ATOM      7   O  Z9H D   1     110.727 118.784 101.2760  0.00  0.00     0.000 O
ATOM      8   C  Z9H D   1     110.141 119.857 102.0320  0.00  0.00     0.000 C
ATOM      9   O  Z9H D   1     111.655 119.633  98.7360  0.00  0.00     0.000 O
ATOM     10   C  Z9H D   1     112.943 119.794  99.3380  0.00  0.00     0.000 C
ENDROOT
BRANCH 2 11
ATOM     11   O  Z9H D   1     107.976 117.708 100.9210  0.00  0.00     0.000 O
ATOM     12   O  Z9H D   1     106.989 116.749 102.2120  0.00  0.00     0.000 OA
ATOM     13   S  Z9H D   1     108.170 116.273 101.5750  0.00  0.00     0.000 S
ATOM     14   O  Z9H D   1     109.337 116.312 102.4100  0.00  0.00     0.000 OA
ATOM     15   O  Z9H D   1     107.849 115.215 100.6450  0.00  0.00     0.000 O
ENDBRANCH 2 11
BRANCH 5 16
ATOM     16   C  Z9H D   1     111.926 117.391  96.4330  0.00  0.00     0.000 C
ATOM     17   S  Z9H D   1     112.588 117.347  94.5360  0.00  0.00     0.000 S
ATOM     18   O  Z9H D   1     111.808 118.409  95.4680  0.00  0.00     0.000 O
ATOM     19   O  Z9H D   1     111.835 116.173  94.2000  0.00  0.00     0.000 O
ATOM     20   O  Z9H D   1     113.968 117.316  94.8760  0.00  0.00     0.000 OA
ATOM     21   O  Z9H D   1     112.396 118.399  93.5810  0.00  0.00     0.000 OA
ENDBRANCH 5 16
BRANCH 1 22
ATOM     22  O4  GU1 D   2     107.783 118.199  98.3330  0.00  0.00     0.000 O
BRANCH 22 26
ATOM     23  C1  GU1 D   2     104.588 119.270  95.9640  0.00  0.00     0.000 C
ATOM     24  C2  GU1 D   2     104.446 117.925  96.6590  0.00  0.00     0.000 C
ATOM     25  C3  GU1 D   2     105.460 117.825  97.7620  0.00  0.00     0.000 C
ATOM     26  C4  GU1 D   2     106.860 118.113  97.2410  0.00  0.00     0.000 C
ATOM     27  C5  GU1 D   2     106.871 119.437  96.4700  0.00  0.00     0.000 C
ATOM     28  O5  GU1 D   2     105.898 119.415  95.4290  0.00  0.00     0.000 O
ATOM     29   O  GU1 D   2     103.153 117.753  97.2270  0.00  0.00     0.000 O
ATOM     30   C  GU1 D   2     102.257 117.018  96.4050  0.00  0.00     0.000 C
ATOM     31   C  GU1 D   2     104.740 116.351  99.5230  0.00  0.00     0.000 C
ATOM     32   O  GU1 D   2     105.431 116.493  98.2840  0.00  0.00     0.000 O
BRANCH 27 33
ATOM     33   C  GU1 D   2     108.219 119.690  95.8380  0.00  0.00     0.000 C
ATOM     34   O  GU1 D   2     108.555 119.001  94.8970  0.00  0.00     0.000 OA
ATOM     35   O  GU1 D   2     108.949 120.571  96.2650  0.00  0.00     0.000 O
ENDBRANCH 27 33
BRANCH 23 36
ATOM     36  O4  GU6 D   3     103.901 119.515  94.7210  0.00  0.00     0.000 O
BRANCH 36 40
ATOM     37  C1  GU6 D   3     102.956 119.930  90.7670  0.00  0.00     0.000 C
ATOM     38  C2  GU6 D   3     102.100 120.778  91.7000  0.00  0.00     0.000 C
ATOM     39  C3  GU6 D   3     102.697 120.765  93.0830  0.00  0.00     0.000 C
ATOM     40  C4  GU6 D   3     103.789 119.822  93.3460  0.00  0.00     0.000 C
ATOM     41  C5  GU6 D   3     103.512 118.478  92.5940  0.00  0.00     0.000 C
ATOM     42  O5  GU6 D   3     102.990 118.602  91.2660  0.00  0.00     0.000 O
BRANCH 38 43
ATOM     43   O  GU6 D   3     102.013 122.107  91.2240  0.00  0.00     0.000 O
ATOM     44   S  GU6 D   3     100.589 122.615  91.0340  0.00  0.00     0.000 S
ATOM     45   O  GU6 D   3     100.088 122.126  89.7380  0.00  0.00     0.000 OA
ATOM     46   O  GU6 D   3      99.749 122.078  92.1190  0.00  0.00     0.000 O
ATOM     47   O  GU6 D   3     100.600 124.073  91.0840  0.00  0.00     0.000 OA
ENDBRANCH 38 43
BRANCH 39 48
ATOM     48   O  GU6 D   3     102.380 121.776  94.0210  0.00  0.00     0.000 O
ATOM     49   S  GU6 D   3     103.152 123.040  94.3990  0.00  0.00     0.000 S
ATOM     50   O  GU6 D   3     103.422 123.845  93.2020  0.00  0.00     0.000 OA
ATOM     51   O  GU6 D   3     102.230 123.733  95.3090  0.00  0.00     0.000 OA
ATOM     52   O  GU6 D   3     104.425 122.649  95.0440  0.00  0.00     0.000 O
ENDBRANCH 39 48
BRANCH 41 53
ATOM     53   C  GU6 D   3     103.732 117.066  93.0660  0.00  0.00     0.000 C
ATOM     54   O  GU6 D   3     105.133 117.108  93.1460  0.00  0.00     0.000 O
ATOM     55   S  GU6 D   3     105.930 115.842  93.4890  0.00  0.00     0.000 S
ATOM     56   O  GU6 D   3     105.743 114.901  92.3600  0.00  0.00     0.000 O
ATOM     57   O  GU6 D   3     107.348 116.207  93.6320  0.00  0.00     0.000 OA
ATOM     58   O  GU6 D   3     105.365 115.292  94.7400  0.00  0.00     0.000 OA
ENDBRANCH 41 53
BRANCH 37 59
ATOM     59  O4  Z9K D   4     104.294 120.262  90.3400  0.00  0.00     0.000 O
BRANCH 59 63
ATOM     60  C1  Z9K D   4     107.058 122.059  88.1990  0.00  0.00     0.000 C
ATOM     61  C2  Z9K D   4     105.785 122.356  87.3590  0.00  0.00     0.000 C
ATOM     62  C3  Z9K D   4     104.651 121.789  88.3180  0.00  0.00     0.000 C
ATOM     63  C4  Z9K D   4     104.853 120.382  88.9990  0.00  0.00     0.000 C
ATOM     64  C5  Z9K D   4     106.309 119.938  89.2090  0.00  0.00     0.000 C
ATOM     65  O5  Z9K D   4     107.001 121.195  89.4290  0.00  0.00     0.000 O
ATOM     66   O  Z9K D   4     103.359 121.713  87.6890  0.00  0.00     0.000 O
ATOM     67   C  Z9K D   4     102.610 122.916  87.7400  0.00  0.00     0.000 C
BRANCH 61 68
ATOM     68   O  Z9K D   4     105.623 123.748  87.3360  0.00  0.00     0.000 O
ATOM     69   O  Z9K D   4     104.816 122.686  85.1520  0.00  0.00     0.000 OA
ATOM     70   S  Z9K D   4     105.881 123.415  85.7720  0.00  0.00     0.000 S
ATOM     71   O  Z9K D   4     107.279 123.189  85.5690  0.00  0.00     0.000 OA
ATOM     72   O  Z9K D   4     105.619 124.818  85.7490  0.00  0.00     0.000 OA
ENDBRANCH 61 68
BRANCH 64 73
ATOM     73   C  Z9K D   4     106.398 118.842  90.2930  0.00  0.00     0.000 C
ATOM     74   O  Z9K D   4     106.870 119.092  91.4400  0.00  0.00     0.000 O
ATOM     75   O  Z9K D   4     106.001 117.670  90.0820  0.00  0.00     0.000 OA
ENDBRANCH 64 73
BRANCH 60 76
ATOM     76  O4  Z9L D   5     108.323 121.541  87.7540  0.00  0.00     0.000 O
BRANCH 76 80
ATOM     77  C1  Z9L D   5     112.273 121.683  88.3430  0.00  0.00     0.000 C
ATOM     78  C2  Z9L D   5     111.798 120.193  88.7000  0.00  0.00     0.000 C
ATOM     79  C3  Z9L D   5     110.259 120.000  88.0260  0.00  0.00     0.000 C
ATOM     80  C4  Z9L D   5     109.566 121.447  88.4000  0.00  0.00     0.000 C
ATOM     81  C5  Z9L D   5     110.128 122.952  88.2600  0.00  0.00     0.000 C
ATOM     82  O5  Z9L D   5     111.503 122.910  88.6700  0.00  0.00     0.000 O
ATOM     83   C  Z9L D   5     113.106 123.000  86.4820  0.00  0.00     0.000 C
ATOM     84   C  Z9L D   5     113.106 123.000  86.4820  0.00  0.00     0.000 C
BRANCH 78 85
ATOM     85   O  Z9L D   5     112.678 119.303  88.0910  0.00  0.00     0.000 O
ATOM     86   O  Z9L D   5     113.931 118.174  89.0230  0.00  0.00     0.000 OA
ATOM     87   S  Z9L D   5     112.940 118.997  89.6470  0.00  0.00     0.000 S
ATOM     88   O  Z9L D   5     111.997 118.073  90.2250  0.00  0.00     0.000 OA
ATOM     89   O  Z9L D   5     113.672 119.979  90.3710  0.00  0.00     0.000 OA
ENDBRANCH 78 85
BRANCH 79 90
ATOM     90   O  Z9L D   5     109.493 119.099  88.7610  0.00  0.00     0.000 O
ATOM     91   S  Z9L D   5     109.439 118.393  87.3350  0.00  0.00     0.000 S
ATOM     92   O  Z9L D   5     110.628 118.026  86.6110  0.00  0.00     0.000 OA
ATOM     93   O  Z9L D   5     108.248 118.812  86.6400  0.00  0.00     0.000 O
ATOM     94   O  Z9L D   5     109.081 117.279  88.1520  0.00  0.00     0.000 OA
ENDBRANCH 79 90
BRANCH 81 95
ATOM     95   C  Z9L D   5     109.158 124.192  88.8390  0.00  0.00     0.000 C
ATOM     96   S  Z9L D   5     108.774 125.358  90.4070  0.00  0.00     0.000 S
ATOM     97   O  Z9L D   5     109.208 123.859  90.2000  0.00  0.00     0.000 O
ATOM     98   O  Z9L D   5     107.392 125.448  90.0110  0.00  0.00     0.000 OA
ATOM     99   O  Z9L D   5     109.725 126.339  90.0070  0.00  0.00     0.000 OA
ATOM    100   O  Z9L D   5     108.825 124.952  91.7900  0.00  0.00     0.000 O
ENDBRANCH 81 95
ENDBRANCH 76 80
ENDBRANCH 60 76
ENDBRANCH 59 63
ENDBRANCH 37 59
ENDBRANCH 36 40
ENDBRANCH 23 36
ENDBRANCH 22 26
ENDBRANCH 1 22
TORSDOF 19
ENDMDL
MODEL 82
REMARK VINA RESULT:      -0.5    148.869    155.185
ROOT
ATOM      1  C1  Z9H D   1     109.258 128.995  87.7320  0.00  0.00     0.000 C
ATOM      2  C2  Z9H D   1     107.899 129.698  87.9620  0.00  0.00     0.000 C
ATOM      3  C3  Z9H D   1     108.358 131.163  87.6920  0.00  0.00     0.000 C
ATOM      4  C4  Z9H D   1     109.652 131.626  88.4810  0.00  0.00     0.000 C
ATOM      5  C5  Z9H D   1     110.972 130.760  88.5600  0.00  0.00     0.000 C
ATOM      6  O5  Z9H D   1     110.439 129.415  88.4710  0.00  0.00     0.000 O
ATOM      7   O  Z9H D   1     107.294 132.095  87.8940  0.00  0.00     0.000 O
ATOM      8   C  Z9H D   1     106.612 132.519  86.7010  0.00  0.00     0.000 C
ATOM      9   O  Z9H D   1     110.013 132.896  87.9270  0.00  0.00     0.000 O
ATOM     10   C  Z9H D   1     109.594 134.039  88.6790  0.00  0.00     0.000 C
ENDROOT
BRANCH 2 11
ATOM     11   O  Z9H D   1     107.179 129.323  86.8170  0.00  0.00     0.000 O
ATOM     12   O  Z9H D   1     105.675 128.185  86.8360  0.00  0.00     0.000 OA
ATOM     13   S  Z9H D   1     106.385 128.611  87.9940  0.00  0.00     0.000 S
ATOM     14   O  Z9H D   1     105.704 129.620  88.7540  0.00  0.00     0.000 OA
ATOM     15   O  Z9H D   1     107.137 127.513  88.5570  0.00  0.00     0.000 O
ENDBRANCH 2 11
BRANCH 5 16
ATOM     16   C  Z9H D   1     112.034 131.196  89.7780  0.00  0.00     0.000 C
ATOM     17   S  Z9H D   1     113.977 131.403  90.2490  0.00  0.00     0.000 S
ATOM     18   O  Z9H D   1     113.054 131.723  88.9640  0.00  0.00     0.000 O
ATOM     19   O  Z9H D   1     114.156 130.008  90.5300  0.00  0.00     0.000 O
ATOM     20   O  Z9H D   1     113.768 132.381  91.2590  0.00  0.00     0.000 OA
ATOM     21   O  Z9H D   1     114.982 131.904  89.3570  0.00  0.00     0.000 OA
ENDBRANCH 5 16
BRANCH 1 22
ATOM     22  O4  GU1 D   2     109.766 129.066  86.3510  0.00  0.00     0.000 O
BRANCH 22 26
ATOM     23  C1  GU1 D   2     111.851 127.058  83.4200  0.00  0.00     0.000 C
ATOM     24  C2  GU1 D   2     110.990 126.176  84.3110  0.00  0.00     0.000 C
ATOM     25  C3  GU1 D   2     110.011 127.032  85.0610  0.00  0.00     0.000 C
ATOM     26  C4  GU1 D   2     110.724 128.155  85.7990  0.00  0.00     0.000 C
ATOM     27  C5  GU1 D   2     111.642 128.915  84.8360  0.00  0.00     0.000 C
ATOM     28  O5  GU1 D   2     112.551 128.018  84.2030  0.00  0.00     0.000 O
ATOM     29   O  GU1 D   2     110.257 125.216  83.5600  0.00  0.00     0.000 O
ATOM     30   C  GU1 D   2     110.875 123.938  83.5020  0.00  0.00     0.000 C
ATOM     31   C  GU1 D   2     108.015 125.820  85.6490  0.00  0.00     0.000 C
ATOM     32   O  GU1 D   2     109.335 126.211  86.0200  0.00  0.00     0.000 O
BRANCH 27 33
ATOM     33   C  GU1 D   2     112.454 129.959  85.5650  0.00  0.00     0.000 C
ATOM     34   O  GU1 D   2     112.194 131.129  85.3750  0.00  0.00     0.000 OA
ATOM     35   O  GU1 D   2     113.347 129.629  86.3300  0.00  0.00     0.000 O
ENDBRANCH 27 33
BRANCH 23 36
ATOM     36  O4  GU6 D   3     113.025 126.514  82.7850  0.00  0.00     0.000 O
BRANCH 36 40
ATOM     37  C1  GU6 D   3     116.860 125.434  81.8780  0.00  0.00     0.000 C
ATOM     38  C2  GU6 D   3     115.943 125.537  80.6650  0.00  0.00     0.000 C
ATOM     39  C3  GU6 D   3     114.648 126.195  81.0650  0.00  0.00     0.000 C
ATOM     40  C4  GU6 D   3     114.404 126.404  82.4970  0.00  0.00     0.000 C
ATOM     41  C5  GU6 D   3     114.948 125.179  83.3040  0.00  0.00     0.000 C
ATOM     42  O5  GU6 D   3     116.210 124.658  82.8720  0.00  0.00     0.000 O
BRANCH 38 43
ATOM     43   O  GU6 D   3     116.563 126.279  79.6330  0.00  0.00     0.000 O
ATOM     44   S  GU6 D   3     116.651 125.549  78.2990  0.00  0.00     0.000 S
ATOM     45   O  GU6 D   3     117.811 124.643  78.3360  0.00  0.00     0.000 OA
ATOM     46   O  GU6 D   3     115.419 124.761  78.1120  0.00  0.00     0.000 O
ATOM     47   O  GU6 D   3     116.780 126.536  77.2310  0.00  0.00     0.000 OA
ENDBRANCH 38 43
BRANCH 39 48
ATOM     48   O  GU6 D   3     113.811 126.798  80.0980  0.00  0.00     0.000 O
ATOM     49   S  GU6 D   3     113.684 128.265  79.6880  0.00  0.00     0.000 S
ATOM     50   O  GU6 D   3     114.994 128.794  79.2900  0.00  0.00     0.000 OA
ATOM     51   O  GU6 D   3     112.762 128.213  78.5440  0.00  0.00     0.000 OA
ATOM     52   O  GU6 D   3     113.152 129.039  80.8320  0.00  0.00     0.000 O
ENDBRANCH 39 48
BRANCH 41 53
ATOM     53   C  GU6 D   3     114.337 124.477  84.4860  0.00  0.00     0.000 C
ATOM     54   O  GU6 D   3     114.418 125.539  85.4010  0.00  0.00     0.000 O
ATOM     55   S  GU6 D   3     114.016 125.335  86.8680  0.00  0.00     0.000 S
ATOM     56   O  GU6 D   3     114.995 124.389  87.4520  0.00  0.00     0.000 O
ATOM     57   O  GU6 D   3     114.075 126.633  87.5550  0.00  0.00     0.000 OA
ATOM     58   O  GU6 D   3     112.652 124.761  86.8740  0.00  0.00     0.000 OA
ENDBRANCH 41 53
BRANCH 37 59
ATOM     59  O4  Z9K D   4     117.480 126.554  82.5440  0.00  0.00     0.000 O
BRANCH 59 63
ATOM     60  C1  Z9K D   4     120.131 129.391  83.1500  0.00  0.00     0.000 C
ATOM     61  C2  Z9K D   4     120.846 128.537  82.0680  0.00  0.00     0.000 C
ATOM     62  C3  Z9K D   4     119.699 127.501  81.6940  0.00  0.00     0.000 C
ATOM     63  C4  Z9K D   4     118.881 126.811  82.8510  0.00  0.00     0.000 C
ATOM     64  C5  Z9K D   4     118.791 127.591  84.1720  0.00  0.00     0.000 C
ATOM     65  O5  Z9K D   4     118.807 128.974  83.7310  0.00  0.00     0.000 O
ATOM     66   O  Z9K D   4     120.159 126.416  80.8680  0.00  0.00     0.000 O
ATOM     67   C  Z9K D   4     120.166 126.700  79.4790  0.00  0.00     0.000 C
BRANCH 61 68
ATOM     68   O  Z9K D   4     121.018 129.357  80.9440  0.00  0.00     0.000 O
ATOM     69   O  Z9K D   4     122.959 127.707  81.1920  0.00  0.00     0.000 OA
ATOM     70   S  Z9K D   4     122.550 129.066  81.3840  0.00  0.00     0.000 S
ATOM     71   O  Z9K D   4     122.875 129.886  82.5100  0.00  0.00     0.000 OA
ATOM     72   O  Z9K D   4     122.713 129.821  80.1840  0.00  0.00     0.000 OA
ENDBRANCH 61 68
BRANCH 64 73
ATOM     73   C  Z9K D   4     117.600 127.097  85.0210  0.00  0.00     0.000 C
ATOM     74   O  Z9K D   4     117.630 125.972  85.5990  0.00  0.00     0.000 O
ATOM     75   O  Z9K D   4     116.565 127.791  85.1750  0.00  0.00     0.000 OA
ENDBRANCH 64 73
BRANCH 60 76
ATOM     76  O4  Z9L D   5     120.655 129.875  84.3990  0.00  0.00     0.000 O
BRANCH 76 80
ATOM     77  C1  Z9L D   5     120.627 132.938  86.9650  0.00  0.00     0.000 C
ATOM     78  C2  Z9L D   5     119.974 131.684  87.7230  0.00  0.00     0.000 C
ATOM     79  C3  Z9L D   5     120.397 130.307  86.8370  0.00  0.00     0.000 C
ATOM     80  C4  Z9L D   5     120.174 130.843  85.2950  0.00  0.00     0.000 C
ATOM     81  C5  Z9L D   5     120.629 132.214  84.5790  0.00  0.00     0.000 C
ATOM     82  O5  Z9L D   5     120.404 133.262  85.5330  0.00  0.00     0.000 O
ATOM     83   C  Z9L D   5     122.771 134.023  86.6210  0.00  0.00     0.000 C
ATOM     84   C  Z9L D   5     122.771 134.023  86.6210  0.00  0.00     0.000 C
BRANCH 78 85
ATOM     85   O  Z9L D   5     120.542 131.603  88.9910  0.00  0.00     0.000 O
ATOM     86   O  Z9L D   5     119.616 131.957  90.6430  0.00  0.00     0.000 OA
ATOM     87   S  Z9L D   5     119.007 131.917  89.3490  0.00  0.00     0.000 S
ATOM     88   O  Z9L D   5     118.163 130.747  89.3680  0.00  0.00     0.000 OA
ATOM     89   O  Z9L D   5     118.558 133.245  89.1050  0.00  0.00     0.000 OA
ENDBRANCH 78 85
BRANCH 79 90
ATOM     90   O  Z9L D   5     119.430 129.312  86.9540  0.00  0.00     0.000 O
ATOM     91   S  Z9L D   5     120.701 128.515  87.4890  0.00  0.00     0.000 S
ATOM     92   O  Z9L D   5     121.499 128.987  88.5900  0.00  0.00     0.000 OA
ATOM     93   O  Z9L D   5     121.298 127.782  86.4000  0.00  0.00     0.000 O
ATOM     94   O  Z9L D   5     119.671 127.692  88.0360  0.00  0.00     0.000 OA
ENDBRANCH 79 90
BRANCH 81 95
ATOM     95   C  Z9L D   5     120.135 132.456  82.9950  0.00  0.00     0.000 C
ATOM     96   S  Z9L D   5     118.759 133.306  81.8320  0.00  0.00     0.000 S
ATOM     97   O  Z9L D   5     118.761 132.598  83.2390  0.00  0.00     0.000 O
ATOM     98   O  Z9L D   5     118.942 132.272  80.8470  0.00  0.00     0.000 OA
ATOM     99   O  Z9L D   5     119.473 134.536  81.7570  0.00  0.00     0.000 OA
ATOM    100   O  Z9L D   5     117.352 133.408  82.1300  0.00  0.00     0.000 O
ENDBRANCH 81 95
ENDBRANCH 76 80
ENDBRANCH 60 76
ENDBRANCH 59 63
ENDBRANCH 37 59
ENDBRANCH 36 40
ENDBRANCH 23 36
ENDBRANCH 22 26
ENDBRANCH 1 22
TORSDOF 19
ENDMDL
MODEL 83
REMARK VINA RESULT:      -0.5     93.937     99.121
ROOT
ATOM      1  C1  Z9H D   1      46.775  49.953  98.9170  0.00  0.00     0.000 C
ATOM      2  C2  Z9H D   1      45.959  48.713  98.4820  0.00  0.00     0.000 C
ATOM      3  C3  Z9H D   1      47.005  48.089  97.5080  0.00  0.00     0.000 C
ATOM      4  C4  Z9H D   1      47.606  49.081  96.4290  0.00  0.00     0.000 C
ATOM      5  C5  Z9H D   1      48.146  50.523  96.7880  0.00  0.00     0.000 C
ATOM      6  O5  Z9H D   1      47.312  50.868  97.9230  0.00  0.00     0.000 O
ATOM      7   O  Z9H D   1      46.498  46.913  96.8740  0.00  0.00     0.000 O
ATOM      8   C  Z9H D   1      46.908  45.668  97.4650  0.00  0.00     0.000 C
ATOM      9   O  Z9H D   1      48.680  48.372  95.8040  0.00  0.00     0.000 O
ATOM     10   C  Z9H D   1      48.371  47.772  94.5420  0.00  0.00     0.000 C
ENDROOT
BRANCH 2 11
ATOM     11   O  Z9H D   1      46.007  47.912  99.6330  0.00  0.00     0.000 O
ATOM     12   O  Z9H D   1      44.511  47.517 100.7130  0.00  0.00     0.000 OA
ATOM     13   S  Z9H D   1      44.468  48.288  99.5160  0.00  0.00     0.000 S
ATOM     14   O  Z9H D   1      43.916  47.586  98.3930  0.00  0.00     0.000 OA
ATOM     15   O  Z9H D   1      44.234  49.681  99.8220  0.00  0.00     0.000 O
ENDBRANCH 2 11
BRANCH 5 16
ATOM     16   C  Z9H D   1      48.316  51.560  95.4850  0.00  0.00     0.000 C
ATOM     17   S  Z9H D   1      49.451  53.024  94.7050  0.00  0.00     0.000 S
ATOM     18   O  Z9H D   1      49.721  51.635  95.4820  0.00  0.00     0.000 O
ATOM     19   O  Z9H D   1      48.842  54.051  95.5010  0.00  0.00     0.000 O
ATOM     20   O  Z9H D   1      49.091  52.769  93.3540  0.00  0.00     0.000 OA
ATOM     21   O  Z9H D   1      50.882  53.070  94.7750  0.00  0.00     0.000 OA
ENDBRANCH 5 16
BRANCH 1 22
ATOM     22  O4  GU1 D   2      47.993  49.652  99.6890  0.00  0.00     0.000 O
BRANCH 22 26
ATOM     23  C1  GU1 D   2      50.451  50.930 102.7380  0.00  0.00     0.000 C
ATOM     24  C2  GU1 D   2      48.973  51.226 102.9410  0.00  0.00     0.000 C
ATOM     25  C3  GU1 D   2      48.164  50.396 101.9870  0.00  0.00     0.000 C
ATOM     26  C4  GU1 D   2      48.647  50.586 100.5570  0.00  0.00     0.000 C
ATOM     27  C5  GU1 D   2      50.161  50.366 100.4810  0.00  0.00     0.000 C
ATOM     28  O5  GU1 D   2      50.835  51.222 101.4000  0.00  0.00     0.000 O
ATOM     29   O  GU1 D   2      48.547  50.925 104.2650  0.00  0.00     0.000 O
ATOM     30   C  GU1 D   2      48.524  52.050 105.1320  0.00  0.00     0.000 C
ATOM     31   C  GU1 D   2      45.951  49.955 102.8250  0.00  0.00     0.000 C
ATOM     32   O  GU1 D   2      46.799  50.817 102.0690  0.00  0.00     0.000 O
BRANCH 27 33
ATOM     33   C  GU1 D   2      50.688  50.665  99.0980  0.00  0.00     0.000 C
ATOM     34   O  GU1 D   2      50.703  51.820  98.7220  0.00  0.00     0.000 OA
ATOM     35   O  GU1 D   2      51.092  49.765  98.3790  0.00  0.00     0.000 O
ENDBRANCH 27 33
BRANCH 23 36
ATOM     36  O4  GU6 D   3      51.447  51.770 103.3560  0.00  0.00     0.000 O
BRANCH 36 40
ATOM     37  C1  GU6 D   3      54.265  54.634 104.0920  0.00  0.00     0.000 C
ATOM     38  C2  GU6 D   3      54.397  53.396 104.9710  0.00  0.00     0.000 C
ATOM     39  C3  GU6 D   3      53.501  52.306 104.4440  0.00  0.00     0.000 C
ATOM     40  C4  GU6 D   3      52.543  52.661 103.3910  0.00  0.00     0.000 C
ATOM     41  C5  GU6 D   3      51.969  54.089 103.6670  0.00  0.00     0.000 C
ATOM     42  O5  GU6 D   3      52.914  55.066 104.1190  0.00  0.00     0.000 O
BRANCH 38 43
ATOM     43   O  GU6 D   3      55.739  52.947 104.9990  0.00  0.00     0.000 O
ATOM     44   S  GU6 D   3      56.329  52.817 106.3980  0.00  0.00     0.000 S
ATOM     45   O  GU6 D   3      56.773  54.149 106.8440  0.00  0.00     0.000 OA
ATOM     46   O  GU6 D   3      55.280  52.320 107.3070  0.00  0.00     0.000 O
ATOM     47   O  GU6 D   3      57.441  51.873 106.3530  0.00  0.00     0.000 OA
ENDBRANCH 38 43
BRANCH 39 48
ATOM     48   O  GU6 D   3      53.731  50.951 104.7810  0.00  0.00     0.000 O
ATOM     49   S  GU6 D   3      54.449  49.854 103.9960  0.00  0.00     0.000 S
ATOM     50   O  GU6 D   3      55.807  50.288 103.6480  0.00  0.00     0.000 OA
ATOM     51   O  GU6 D   3      54.477  48.731 104.9430  0.00  0.00     0.000 OA
ATOM     52   O  GU6 D   3      53.680  49.562 102.7660  0.00  0.00     0.000 O
ENDBRANCH 39 48
BRANCH 41 53
ATOM     53   C  GU6 D   3      50.559  54.590 103.5080  0.00  0.00     0.000 C
ATOM     54   O  GU6 D   3      50.467  54.463 102.1120  0.00  0.00     0.000 O
ATOM     55   S  GU6 D   3      49.221  54.959 101.3660  0.00  0.00     0.000 S
ATOM     56   O  GU6 D   3      49.191  56.433 101.5160  0.00  0.00     0.000 O
ATOM     57   O  GU6 D   3      49.343  54.582  99.9500  0.00  0.00     0.000 OA
ATOM     58   O  GU6 D   3      48.045  54.335 102.0120  0.00  0.00     0.000 OA
ENDBRANCH 41 53
BRANCH 37 59
ATOM     59  O4  Z9K D   4      54.721  54.734 102.7270  0.00  0.00     0.000 O
BRANCH 59 63
ATOM     60  C1  Z9K D   4      57.298  55.241  99.8020  0.00  0.00     0.000 C
ATOM     61  C2  Z9K D   4      58.125  55.735 101.0210  0.00  0.00     0.000 C
ATOM     62  C3  Z9K D   4      57.150  55.357 102.2200  0.00  0.00     0.000 C
ATOM     63  C4  Z9K D   4      55.616  55.697 102.0990  0.00  0.00     0.000 C
ATOM     64  C5  Z9K D   4      55.055  55.786 100.6710  0.00  0.00     0.000 C
ATOM     65  O5  Z9K D   4      55.861  54.819  99.9480  0.00  0.00     0.000 O
ATOM     66   O  Z9K D   4      57.555  55.919 103.4810  0.00  0.00     0.000 O
ATOM     67   C  Z9K D   4      58.506  55.142 104.1900  0.00  0.00     0.000 C
BRANCH 61 68
ATOM     68   O  Z9K D   4      59.235  54.888 101.1350  0.00  0.00     0.000 O
ATOM     69   O  Z9K D   4      59.815  57.277 101.8470  0.00  0.00     0.000 OA
ATOM     70   S  Z9K D   4      59.932  56.311 100.7960  0.00  0.00     0.000 S
ATOM     71   O  Z9K D   4      59.794  56.577  99.3970  0.00  0.00     0.000 OA
ATOM     72   O  Z9K D   4      61.058  55.461 101.0090  0.00  0.00     0.000 OA
ENDBRANCH 61 68
BRANCH 64 73
ATOM     73   C  Z9K D   4      53.521  55.619 100.6730  0.00  0.00     0.000 C
ATOM     74   O  Z9K D   4      52.976  54.563 100.2400  0.00  0.00     0.000 O
ATOM     75   O  Z9K D   4      52.759  56.517 101.1080  0.00  0.00     0.000 OA
ENDBRANCH 64 73
BRANCH 60 76
ATOM     76  O4  Z9L D   5      57.097  55.891  98.5350  0.00  0.00     0.000 O
BRANCH 76 80
ATOM     77  C1  Z9L D   5      56.691  55.286  94.6050  0.00  0.00     0.000 C
ATOM     78  C2  Z9L D   5      55.303  55.890  95.1340  0.00  0.00     0.000 C
ATOM     79  C3  Z9L D   5      55.613  56.565  96.6530  0.00  0.00     0.000 C
ATOM     80  C4  Z9L D   5      56.585  55.412  97.3180  0.00  0.00     0.000 C
ATOM     81  C5  Z9L D   5      57.854  54.624  96.7100  0.00  0.00     0.000 C
ATOM     82  O5  Z9L D   5      57.517  54.304  95.3520  0.00  0.00     0.000 O
ATOM     83   C  Z9L D   5      58.819  55.991  93.6720  0.00  0.00     0.000 C
ATOM     84   C  Z9L D   5      58.819  55.991  93.6720  0.00  0.00     0.000 C
BRANCH 78 85
ATOM     85   O  Z9L D   5      54.910  56.899  94.2580  0.00  0.00     0.000 O
ATOM     86   O  Z9L D   5      53.400  56.803  93.0660  0.00  0.00     0.000 OA
ATOM     87   S  Z9L D   5      53.733  55.823  94.0550  0.00  0.00     0.000 S
ATOM     88   O  Z9L D   5      52.685  55.915  95.0410  0.00  0.00     0.000 OA
ATOM     89   O  Z9L D   5      54.067  54.651  93.3220  0.00  0.00     0.000 OA
ENDBRANCH 78 85
BRANCH 79 90
ATOM     90   O  Z9L D   5      54.486  56.518  97.4690  0.00  0.00     0.000 O
ATOM     91   S  Z9L D   5      54.764  58.086  97.4880  0.00  0.00     0.000 S
ATOM     92   O  Z9L D   5      54.846  58.869  96.2830  0.00  0.00     0.000 OA
ATOM     93   O  Z9L D   5      55.564  58.415  98.6420  0.00  0.00     0.000 O
ATOM     94   O  Z9L D   5      53.399  58.093  97.9050  0.00  0.00     0.000 OA
ENDBRANCH 79 90
BRANCH 81 95
ATOM     95   C  Z9L D   5      58.549  53.433  97.6650  0.00  0.00     0.000 C
ATOM     96   S  Z9L D   5      58.579  51.482  98.0640  0.00  0.00     0.000 S
ATOM     97   O  Z9L D   5      57.475  52.530  97.6620  0.00  0.00     0.000 O
ATOM     98   O  Z9L D   5      58.936  51.761  99.4320  0.00  0.00     0.000 OA
ATOM     99   O  Z9L D   5      59.572  51.218  97.0780  0.00  0.00     0.000 OA
ATOM    100   O  Z9L D   5      57.435  50.604  98.0620  0.00  0.00     0.000 O
ENDBRANCH 81 95
ENDBRANCH 76 80
ENDBRANCH 60 76
ENDBRANCH 59 63
ENDBRANCH 37 59
ENDBRANCH 36 40
ENDBRANCH 23 36
ENDBRANCH 22 26
ENDBRANCH 1 22
TORSDOF 19
ENDMDL
MODEL 84
REMARK VINA RESULT:      -0.5    136.737    143.587
ROOT
ATOM      1  C1  Z9H D   1     115.372 130.982  32.8430  0.00  0.00     0.000 C
ATOM      2  C2  Z9H D   1     114.372 130.162  31.9930  0.00  0.00     0.000 C
ATOM      3  C3  Z9H D   1     115.291 128.939  31.6880  0.00  0.00     0.000 C
ATOM      4  C4  Z9H D   1     116.729 129.294  31.1270  0.00  0.00     0.000 C
ATOM      5  C5  Z9H D   1     117.663 130.393  31.7740  0.00  0.00     0.000 C
ATOM      6  O5  Z9H D   1     116.686 131.316  32.3160  0.00  0.00     0.000 O
ATOM      7   O  Z9H D   1     114.643 127.994  30.8350  0.00  0.00     0.000 O
ATOM      8   C  Z9H D   1     114.049 126.867  31.5010  0.00  0.00     0.000 C
ATOM      9   O  Z9H D   1     117.461 128.063  31.1290  0.00  0.00     0.000 O
ATOM     10   C  Z9H D   1     117.539 127.389  29.8690  0.00  0.00     0.000 C
ENDROOT
BRANCH 2 11
ATOM     11   O  Z9H D   1     113.467 129.707  32.9650  0.00  0.00     0.000 O
ATOM     12   O  Z9H D   1     111.668 130.260  33.0790  0.00  0.00     0.000 OA
ATOM     13   S  Z9H D   1     112.583 130.677  32.0700  0.00  0.00     0.000 S
ATOM     14   O  Z9H D   1     112.370 130.048  30.7980  0.00  0.00     0.000 OA
ATOM     15   O  Z9H D   1     112.948 132.062  32.2630  0.00  0.00     0.000 O
ENDBRANCH 2 11
BRANCH 5 16
ATOM     16   C  Z9H D   1     118.915 130.923  30.7980  0.00  0.00     0.000 C
ATOM     17   S  Z9H D   1     120.791 131.645  30.8020  0.00  0.00     0.000 S
ATOM     18   O  Z9H D   1     119.984 130.506  31.6130  0.00  0.00     0.000 O
ATOM     19   O  Z9H D   1     120.374 132.990  31.0760  0.00  0.00     0.000 O
ATOM     20   O  Z9H D   1     121.117 131.181  29.4990  0.00  0.00     0.000 OA
ATOM     21   O  Z9H D   1     121.828 131.212  31.6920  0.00  0.00     0.000 OA
ENDBRANCH 5 16
BRANCH 1 22
ATOM     22  O4  GU1 D   2     115.748 130.363  34.1260  0.00  0.00     0.000 O
BRANCH 22 26
ATOM     23  C1  GU1 D   2     116.705 131.094  38.0650  0.00  0.00     0.000 C
ATOM     24  C2  GU1 D   2     115.675 132.042  37.4710  0.00  0.00     0.000 C
ATOM     25  C3  GU1 D   2     115.136 131.456  36.1990  0.00  0.00     0.000 C
ATOM     26  C4  GU1 D   2     116.265 131.088  35.2480  0.00  0.00     0.000 C
ATOM     27  C5  GU1 D   2     117.299 130.220  35.9720  0.00  0.00     0.000 C
ATOM     28  O5  GU1 D   2     117.769 130.880  37.1450  0.00  0.00     0.000 O
ATOM     29   O  GU1 D   2     114.583 132.263  38.3560  0.00  0.00     0.000 O
ATOM     30   C  GU1 D   2     114.701 133.449  39.1290  0.00  0.00     0.000 C
ATOM     31   C  GU1 D   2     112.905 132.224  35.7220  0.00  0.00     0.000 C
ATOM     32   O  GU1 D   2     114.306 132.435  35.5660  0.00  0.00     0.000 O
BRANCH 27 33
ATOM     33   C  GU1 D   2     118.492 129.939  35.0900  0.00  0.00     0.000 C
ATOM     34   O  GU1 D   2     119.276 130.841  34.8740  0.00  0.00     0.000 OA
ATOM     35   O  GU1 D   2     118.661 128.829  34.6100  0.00  0.00     0.000 O
ENDBRANCH 27 33
BRANCH 23 36
ATOM     36  O4  GU6 D   3     117.546 131.532  39.1510  0.00  0.00     0.000 O
BRANCH 36 40
ATOM     37  C1  GU6 D   3     120.652 132.934  41.4050  0.00  0.00     0.000 C
ATOM     38  C2  GU6 D   3     119.721 131.989  42.1550  0.00  0.00     0.000 C
ATOM     39  C3  GU6 D   3     118.785 131.324  41.1800  0.00  0.00     0.000 C
ATOM     40  C4  GU6 D   3     118.765 131.828  39.8020  0.00  0.00     0.000 C
ATOM     41  C5  GU6 D   3     118.915 133.386  39.8140  0.00  0.00     0.000 C
ATOM     42  O5  GU6 D   3     119.866 133.914  40.7450  0.00  0.00     0.000 O
BRANCH 38 43
ATOM     43   O  GU6 D   3     120.464 131.011  42.8560  0.00  0.00     0.000 O
ATOM     44   S  GU6 D   3     120.169 130.946  44.3490  0.00  0.00     0.000 S
ATOM     45   O  GU6 D   3     120.940 132.005  45.0240  0.00  0.00     0.000 OA
ATOM     46   O  GU6 D   3     118.729 131.182  44.5550  0.00  0.00     0.000 O
ATOM     47   O  GU6 D   3     120.536 129.623  44.8440  0.00  0.00     0.000 OA
ENDBRANCH 38 43
BRANCH 39 48
ATOM     48   O  GU6 D   3     118.127 130.116  41.5130  0.00  0.00     0.000 O
ATOM     49   S  GU6 D   3     118.491 128.673  41.1650  0.00  0.00     0.000 S
ATOM     50   O  GU6 D   3     119.858 128.376  41.6080  0.00  0.00     0.000 OA
ATOM     51   O  GU6 D   3     117.506 127.890  41.9230  0.00  0.00     0.000 OA
ATOM     52   O  GU6 D   3     118.381 128.490  39.7010  0.00  0.00     0.000 O
ENDBRANCH 39 48
BRANCH 41 53
ATOM     53   C  GU6 D   3     118.209 134.412  38.9690  0.00  0.00     0.000 C
ATOM     54   O  GU6 D   3     118.724 134.020  37.7230  0.00  0.00     0.000 O
ATOM     55   S  GU6 D   3     118.408 134.832  36.4600  0.00  0.00     0.000 S
ATOM     56   O  GU6 D   3     119.056 136.153  36.6280  0.00  0.00     0.000 O
ATOM     57   O  GU6 D   3     118.963 134.125  35.2970  0.00  0.00     0.000 OA
ATOM     58   O  GU6 D   3     116.936 134.968  36.3830  0.00  0.00     0.000 OA
ENDBRANCH 41 53
BRANCH 37 59
ATOM     59  O4  Z9K D   4     121.686 132.523  40.4870  0.00  0.00     0.000 O
BRANCH 59 63
ATOM     60  C1  Z9K D   4     125.206 131.205  39.3360  0.00  0.00     0.000 C
ATOM     61  C2  Z9K D   4     125.473 131.505  40.8360  0.00  0.00     0.000 C
ATOM     62  C3  Z9K D   4     124.006 131.860  41.3380  0.00  0.00     0.000 C
ATOM     63  C4  Z9K D   4     123.111 132.827  40.4730  0.00  0.00     0.000 C
ATOM     64  C5  Z9K D   4     123.424 132.870  38.9690  0.00  0.00     0.000 C
ATOM     65  O5  Z9K D   4     123.880 131.519  38.6970  0.00  0.00     0.000 O
ATOM     66   O  Z9K D   4     123.978 132.419  42.6640  0.00  0.00     0.000 O
ATOM     67   C  Z9K D   4     123.953 131.457  43.7050  0.00  0.00     0.000 C
BRANCH 61 68
ATOM     68   O  Z9K D   4     125.813 130.290  41.4450  0.00  0.00     0.000 O
ATOM     69   O  Z9K D   4     127.087 132.242  42.5010  0.00  0.00     0.000 OA
ATOM     70   S  Z9K D   4     127.186 131.136  41.5960  0.00  0.00     0.000 S
ATOM     71   O  Z9K D   4     127.871 131.142  40.3400  0.00  0.00     0.000 OA
ATOM     72   O  Z9K D   4     127.489 129.930  42.2970  0.00  0.00     0.000 OA
ENDBRANCH 61 68
BRANCH 64 73
ATOM     73   C  Z9K D   4     122.221 133.421  38.1740  0.00  0.00     0.000 C
ATOM     74   O  Z9K D   4     121.503 132.662  37.4610  0.00  0.00     0.000 O
ATOM     75   O  Z9K D   4     121.906 134.636  38.2090  0.00  0.00     0.000 OA
ENDBRANCH 64 73
BRANCH 60 76
ATOM     76  O4  Z9L D   5     125.981 131.605  38.1920  0.00  0.00     0.000 O
BRANCH 76 80
ATOM     77  C1  Z9L D   5     127.254 130.464  34.5800  0.00  0.00     0.000 C
ATOM     78  C2  Z9L D   5     126.295 131.731  34.3610  0.00  0.00     0.000 C
ATOM     79  C3  Z9L D   5     126.133 132.483  35.8680  0.00  0.00     0.000 C
ATOM     80  C4  Z9L D   5     125.950 131.177  36.8550  0.00  0.00     0.000 C
ATOM     81  C5  Z9L D   5     126.768 129.789  36.9310  0.00  0.00     0.000 C
ATOM     82  O5  Z9L D   5     127.010 129.388  35.5740  0.00  0.00     0.000 O
ATOM     83   C  Z9L D   5     129.592 129.908  34.9200  0.00  0.00     0.000 C
ATOM     84   C  Z9L D   5     129.592 129.908  34.9200  0.00  0.00     0.000 C
BRANCH 78 85
ATOM     85   O  Z9L D   5     126.927 132.605  33.4810  0.00  0.00     0.000 O
ATOM     86   O  Z9L D   5     126.349 132.972  31.6810  0.00  0.00     0.000 OA
ATOM     87   S  Z9L D   5     125.634 132.174  32.6300  0.00  0.00     0.000 S
ATOM     88   O  Z9L D   5     124.451 132.936  32.9440  0.00  0.00     0.000 OA
ATOM     89   O  Z9L D   5     125.640 130.857  32.0910  0.00  0.00     0.000 OA
ENDBRANCH 78 85
BRANCH 79 90
ATOM     90   O  Z9L D   5     124.904 133.126  35.9850  0.00  0.00     0.000 O
ATOM     91   S  Z9L D   5     125.876 134.356  36.2640  0.00  0.00     0.000 S
ATOM     92   O  Z9L D   5     126.900 134.755  35.3350  0.00  0.00     0.000 OA
ATOM     93   O  Z9L D   5     126.067 134.500  37.6860  0.00  0.00     0.000 O
ATOM     94   O  Z9L D   5     124.692 135.076  35.9230  0.00  0.00     0.000 OA
ENDBRANCH 79 90
BRANCH 81 95
ATOM     95   C  Z9L D   5     126.227 128.636  38.0210  0.00  0.00     0.000 C
ATOM     96   S  Z9L D   5     125.073 127.028  38.2480  0.00  0.00     0.000 S
ATOM     97   O  Z9L D   5     124.989 128.365  37.4200  0.00  0.00     0.000 O
ATOM     98   O  Z9L D   5     124.842 127.380  39.6260  0.00  0.00     0.000 OA
ATOM     99   O  Z9L D   5     126.116 126.133  37.8760  0.00  0.00     0.000 OA
ATOM    100   O  Z9L D   5     123.796 126.812  37.6140  0.00  0.00     0.000 O
ENDBRANCH 81 95
ENDBRANCH 76 80
ENDBRANCH 60 76
ENDBRANCH 59 63
ENDBRANCH 37 59
ENDBRANCH 36 40
ENDBRANCH 23 36
ENDBRANCH 22 26
ENDBRANCH 1 22
TORSDOF 19
ENDMDL
MODEL 85
REMARK VINA RESULT:      -0.5    151.636    157.816
ROOT
ATOM      1  C1  Z9H D   1      29.184 130.464 131.4930  0.00  0.00     0.000 C
ATOM      2  C2  Z9H D   1      28.067 129.848 130.6180  0.00  0.00     0.000 C
ATOM      3  C3  Z9H D   1      28.974 129.084 129.6050  0.00  0.00     0.000 C
ATOM      4  C4  Z9H D   1      30.134 129.942 128.9510  0.00  0.00     0.000 C
ATOM      5  C5  Z9H D   1      31.099 130.873 129.7890  0.00  0.00     0.000 C
ATOM      6  O5  Z9H D   1      30.238 131.263 130.8880  0.00  0.00     0.000 O
ATOM      7   O  Z9H D   1      28.203 128.436 128.5920  0.00  0.00     0.000 O
ATOM      8   C  Z9H D   1      27.957 127.036 128.8060  0.00  0.00     0.000 C
ATOM      9   O  Z9H D   1      30.957 129.009 128.2440  0.00  0.00     0.000 O
ATOM     10   C  Z9H D   1      30.724 128.925 126.8340  0.00  0.00     0.000 C
ENDROOT
BRANCH 2 11
ATOM     11   O  Z9H D   1      27.546 128.856 131.4630  0.00  0.00     0.000 O
ATOM     12   O  Z9H D   1      25.815 128.901 132.2100  0.00  0.00     0.000 OA
ATOM     13   S  Z9H D   1      26.338 129.876 131.3130  0.00  0.00     0.000 S
ATOM     14   O  Z9H D   1      25.823 129.771 129.9770  0.00  0.00     0.000 OA
ATOM     15   O  Z9H D   1      26.595 131.115 132.0100  0.00  0.00     0.000 O
ENDBRANCH 2 11
BRANCH 5 16
ATOM     16   C  Z9H D   1      31.939 132.011 128.8950  0.00  0.00     0.000 C
ATOM     17   S  Z9H D   1      33.711 132.939 128.6910  0.00  0.00     0.000 S
ATOM     18   O  Z9H D   1      33.218 131.433 129.0030  0.00  0.00     0.000 O
ATOM     19   O  Z9H D   1      33.440 133.889 129.7310  0.00  0.00     0.000 O
ATOM     20   O  Z9H D   1      33.552 133.230 127.3090  0.00  0.00     0.000 OA
ATOM     21   O  Z9H D   1      34.986 132.306 128.8610  0.00  0.00     0.000 OA
ENDBRANCH 5 16
BRANCH 1 22
ATOM     22  O4  GU1 D   2      29.988 129.488 132.2490  0.00  0.00     0.000 O
BRANCH 22 26
ATOM     23  C1  GU1 D   2      32.009 128.788 135.7690  0.00  0.00     0.000 C
ATOM     24  C2  GU1 D   2      30.747 129.625 135.9120  0.00  0.00     0.000 C
ATOM     25  C3  GU1 D   2      29.916 129.487 134.6690  0.00  0.00     0.000 C
ATOM     26  C4  GU1 D   2      30.737 129.804 133.4280  0.00  0.00     0.000 C
ATOM     27  C5  GU1 D   2      32.033 128.986 133.4340  0.00  0.00     0.000 C
ATOM     28  O5  GU1 D   2      32.760 129.213 134.6380  0.00  0.00     0.000 O
ATOM     29   O  GU1 D   2      29.958 129.213 137.0220  0.00  0.00     0.000 O
ATOM     30   C  GU1 D   2      30.171 129.985 138.1960  0.00  0.00     0.000 C
ATOM     31   C  GU1 D   2      27.575 129.838 135.1030  0.00  0.00     0.000 C
ATOM     32   O  GU1 D   2      28.829 130.415 134.7470  0.00  0.00     0.000 O
BRANCH 27 33
ATOM     33   C  GU1 D   2      32.924 129.368 132.2760  0.00  0.00     0.000 C
ATOM     34   O  GU1 D   2      33.451 130.461 132.2880  0.00  0.00     0.000 OA
ATOM     35   O  GU1 D   2      33.112 128.589 131.3540  0.00  0.00     0.000 O
ENDBRANCH 27 33
BRANCH 23 36
ATOM     36  O4  GU6 D   3      33.085 128.939 136.7160  0.00  0.00     0.000 O
BRANCH 36 40
ATOM     37  C1  GU6 D   3      36.539 130.043 138.6000  0.00  0.00     0.000 C
ATOM     38  C2  GU6 D   3      35.998 128.689 139.0430  0.00  0.00     0.000 C
ATOM     39  C3  GU6 D   3      34.897 128.256 138.1110  0.00  0.00     0.000 C
ATOM     40  C4  GU6 D   3      34.400 129.237 137.1410  0.00  0.00     0.000 C
ATOM     41  C5  GU6 D   3      34.360 130.654 137.8030  0.00  0.00     0.000 C
ATOM     42  O5  GU6 D   3      35.479 130.986 138.6330  0.00  0.00     0.000 O
BRANCH 38 43
ATOM     43   O  GU6 D   3      37.030 127.721 139.0540  0.00  0.00     0.000 O
ATOM     44   S  GU6 D   3      37.207 127.006 140.3870  0.00  0.00     0.000 S
ATOM     45   O  GU6 D   3      38.012 127.864 141.2740  0.00  0.00     0.000 OA
ATOM     46   O  GU6 D   3      35.878 126.792 140.9870  0.00  0.00     0.000 O
ATOM     47   O  GU6 D   3      37.862 125.724 140.1500  0.00  0.00     0.000 OA
ENDBRANCH 38 43
BRANCH 39 48
ATOM     48   O  GU6 D   3      34.519 126.896 138.0150  0.00  0.00     0.000 O
ATOM     49   S  GU6 D   3      34.925 125.835 136.9930  0.00  0.00     0.000 S
ATOM     50   O  GU6 D   3      36.387 125.722 136.9350  0.00  0.00     0.000 OA
ATOM     51   O  GU6 D   3      34.319 124.608 137.5270  0.00  0.00     0.000 OA
ATOM     52   O  GU6 D   3      34.394 126.219 135.6660  0.00  0.00     0.000 O
ENDBRANCH 39 48
BRANCH 41 53
ATOM     53   C  GU6 D   3      33.315 131.729 137.6800  0.00  0.00     0.000 C
ATOM     54   O  GU6 D   3      33.483 132.003 136.3130  0.00  0.00     0.000 O
ATOM     55   S  GU6 D   3      32.710 133.149 135.6470  0.00  0.00     0.000 S
ATOM     56   O  GU6 D   3      33.209 134.407 136.2480  0.00  0.00     0.000 O
ATOM     57   O  GU6 D   3      32.980 133.119 134.2020  0.00  0.00     0.000 OA
ATOM     58   O  GU6 D   3      31.276 132.946 135.9530  0.00  0.00     0.000 OA
ENDBRANCH 41 53
BRANCH 37 59
ATOM     59  O4  Z9K D   4      37.287 130.280 137.3880  0.00  0.00     0.000 O
BRANCH 59 63
ATOM     60  C1  Z9K D   4      40.429 130.380 135.0290  0.00  0.00     0.000 C
ATOM     61  C2  Z9K D   4      41.097 130.136 136.4100  0.00  0.00     0.000 C
ATOM     62  C3  Z9K D   4      39.818 129.912 137.3290  0.00  0.00     0.000 C
ATOM     63  C4  Z9K D   4      38.593 130.895 137.1920  0.00  0.00     0.000 C
ATOM     64  C5  Z9K D   4      38.430 131.584 135.8280  0.00  0.00     0.000 C
ATOM     65  O5  Z9K D   4      38.945 130.591 134.9020  0.00  0.00     0.000 O
ATOM     66   O  Z9K D   4      40.123 129.896 138.7350  0.00  0.00     0.000 O
ATOM     67   C  Z9K D   4      40.530 128.632 139.2310  0.00  0.00     0.000 C
BRANCH 61 68
ATOM     68   O  Z9K D   4      41.750 128.898 136.3380  0.00  0.00     0.000 O
ATOM     69   O  Z9K D   4      43.020 130.528 137.8480  0.00  0.00     0.000 OA
ATOM     70   S  Z9K D   4      42.989 129.919 136.5520  0.00  0.00     0.000 S
ATOM     71   O  Z9K D   4      43.272 130.575 135.3130  0.00  0.00     0.000 OA
ATOM     72   O  Z9K D   4      43.633 128.645 136.5730  0.00  0.00     0.000 OA
ENDBRANCH 61 68
BRANCH 64 73
ATOM     73   C  Z9K D   4      36.987 132.096 135.6410  0.00  0.00     0.000 C
ATOM     74   O  Z9K D   4      36.557 133.097 136.2850  0.00  0.00     0.000 O
ATOM     75   O  Z9K D   4      36.188 131.547 134.8420  0.00  0.00     0.000 OA
ENDBRANCH 64 73
BRANCH 60 76
ATOM     76  O4  Z9L D   5      40.768 131.359 134.0320  0.00  0.00     0.000 O
BRANCH 76 80
ATOM     77  C1  Z9L D   5      41.173 131.989 130.1060  0.00  0.00     0.000 C
ATOM     78  C2  Z9L D   5      39.970 132.922 130.6100  0.00  0.00     0.000 C
ATOM     79  C3  Z9L D   5      40.096 133.010 132.2950  0.00  0.00     0.000 C
ATOM     80  C4  Z9L D   5      40.447 131.444 132.6680  0.00  0.00     0.000 C
ATOM     81  C5  Z9L D   5      41.501 130.415 132.0130  0.00  0.00     0.000 C
ATOM     82  O5  Z9L D   5      41.426 130.609 130.5920  0.00  0.00     0.000 O
ATOM     83   C  Z9L D   5      43.575 132.039 129.7560  0.00  0.00     0.000 C
ATOM     84   C  Z9L D   5      43.575 132.039 129.7560  0.00  0.00     0.000 C
BRANCH 78 85
ATOM     85   O  Z9L D   5      40.153 134.192 130.0720  0.00  0.00     0.000 O
ATOM     86   O  Z9L D   5      39.035 134.995 128.7240  0.00  0.00     0.000 OA
ATOM     87   S  Z9L D   5      38.778 133.743 129.3700  0.00  0.00     0.000 S
ATOM     88   O  Z9L D   5      37.609 133.974 130.1820  0.00  0.00     0.000 OA
ATOM     89   O  Z9L D   5      38.881 132.764 128.3430  0.00  0.00     0.000 OA
ENDBRANCH 78 85
BRANCH 79 90
ATOM     90   O  Z9L D   5      38.849 133.191 132.8880  0.00  0.00     0.000 O
ATOM     91   S  Z9L D   5      39.598 134.483 133.4410  0.00  0.00     0.000 S
ATOM     92   O  Z9L D   5      40.215 135.448 132.5700  0.00  0.00     0.000 OA
ATOM     93   O  Z9L D   5      40.155 134.193 134.7390  0.00  0.00     0.000 O
ATOM     94   O  Z9L D   5      38.248 134.899 133.6450  0.00  0.00     0.000 OA
ENDBRANCH 79 90
BRANCH 81 95
ATOM     95   C  Z9L D   5      41.515 128.847 132.6060  0.00  0.00     0.000 C
ATOM     96   S  Z9L D   5      40.833 126.996 132.3270  0.00  0.00     0.000 S
ATOM     97   O  Z9L D   5      40.256 128.449 132.1350  0.00  0.00     0.000 O
ATOM     98   O  Z9L D   5      40.885 126.755 133.7460  0.00  0.00     0.000 OA
ATOM     99   O  Z9L D   5      41.918 126.644 131.4750  0.00  0.00     0.000 OA
ATOM    100   O  Z9L D   5      39.516 126.647 131.8530  0.00  0.00     0.000 O
ENDBRANCH 81 95
ENDBRANCH 76 80
ENDBRANCH 60 76
ENDBRANCH 59 63
ENDBRANCH 37 59
ENDBRANCH 36 40
ENDBRANCH 23 36
ENDBRANCH 22 26
ENDBRANCH 1 22
TORSDOF 19
ENDMDL
MODEL 86
REMARK VINA RESULT:      -0.5    160.333    165.848
ROOT
ATOM      1  C1  Z9H D   1     136.551  33.144 132.7850  0.00  0.00     0.000 C
ATOM      2  C2  Z9H D   1     136.772  33.320 134.3060  0.00  0.00     0.000 C
ATOM      3  C3  Z9H D   1     136.618  34.871 134.3750  0.00  0.00     0.000 C
ATOM      4  C4  Z9H D   1     137.487  35.687 133.3310  0.00  0.00     0.000 C
ATOM      5  C5  Z9H D   1     137.561  35.321 131.7950  0.00  0.00     0.000 C
ATOM      6  O5  Z9H D   1     137.362  33.885 131.8320  0.00  0.00     0.000 O
ATOM      7   O  Z9H D   1     136.838  35.364 135.6980  0.00  0.00     0.000 O
ATOM      8   C  Z9H D   1     135.650  35.618 136.4660  0.00  0.00     0.000 C
ATOM      9   O  Z9H D   1     137.033  37.041 133.4210  0.00  0.00     0.000 O
ATOM     10   C  Z9H D   1     137.841  37.912 134.2190  0.00  0.00     0.000 C
ENDROOT
BRANCH 2 11
ATOM     11   O  Z9H D   1     135.577  32.810 134.8370  0.00  0.00     0.000 O
ATOM     12   O  Z9H D   1     135.459  31.222 135.8480  0.00  0.00     0.000 OA
ATOM     13   S  Z9H D   1     136.671  31.777 135.3460  0.00  0.00     0.000 S
ATOM     14   O  Z9H D   1     137.472  32.424 136.3460  0.00  0.00     0.000 OA
ATOM     15   O  Z9H D   1     137.185  30.967 134.2650  0.00  0.00     0.000 O
ENDBRANCH 2 11
BRANCH 5 16
ATOM     16   C  Z9H D   1     138.846  36.001 130.9660  0.00  0.00     0.000 C
ATOM     17   S  Z9H D   1     139.409  36.818 129.2180  0.00  0.00     0.000 S
ATOM     18   O  Z9H D   1     138.109  36.899 130.1730  0.00  0.00     0.000 O
ATOM     19   O  Z9H D   1     139.609  35.549 128.5800  0.00  0.00     0.000 O
ATOM     20   O  Z9H D   1     140.468  37.591 129.7650  0.00  0.00     0.000 OA
ATOM     21   O  Z9H D   1     138.592  37.693 128.4280  0.00  0.00     0.000 OA
ENDBRANCH 5 16
BRANCH 1 22
ATOM     22  O4  GU1 D   2     135.199  33.489 132.3120  0.00  0.00     0.000 O
BRANCH 22 26
ATOM     23  C1  GU1 D   2     132.235  32.552 129.6090  0.00  0.00     0.000 C
ATOM     24  C2  GU1 D   2     133.035  31.363 130.1180  0.00  0.00     0.000 C
ATOM     25  C3  GU1 D   2     133.797  31.766 131.3470  0.00  0.00     0.000 C
ATOM     26  C4  GU1 D   2     134.630  33.013 131.0870  0.00  0.00     0.000 C
ATOM     27  C5  GU1 D   2     133.753  34.112 130.4800  0.00  0.00     0.000 C
ATOM     28  O5  GU1 D   2     133.102  33.638 129.3040  0.00  0.00     0.000 O
ATOM     29   O  GU1 D   2     132.198  30.263 130.4550  0.00  0.00     0.000 O
ATOM     30   C  GU1 D   2     132.087  29.290 129.4260  0.00  0.00     0.000 C
ATOM     31   C  GU1 D   2     134.230  29.895 132.7980  0.00  0.00     0.000 C
ATOM     32   O  GU1 D   2     134.676  30.695 131.7060  0.00  0.00     0.000 O
BRANCH 27 33
ATOM     33   C  GU1 D   2     134.576  35.320 130.0980  0.00  0.00     0.000 C
ATOM     34   O  GU1 D   2     135.312  35.237 129.1370  0.00  0.00     0.000 OA
ATOM     35   O  GU1 D   2     134.497  36.354 130.7430  0.00  0.00     0.000 O
ENDBRANCH 27 33
BRANCH 23 36
ATOM     36  O4  GU6 D   3     131.614  32.500 128.3090  0.00  0.00     0.000 O
BRANCH 36 40
ATOM     37  C1  GU6 D   3     130.799  32.901 124.3260  0.00  0.00     0.000 C
ATOM     38  C2  GU6 D   3     129.559  32.746 125.1980  0.00  0.00     0.000 C
ATOM     39  C3  GU6 D   3     129.943  32.880 126.6490  0.00  0.00     0.000 C
ATOM     40  C4  GU6 D   3     131.373  32.902 126.9760  0.00  0.00     0.000 C
ATOM     41  C5  GU6 D   3     132.138  31.902 126.0470  0.00  0.00     0.000 C
ATOM     42  O5  GU6 D   3     131.728  31.887 124.6750  0.00  0.00     0.000 O
BRANCH 38 43
ATOM     43   O  GU6 D   3     128.590  33.720 124.8630  0.00  0.00     0.000 O
ATOM     44   S  GU6 D   3     127.219  33.152 124.5210  0.00  0.00     0.000 S
ATOM     45   O  GU6 D   3     127.237  32.699 123.1190  0.00  0.00     0.000 OA
ATOM     46   O  GU6 D   3     126.952  32.002 125.4040  0.00  0.00     0.000 O
ATOM     47   O  GU6 D   3     126.214  34.189 124.7310  0.00  0.00     0.000 OA
ENDBRANCH 38 43
BRANCH 39 48
ATOM     48   O  GU6 D   3     128.976  33.205 127.6290  0.00  0.00     0.000 O
ATOM     49   S  GU6 D   3     128.641  34.553 128.2660  0.00  0.00     0.000 S
ATOM     50   O  GU6 D   3     128.324  35.539 127.2250  0.00  0.00     0.000 OA
ATOM     51   O  GU6 D   3     127.460  34.249 129.0860  0.00  0.00     0.000 OA
ATOM     52   O  GU6 D   3     129.802  35.011 129.0610  0.00  0.00     0.000 O
ENDBRANCH 39 48
BRANCH 41 53
ATOM     53   C  GU6 D   3     133.260  30.960 126.3890  0.00  0.00     0.000 C
ATOM     54   O  GU6 D   3     134.239  31.924 126.6750  0.00  0.00     0.000 O
ATOM     55   S  GU6 D   3     135.680  31.501 126.9900  0.00  0.00     0.000 S
ATOM     56   O  GU6 D   3     136.230  30.904 125.7510  0.00  0.00     0.000 O
ATOM     57   O  GU6 D   3     136.445  32.696 127.3750  0.00  0.00     0.000 OA
ATOM     58   O  GU6 D   3     135.616  30.502 128.0800  0.00  0.00     0.000 OA
ENDBRANCH 41 53
BRANCH 37 59
ATOM     59  O4  Z9K D   4     131.544  34.126 124.1550  0.00  0.00     0.000 O
BRANCH 59 63
ATOM     60  C1  Z9K D   4     132.383  37.680 122.7020  0.00  0.00     0.000 C
ATOM     61  C2  Z9K D   4     131.281  37.204 121.7150  0.00  0.00     0.000 C
ATOM     62  C3  Z9K D   4     130.817  35.852 122.4120  0.00  0.00     0.000 C
ATOM     63  C4  Z9K D   4     131.909  34.846 122.9420  0.00  0.00     0.000 C
ATOM     64  C5  Z9K D   4     133.265  35.461 123.3200  0.00  0.00     0.000 C
ATOM     65  O5  Z9K D   4     132.898  36.784 123.7950  0.00  0.00     0.000 O
ATOM     66   O  Z9K D   4     129.951  35.054 121.5850  0.00  0.00     0.000 O
ATOM     67   C  Z9K D   4     128.579  35.405 121.6630  0.00  0.00     0.000 C
BRANCH 61 68
ATOM     68   O  Z9K D   4     130.208  38.097 121.8350  0.00  0.00     0.000 O
ATOM     69   O  Z9K D   4     130.437  37.242 119.4340  0.00  0.00     0.000 OA
ATOM     70   S  Z9K D   4     130.685  38.349 120.3080  0.00  0.00     0.000 S
ATOM     71   O  Z9K D   4     131.863  39.161 120.3160  0.00  0.00     0.000 OA
ATOM     72   O  Z9K D   4     129.532  39.184 120.4120  0.00  0.00     0.000 OA
ENDBRANCH 61 68
BRANCH 64 73
ATOM     73   C  Z9K D   4     134.048  34.525 124.2650  0.00  0.00     0.000 C
ATOM     74   O  Z9K D   4     134.572  33.455 123.8400  0.00  0.00     0.000 O
ATOM     75   O  Z9K D   4     134.200  34.790 125.4830  0.00  0.00     0.000 OA
ENDBRANCH 64 73
BRANCH 60 76
ATOM     76  O4  Z9L D   5     133.672  38.242 122.3990  0.00  0.00     0.000 O
BRANCH 76 80
ATOM     77  C1  Z9L D   5     136.413  40.902 123.5740  0.00  0.00     0.000 C
ATOM     78  C2  Z9L D   5     137.076  39.449 123.7190  0.00  0.00     0.000 C
ATOM     79  C3  Z9L D   5     136.122  38.387 122.8110  0.00  0.00     0.000 C
ATOM     80  C4  Z9L D   5     134.609  38.902 123.2100  0.00  0.00     0.000 C
ATOM     81  C5  Z9L D   5     133.989  40.389 123.2910  0.00  0.00     0.000 C
ATOM     82  O5  Z9L D   5     134.997  41.214 123.8940  0.00  0.00     0.000 O
ATOM     83   C  Z9L D   5     136.196  42.723 121.9830  0.00  0.00     0.000 C
ATOM     84   C  Z9L D   5     136.196  42.723 121.9830  0.00  0.00     0.000 C
BRANCH 78 85
ATOM     85   O  Z9L D   5     138.353  39.499 123.1680  0.00  0.00     0.000 O
ATOM     86   O  Z9L D   5     139.996  39.377 124.1670  0.00  0.00     0.000 OA
ATOM     87   S  Z9L D   5     138.684  39.200 124.7120  0.00  0.00     0.000 S
ATOM     88   O  Z9L D   5     138.610  37.803 125.0620  0.00  0.00     0.000 OA
ATOM     89   O  Z9L D   5     138.506  40.281 125.6190  0.00  0.00     0.000 OA
ENDBRANCH 78 85
BRANCH 79 90
ATOM     90   O  Z9L D   5     136.153  37.099 123.3410  0.00  0.00     0.000 O
ATOM     91   S  Z9L D   5     136.679  36.795 121.8680  0.00  0.00     0.000 S
ATOM     92   O  Z9L D   5     137.828  37.456 121.3090  0.00  0.00     0.000 OA
ATOM     93   O  Z9L D   5     135.568  36.408 121.0350  0.00  0.00     0.000 O
ATOM     94   O  Z9L D   5     137.145  35.616 122.5230  0.00  0.00     0.000 OA
ENDBRANCH 79 90
BRANCH 81 95
ATOM     95   C  Z9L D   5     132.408  40.534 123.8330  0.00  0.00     0.000 C
ATOM     96   S  Z9L D   5     131.259  40.889 125.4200  0.00  0.00     0.000 S
ATOM     97   O  Z9L D   5     132.621  40.141 125.1620  0.00  0.00     0.000 O
ATOM     98   O  Z9L D   5     130.220  40.063 124.8620  0.00  0.00     0.000 OA
ATOM     99   O  Z9L D   5     131.278  42.298 125.2130  0.00  0.00     0.000 OA
ATOM    100   O  Z9L D   5     131.522  40.443 126.7660  0.00  0.00     0.000 O
ENDBRANCH 81 95
ENDBRANCH 76 80
ENDBRANCH 60 76
ENDBRANCH 59 63
ENDBRANCH 37 59
ENDBRANCH 36 40
ENDBRANCH 23 36
ENDBRANCH 22 26
ENDBRANCH 1 22
TORSDOF 19
ENDMDL
MODEL 87
REMARK VINA RESULT:      -0.5     40.152     46.249
ROOT
ATOM      1  C1  Z9H D   1       7.868  41.331  47.7140  0.00  0.00     0.000 C
ATOM      2  C2  Z9H D   1       7.520  41.262  46.2080  0.00  0.00     0.000 C
ATOM      3  C3  Z9H D   1       6.539  42.473  46.1510  0.00  0.00     0.000 C
ATOM      4  C4  Z9H D   1       5.395  42.473  47.2470  0.00  0.00     0.000 C
ATOM      5  C5  Z9H D   1       5.666  42.200  48.7800  0.00  0.00     0.000 C
ATOM      6  O5  Z9H D   1       6.813  41.316  48.7160  0.00  0.00     0.000 O
ATOM      7   O  Z9H D   1       5.979  42.635  44.8470  0.00  0.00     0.000 O
ATOM      8   C  Z9H D   1       6.612  43.629  44.0230  0.00  0.00     0.000 C
ATOM      9   O  Z9H D   1       4.764  43.754  47.1500  0.00  0.00     0.000 O
ATOM     10   C  Z9H D   1       3.543  43.786  46.4050  0.00  0.00     0.000 C
ENDROOT
BRANCH 2 11
ATOM     11   O  Z9H D   1       8.705  41.722  45.6130  0.00  0.00     0.000 O
ATOM     12   O  Z9H D   1       9.881  40.636  44.6160  0.00  0.00     0.000 OA
ATOM     13   S  Z9H D   1       8.653  40.193  45.1840  0.00  0.00     0.000 S
ATOM     14   O  Z9H D   1       7.596  40.029  44.2270  0.00  0.00     0.000 OA
ATOM     15   O  Z9H D   1       8.903  39.316  46.3050  0.00  0.00     0.000 O
ENDBRANCH 2 11
BRANCH 5 16
ATOM     16   C  Z9H D   1       4.312  41.805  49.6800  0.00  0.00     0.000 C
ATOM     17   S  Z9H D   1       3.475  41.925  51.5040  0.00  0.00     0.000 S
ATOM     18   O  Z9H D   1       4.333  42.909  50.5530  0.00  0.00     0.000 O
ATOM     19   O  Z9H D   1       4.200  40.798  52.0150  0.00  0.00     0.000 O
ATOM     20   O  Z9H D   1       2.133  41.845  51.0420  0.00  0.00     0.000 OA
ATOM     21   O  Z9H D   1       3.572  43.063  52.3710  0.00  0.00     0.000 OA
ENDBRANCH 5 16
BRANCH 1 22
ATOM     22  O4  GU1 D   2       8.608  42.537  48.1240  0.00  0.00     0.000 O
BRANCH 22 26
ATOM     23  C1  GU1 D   2      11.131  44.070  50.9970  0.00  0.00     0.000 C
ATOM     24  C2  GU1 D   2      11.221  42.564  50.8050  0.00  0.00     0.000 C
ATOM     25  C3  GU1 D   2      10.565  42.188  49.5080  0.00  0.00     0.000 C
ATOM     26  C4  GU1 D   2       9.149  42.743  49.4340  0.00  0.00     0.000 C
ATOM     27  C5  GU1 D   2       9.157  44.243  49.7450  0.00  0.00     0.000 C
ATOM     28  O5  GU1 D   2       9.771  44.487  51.0070  0.00  0.00     0.000 O
ATOM     29   O  GU1 D   2      12.570  42.112  50.7670  0.00  0.00     0.000 O
ATOM     30   C  GU1 D   2      13.045  41.620  52.0120  0.00  0.00     0.000 C
ATOM     31   C  GU1 D   2      11.480  40.163  48.5830  0.00  0.00     0.000 C
ATOM     32   O  GU1 D   2      10.501  40.761  49.4300  0.00  0.00     0.000 O
BRANCH 27 33
ATOM     33   C  GU1 D   2       7.753  44.797  49.7980  0.00  0.00     0.000 C
ATOM     34   O  GU1 D   2       7.135  44.706  50.8390  0.00  0.00     0.000 OA
ATOM     35   O  GU1 D   2       7.257  45.326  48.8150  0.00  0.00     0.000 O
ENDBRANCH 27 33
BRANCH 23 36
ATOM     36  O4  GU6 D   3      11.466  44.655  52.2710  0.00  0.00     0.000 O
BRANCH 36 40
ATOM     37  C1  GU6 D   3      11.249  46.208  56.0440  0.00  0.00     0.000 C
ATOM     38  C2  GU6 D   3      12.525  46.575  55.2970  0.00  0.00     0.000 C
ATOM     39  C3  GU6 D   3      12.389  46.192  53.8460  0.00  0.00     0.000 C
ATOM     40  C4  GU6 D   3      11.230  45.377  53.4630  0.00  0.00     0.000 C
ATOM     41  C5  GU6 D   3      10.933  44.330  54.5860  0.00  0.00     0.000 C
ATOM     42  O5  GU6 D   3      11.045  44.808  55.9310  0.00  0.00     0.000 O
BRANCH 38 43
ATOM     43   O  GU6 D   3      12.786  47.961  55.4080  0.00  0.00     0.000 O
ATOM     44   S  GU6 D   3      14.166  48.299  55.9580  0.00  0.00     0.000 S
ATOM     45   O  GU6 D   3      14.123  48.196  57.4270  0.00  0.00     0.000 OA
ATOM     46   O  GU6 D   3      15.136  47.324  55.4270  0.00  0.00     0.000 O
ATOM     47   O  GU6 D   3      14.526  49.647  55.5290  0.00  0.00     0.000 OA
ENDBRANCH 38 43
BRANCH 39 48
ATOM     48   O  GU6 D   3      13.209  46.785  52.8580  0.00  0.00     0.000 O
ATOM     49   S  GU6 D   3      12.925  47.960  51.9230  0.00  0.00     0.000 S
ATOM     50   O  GU6 D   3      12.529  49.140  52.7000  0.00  0.00     0.000 OA
ATOM     51   O  GU6 D   3      14.216  48.173  51.2550  0.00  0.00     0.000 OA
ATOM     52   O  GU6 D   3      11.840  47.580  50.9910  0.00  0.00     0.000 O
ENDBRANCH 39 48
BRANCH 41 53
ATOM     53   C  GU6 D   3      10.529  42.887  54.4530  0.00  0.00     0.000 C
ATOM     54   O  GU6 D   3       9.213  43.097  54.0090  0.00  0.00     0.000 O
ATOM     55   S  GU6 D   3       8.260  41.911  53.8100  0.00  0.00     0.000 S
ATOM     56   O  GU6 D   3       8.012  41.333  55.1510  0.00  0.00     0.000 O
ATOM     57   O  GU6 D   3       7.009  42.410  53.2210  0.00  0.00     0.000 OA
ATOM     58   O  GU6 D   3       8.945  40.939  52.9290  0.00  0.00     0.000 OA
ENDBRANCH 41 53
BRANCH 37 59
ATOM     59  O4  Z9K D   4       9.967  46.845  55.8570  0.00  0.00     0.000 O
BRANCH 59 63
ATOM     60  C1  Z9K D   4       7.187  49.598  56.2350  0.00  0.00     0.000 C
ATOM     61  C2  Z9K D   4       8.213  50.056  57.3090  0.00  0.00     0.000 C
ATOM     62  C3  Z9K D   4       9.414  49.053  57.0260  0.00  0.00     0.000 C
ATOM     63  C4  Z9K D   4       9.102  47.522  56.8150  0.00  0.00     0.000 C
ATOM     64  C5  Z9K D   4       7.700  47.186  56.2860  0.00  0.00     0.000 C
ATOM     65  O5  Z9K D   4       7.388  48.331  55.4490  0.00  0.00     0.000 O
ATOM     66   O  Z9K D   4      10.433  49.086  58.0410  0.00  0.00     0.000 O
ATOM     67   C  Z9K D   4      11.413  50.094  57.8560  0.00  0.00     0.000 C
BRANCH 61 68
ATOM     68   O  Z9K D   4       8.664  51.327  56.9300  0.00  0.00     0.000 O
ATOM     69   O  Z9K D   4       8.566  51.101  59.4770  0.00  0.00     0.000 OA
ATOM     70   S  Z9K D   4       7.908  51.644  58.3270  0.00  0.00     0.000 S
ATOM     71   O  Z9K D   4       6.495  51.655  58.0990  0.00  0.00     0.000 OA
ATOM     72   O  Z9K D   4       8.455  52.915  57.9790  0.00  0.00     0.000 OA
ENDBRANCH 61 68
BRANCH 64 73
ATOM     73   C  Z9K D   4       7.674  45.778  55.6550  0.00  0.00     0.000 C
ATOM     74   O  Z9K D   4       7.574  45.622  54.4030  0.00  0.00     0.000 O
ATOM     75   O  Z9K D   4       7.757  44.738  56.3540  0.00  0.00     0.000 OA
ENDBRANCH 64 73
BRANCH 60 76
ATOM     76  O4  Z9L D   5       5.767  49.422  56.3730  0.00  0.00     0.000 O
BRANCH 76 80
ATOM     77  C1  Z9L D   5       2.257  49.883  54.5190  0.00  0.00     0.000 C
ATOM     78  C2  Z9L D   5       2.452  48.311  54.7700  0.00  0.00     0.000 C
ATOM     79  C3  Z9L D   5       3.671  48.153  55.9320  0.00  0.00     0.000 C
ATOM     80  C4  Z9L D   5       4.752  49.283  55.4120  0.00  0.00     0.000 C
ATOM     81  C5  Z9L D   5       4.536  50.807  54.9330  0.00  0.00     0.000 C
ATOM     82  O5  Z9L D   5       3.347  50.813  54.1280  0.00  0.00     0.000 O
ATOM     83   C  Z9L D   5       1.288  51.851  55.5590  0.00  0.00     0.000 C
ATOM     84   C  Z9L D   5       1.288  51.851  55.5590  0.00  0.00     0.000 C
BRANCH 78 85
ATOM     85   O  Z9L D   5       1.262  47.805  55.2850  0.00  0.00     0.000 O
ATOM     86   O  Z9L D   5       0.073  46.610  54.3530  0.00  0.00     0.000 OA
ATOM     87   S  Z9L D   5       1.356  47.032  53.8790  0.00  0.00     0.000 S
ATOM     88   O  Z9L D   5       2.178  45.849  53.9190  0.00  0.00     0.000 OA
ATOM     89   O  Z9L D   5       1.089  47.803  52.7140  0.00  0.00     0.000 OA
ENDBRANCH 78 85
BRANCH 79 90
ATOM     90   O  Z9L D   5       4.375  46.963  55.7710  0.00  0.00     0.000 O
ATOM     91   S  Z9L D   5       3.878  46.777  57.2720  0.00  0.00     0.000 S
ATOM     92   O  Z9L D   5       2.487  46.839  57.6370  0.00  0.00     0.000 OA
ATOM     93   O  Z9L D   5       4.902  47.241  58.1750  0.00  0.00     0.000 O
ATOM     94   O  Z9L D   5       4.174  45.416  56.9620  0.00  0.00     0.000 OA
ENDBRANCH 79 90
BRANCH 81 95
ATOM     95   C  Z9L D   5       5.883  51.636  54.3760  0.00  0.00     0.000 C
ATOM     96   S  Z9L D   5       6.903  52.176  52.7530  0.00  0.00     0.000 S
ATOM     97   O  Z9L D   5       6.089  50.904  53.1980  0.00  0.00     0.000 O
ATOM     98   O  Z9L D   5       8.127  52.171  53.5120  0.00  0.00     0.000 OA
ATOM     99   O  Z9L D   5       6.144  53.368  52.5790  0.00  0.00     0.000 OA
ATOM    100   O  Z9L D   5       7.096  51.370  51.5730  0.00  0.00     0.000 O
ENDBRANCH 81 95
ENDBRANCH 76 80
ENDBRANCH 60 76
ENDBRANCH 59 63
ENDBRANCH 37 59
ENDBRANCH 36 40
ENDBRANCH 23 36
ENDBRANCH 22 26
ENDBRANCH 1 22
TORSDOF 19
ENDMDL
MODEL 88
REMARK VINA RESULT:      -0.5     93.274    101.033
ROOT
ATOM      1  C1  Z9H D   1      52.321 118.421  64.1470  0.00  0.00     0.000 C
ATOM      2  C2  Z9H D   1      52.088 119.838  63.5710  0.00  0.00     0.000 C
ATOM      3  C3  Z9H D   1      50.909 119.495  62.6090  0.00  0.00     0.000 C
ATOM      4  C4  Z9H D   1      51.155 118.260  61.6460  0.00  0.00     0.000 C
ATOM      5  C5  Z9H D   1      51.730 116.875  62.1460  0.00  0.00     0.000 C
ATOM      6  O5  Z9H D   1      52.561 117.294  63.2580  0.00  0.00     0.000 O
ATOM      7   O  Z9H D   1      50.494 120.636  61.8560  0.00  0.00     0.000 O
ATOM      8   C  Z9H D   1      49.341 121.325  62.3680  0.00  0.00     0.000 C
ATOM      9   O  Z9H D   1      49.893 117.994  61.0250  0.00  0.00     0.000 O
ATOM     10   C  Z9H D   1      49.732 118.521  59.7040  0.00  0.00     0.000 C
ENDROOT
BRANCH 2 11
ATOM     11   O  Z9H D   1      51.493 120.500  64.6560  0.00  0.00     0.000 O
ATOM     12   O  Z9H D   1      52.315 121.893  65.6260  0.00  0.00     0.000 OA
ATOM     13   S  Z9H D   1      52.887 121.245  64.4940  0.00  0.00     0.000 S
ATOM     14   O  Z9H D   1      52.842 122.030  63.2930  0.00  0.00     0.000 OA
ATOM     15   O  Z9H D   1      53.991 120.406  64.8980  0.00  0.00     0.000 O
ENDBRANCH 2 11
BRANCH 5 16
ATOM     16   C  Z9H D   1      52.326 115.879  60.9420  0.00  0.00     0.000 C
ATOM     17   S  Z9H D   1      52.521 113.965  60.3570  0.00  0.00     0.000 S
ATOM     18   O  Z9H D   1      51.364 114.857  61.0440  0.00  0.00     0.000 O
ATOM     19   O  Z9H D   1      53.671 113.731  61.1830  0.00  0.00     0.000 O
ATOM     20   O  Z9H D   1      52.606 114.256  58.9690  0.00  0.00     0.000 OA
ATOM     21   O  Z9H D   1      51.520 112.955  60.5320  0.00  0.00     0.000 OA
ENDBRANCH 5 16
BRANCH 1 22
ATOM     22  O4  GU1 D   2      51.210 117.891  64.9570  0.00  0.00     0.000 O
BRANCH 22 26
ATOM     23  C1  GU1 D   2      50.220 115.571  68.2140  0.00  0.00     0.000 C
ATOM     24  C2  GU1 D   2      51.502 116.375  68.3670  0.00  0.00     0.000 C
ATOM     25  C3  GU1 D   2      51.549 117.442  67.3120  0.00  0.00     0.000 C
ATOM     26  C4  GU1 D   2      51.349 116.846  65.9270  0.00  0.00     0.000 C
ATOM     27  C5  GU1 D   2      50.091 115.973  65.9080  0.00  0.00     0.000 C
ATOM     28  O5  GU1 D   2      50.161 114.975  66.9230  0.00  0.00     0.000 O
ATOM     29   O  GU1 D   2      51.586 117.004  69.6400  0.00  0.00     0.000 O
ATOM     30   C  GU1 D   2      52.352 116.278  70.5910  0.00  0.00     0.000 C
ATOM     31   C  GU1 D   2      52.858 119.340  68.0030  0.00  0.00     0.000 C
ATOM     32   O  GU1 D   2      52.835 118.068  67.3600  0.00  0.00     0.000 O
BRANCH 27 33
ATOM     33   C  GU1 D   2      49.932 115.271  64.5800  0.00  0.00     0.000 C
ATOM     34   O  GU1 D   2      50.699 114.370  64.3080  0.00  0.00     0.000 OA
ATOM     35   O  GU1 D   2      49.050 115.604  63.8030  0.00  0.00     0.000 O
ENDBRANCH 27 33
BRANCH 23 36
ATOM     36  O4  GU6 D   3      50.049 114.340  68.9440  0.00  0.00     0.000 O
BRANCH 36 40
ATOM     37  C1  GU6 D   3      49.916 110.407  70.0420  0.00  0.00     0.000 C
ATOM     38  C2  GU6 D   3      48.960 111.300  70.8230  0.00  0.00     0.000 C
ATOM     39  C3  GU6 D   3      48.886 112.654  70.1680  0.00  0.00     0.000 C
ATOM     40  C4  GU6 D   3      49.850 112.950  69.1030  0.00  0.00     0.000 C
ATOM     41  C5  GU6 D   3      51.237 112.324  69.4650  0.00  0.00     0.000 C
ATOM     42  O5  GU6 D   3      51.200 111.012  70.0390  0.00  0.00     0.000 O
BRANCH 38 43
ATOM     43   O  GU6 D   3      47.671 110.719  70.8800  0.00  0.00     0.000 O
ATOM     44   S  GU6 D   3      47.127 110.532  72.2900  0.00  0.00     0.000 S
ATOM     45   O  GU6 D   3      47.700 109.297  72.8530  0.00  0.00     0.000 OA
ATOM     46   O  GU6 D   3      47.542 111.683  73.1110  0.00  0.00     0.000 O
ATOM     47   O  GU6 D   3      45.670 110.462  72.2260  0.00  0.00     0.000 OA
ENDBRANCH 38 43
BRANCH 39 48
ATOM     48   O  GU6 D   3      47.789 113.516  70.4050  0.00  0.00     0.000 O
ATOM     49   S  GU6 D   3      46.535 113.760  69.5670  0.00  0.00     0.000 S
ATOM     50   O  GU6 D   3      45.842 112.491  69.3150  0.00  0.00     0.000 OA
ATOM     51   O  GU6 D   3      45.730 114.644  70.4220  0.00  0.00     0.000 OA
ATOM     52   O  GU6 D   3      46.928 114.386  68.2860  0.00  0.00     0.000 O
ENDBRANCH 39 48
BRANCH 41 53
ATOM     53   C  GU6 D   3      52.615 112.901  69.2800  0.00  0.00     0.000 C
ATOM     54   O  GU6 D   3      52.614 112.950  67.8770  0.00  0.00     0.000 O
ATOM     55   S  GU6 D   3      53.875 113.376  67.1120  0.00  0.00     0.000 S
ATOM     56   O  GU6 D   3      54.896 112.330  67.3550  0.00  0.00     0.000 O
ATOM     57   O  GU6 D   3      53.549 113.461  65.6810  0.00  0.00     0.000 OA
ATOM     58   O  GU6 D   3      54.306 114.679  67.6670  0.00  0.00     0.000 OA
ENDBRANCH 41 53
BRANCH 37 59
ATOM     59  O4  Z9K D   4      49.677 109.900  68.7120  0.00  0.00     0.000 O
BRANCH 59 63
ATOM     60  C1  Z9K D   4      48.220 107.521  65.9430  0.00  0.00     0.000 C
ATOM     61  C2  Z9K D   4      47.905 106.712  67.2320  0.00  0.00     0.000 C
ATOM     62  C3  Z9K D   4      48.327 107.756  68.3540  0.00  0.00     0.000 C
ATOM     63  C4  Z9K D   4      49.691 108.533  68.2070  0.00  0.00     0.000 C
ATOM     64  C5  Z9K D   4      50.210 108.718  66.7730  0.00  0.00     0.000 C
ATOM     65  O5  Z9K D   4      48.987 108.814  65.9970  0.00  0.00     0.000 O
ATOM     66   O  Z9K D   4      48.367 107.187  69.6750  0.00  0.00     0.000 O
ATOM     67   C  Z9K D   4      47.118 107.177  70.3470  0.00  0.00     0.000 C
BRANCH 61 68
ATOM     68   O  Z9K D   4      46.511 106.591  67.3100  0.00  0.00     0.000 O
ATOM     69   O  Z9K D   4      47.675 104.521  68.2620  0.00  0.00     0.000 OA
ATOM     70   S  Z9K D   4      46.972 105.049  67.1320  0.00  0.00     0.000 S
ATOM     71   O  Z9K D   4      47.300 104.816  65.7590  0.00  0.00     0.000 OA
ATOM     72   O  Z9K D   4      45.560 104.930  67.3100  0.00  0.00     0.000 OA
ENDBRANCH 61 68
BRANCH 64 73
ATOM     73   C  Z9K D   4      51.227 109.876  66.7030  0.00  0.00     0.000 C
ATOM     74   O  Z9K D   4      50.926 110.982  66.1650  0.00  0.00     0.000 O
ATOM     75   O  Z9K D   4      52.384 109.771  67.1790  0.00  0.00     0.000 OA
ENDBRANCH 64 73
BRANCH 60 76
ATOM     76  O4  Z9L D   5      48.849 107.066  64.7330  0.00  0.00     0.000 O
BRANCH 76 80
ATOM     77  C1  Z9L D   5      48.869 107.436  60.7530  0.00  0.00     0.000 C
ATOM     78  C2  Z9L D   5      50.289 107.962  61.2810  0.00  0.00     0.000 C
ATOM     79  C3  Z9L D   5      50.461 107.391  62.8640  0.00  0.00     0.000 C
ATOM     80  C4  Z9L D   5      48.948 107.654  63.4610  0.00  0.00     0.000 C
ATOM     81  C5  Z9L D   5      47.497 107.336  62.8340  0.00  0.00     0.000 C
ATOM     82  O5  Z9L D   5      47.575 107.678  61.4420  0.00  0.00     0.000 O
ATOM     83   C  Z9L D   5      47.785 105.413  59.9620  0.00  0.00     0.000 C
ATOM     84   C  Z9L D   5      47.785 105.413  59.9620  0.00  0.00     0.000 C
BRANCH 78 85
ATOM     85   O  Z9L D   5      51.281 107.401  60.4830  0.00  0.00     0.000 O
ATOM     86   O  Z9L D   5      52.379 108.374  59.2350  0.00  0.00     0.000 OA
ATOM     87   S  Z9L D   5      51.447 108.964  60.1460  0.00  0.00     0.000 S
ATOM     88   O  Z9L D   5      52.258 109.681  61.0990  0.00  0.00     0.000 OA
ATOM     89   O  Z9L D   5      50.440 109.546  59.3270  0.00  0.00     0.000 OA
ENDBRANCH 78 85
BRANCH 79 90
ATOM     90   O  Z9L D   5      51.243 108.250  63.6310  0.00  0.00     0.000 O
ATOM     91   S  Z9L D   5      52.083 106.907  63.7950  0.00  0.00     0.000 S
ATOM     92   O  Z9L D   5      52.582 106.167  62.6650  0.00  0.00     0.000 OA
ATOM     93   O  Z9L D   5      51.672 106.231  65.0000  0.00  0.00     0.000 O
ATOM     94   O  Z9L D   5      53.090 107.849  64.1610  0.00  0.00     0.000 OA
ENDBRANCH 79 90
BRANCH 81 95
ATOM     95   C  Z9L D   5      46.156 107.838  63.7060  0.00  0.00     0.000 C
ATOM     96   S  Z9L D   5      44.820 109.298  63.9390  0.00  0.00     0.000 S
ATOM     97   O  Z9L D   5      46.354 109.222  63.5900  0.00  0.00     0.000 O
ATOM     98   O  Z9L D   5      44.697 108.971  65.3370  0.00  0.00     0.000 OA
ATOM     99   O  Z9L D   5      43.936 108.747  62.9680  0.00  0.00     0.000 OA
ATOM    100   O  Z9L D   5      45.088 110.710  63.8230  0.00  0.00     0.000 O
ENDBRANCH 81 95
ENDBRANCH 76 80
ENDBRANCH 60 76
ENDBRANCH 59 63
ENDBRANCH 37 59
ENDBRANCH 36 40
ENDBRANCH 23 36
ENDBRANCH 22 26
ENDBRANCH 1 22
TORSDOF 19
ENDMDL
MODEL 89
REMARK VINA RESULT:      -0.5    109.490    115.929
ROOT
ATOM      1  C1  Z9H D   1      49.673  98.635  99.2030  0.00  0.00     0.000 C
ATOM      2  C2  Z9H D   1      49.817  99.697  98.0870  0.00  0.00     0.000 C
ATOM      3  C3  Z9H D   1      48.312  99.812  97.6940  0.00  0.00     0.000 C
ATOM      4  C4  Z9H D   1      47.577  98.436  97.4120  0.00  0.00     0.000 C
ATOM      5  C5  Z9H D   1      47.686  97.186  98.3720  0.00  0.00     0.000 C
ATOM      6  O5  Z9H D   1      49.010  97.369  98.9330  0.00  0.00     0.000 O
ATOM      7   O  Z9H D   1      48.121 100.711  96.6000  0.00  0.00     0.000 O
ATOM      8   C  Z9H D   1      47.710 102.040  96.9600  0.00  0.00     0.000 C
ATOM      9   O  Z9H D   1      46.187  98.757  97.2900  0.00  0.00     0.000 O
ATOM     10   C  Z9H D   1      45.696  98.872  95.9510  0.00  0.00     0.000 C
ENDROOT
BRANCH 2 11
ATOM     11   O  Z9H D   1      50.093 100.859  98.8230  0.00  0.00     0.000 O
ATOM     12   O  Z9H D   1      51.744 101.771  98.7870  0.00  0.00     0.000 OA
ATOM     13   S  Z9H D   1      51.435 100.619  98.0090  0.00  0.00     0.000 S
ATOM     14   O  Z9H D   1      51.181 100.904  96.6260  0.00  0.00     0.000 OA
ATOM     15   O  Z9H D   1      52.159  99.469  98.5010  0.00  0.00     0.000 O
ENDBRANCH 2 11
BRANCH 5 16
ATOM     16   C  Z9H D   1      47.221  95.728  97.6930  0.00  0.00     0.000 C
ATOM     17   S  Z9H D   1      46.263  93.997  98.0480  0.00  0.00     0.000 S
ATOM     18   O  Z9H D   1      46.028  95.551  98.4170  0.00  0.00     0.000 O
ATOM     19   O  Z9H D   1      47.396  93.391  98.6870  0.00  0.00     0.000 O
ATOM     20   O  Z9H D   1      45.912  93.757  96.6910  0.00  0.00     0.000 OA
ATOM     21   O  Z9H D   1      45.072  93.873  98.8360  0.00  0.00     0.000 OA
ENDBRANCH 5 16
BRANCH 1 22
ATOM     22  O4  GU1 D   2      48.924  99.082 100.3900  0.00  0.00     0.000 O
BRANCH 22 26
ATOM     23  C1  GU1 D   2      48.622  98.802 104.4890  0.00  0.00     0.000 C
ATOM     24  C2  GU1 D   2      50.043  98.762 103.9480  0.00  0.00     0.000 C
ATOM     25  C3  GU1 D   2      50.049  99.250 102.5280  0.00  0.00     0.000 C
ATOM     26  C4  GU1 D   2      49.040  98.483 101.6860  0.00  0.00     0.000 C
ATOM     27  C5  GU1 D   2      47.669  98.496 102.3690  0.00  0.00     0.000 C
ATOM     28  O5  GU1 D   2      47.768  97.986 103.6960  0.00  0.00     0.000 O
ATOM     29   O  GU1 D   2      50.923  99.585 104.7040  0.00  0.00     0.000 O
ATOM     30   C  GU1 D   2      51.662  98.881 105.6930  0.00  0.00     0.000 C
ATOM     31   C  GU1 D   2      52.169 100.205 101.9090  0.00  0.00     0.000 C
ATOM     32   O  GU1 D   2      51.355  99.037 101.9830  0.00  0.00     0.000 O
BRANCH 27 33
ATOM     33   C  GU1 D   2      46.675  97.642 101.6170  0.00  0.00     0.000 C
ATOM     34   O  GU1 D   2      46.823  96.437 101.6310  0.00  0.00     0.000 OA
ATOM     35   O  GU1 D   2      45.745  98.156 101.0150  0.00  0.00     0.000 O
ENDBRANCH 27 33
BRANCH 23 36
ATOM     36  O4  GU6 D   3      48.308  98.159 105.7400  0.00  0.00     0.000 O
BRANCH 36 40
ATOM     37  C1  GU6 D   3      47.092  95.509 108.6020  0.00  0.00     0.000 C
ATOM     38  C2  GU6 D   3      47.024  96.967 109.0400  0.00  0.00     0.000 C
ATOM     39  C3  GU6 D   3      47.226  97.862 107.8460  0.00  0.00     0.000 C
ATOM     40  C4  GU6 D   3      47.656  97.237 106.5900  0.00  0.00     0.000 C
ATOM     41  C5  GU6 D   3      48.677  96.092 106.8990  0.00  0.00     0.000 C
ATOM     42  O5  GU6 D   3      48.367  95.268 108.0280  0.00  0.00     0.000 O
BRANCH 38 43
ATOM     43   O  GU6 D   3      45.778  97.246 109.6480  0.00  0.00     0.000 O
ATOM     44   S  GU6 D   3      45.879  97.831 111.0510  0.00  0.00     0.000 S
ATOM     45   O  GU6 D   3      46.089  96.728 112.0040  0.00  0.00     0.000 OA
ATOM     46   O  GU6 D   3      47.034  98.745 111.0970  0.00  0.00     0.000 O
ATOM     47   O  GU6 D   3      44.650  98.562 111.3450  0.00  0.00     0.000 OA
ENDBRANCH 38 43
BRANCH 39 48
ATOM     48   O  GU6 D   3      46.795  99.210 107.8670  0.00  0.00     0.000 O
ATOM     49   S  GU6 D   3      45.518  99.840 107.3120  0.00  0.00     0.000 S
ATOM     50   O  GU6 D   3      44.339  99.163 107.8640  0.00  0.00     0.000 OA
ATOM     51   O  GU6 D   3      45.601 101.229 107.7830  0.00  0.00     0.000 OA
ATOM     52   O  GU6 D   3      45.527  99.722 105.8370  0.00  0.00     0.000 O
ENDBRANCH 39 48
BRANCH 41 53
ATOM     53   C  GU6 D   3      49.937  95.723 106.1640  0.00  0.00     0.000 C
ATOM     54   O  GU6 D   3      49.345  95.335 104.9520  0.00  0.00     0.000 O
ATOM     55   S  GU6 D   3      50.198  94.736 103.8260  0.00  0.00     0.000 S
ATOM     56   O  GU6 D   3      50.704  93.434 104.3190  0.00  0.00     0.000 O
ATOM     57   O  GU6 D   3      49.345  94.548 102.6430  0.00  0.00     0.000 OA
ATOM     58   O  GU6 D   3      51.310  95.678 103.5700  0.00  0.00     0.000 OA
ENDBRANCH 41 53
BRANCH 37 59
ATOM     59  O4  Z9K D   4      46.115  94.847 107.7720  0.00  0.00     0.000 O
BRANCH 59 63
ATOM     60  C1  Z9K D   4      42.774  92.972 106.8920  0.00  0.00     0.000 C
ATOM     61  C2  Z9K D   4      42.757  92.907 108.4440  0.00  0.00     0.000 C
ATOM     62  C3  Z9K D   4      44.008  93.822 108.7990  0.00  0.00     0.000 C
ATOM     63  C4  Z9K D   4      45.353  93.626 108.0020  0.00  0.00     0.000 C
ATOM     64  C5  Z9K D   4      45.220  93.049 106.5840  0.00  0.00     0.000 C
ATOM     65  O5  Z9K D   4      43.937  93.568 106.1450  0.00  0.00     0.000 O
ATOM     66   O  Z9K D   4      44.386  93.756 110.1850  0.00  0.00     0.000 O
ATOM     67   C  Z9K D   4      43.672  94.642 111.0310  0.00  0.00     0.000 C
BRANCH 61 68
ATOM     68   O  Z9K D   4      41.622  93.609 108.8720  0.00  0.00     0.000 O
ATOM     69   O  Z9K D   4      42.134  91.641 110.4260  0.00  0.00     0.000 OA
ATOM     70   S  Z9K D   4      41.290  92.102 109.3650  0.00  0.00     0.000 S
ATOM     71   O  Z9K D   4      40.861  91.328 108.2410  0.00  0.00     0.000 OA
ATOM     72   O  Z9K D   4      40.185  92.844 109.8800  0.00  0.00     0.000 OA
ENDBRANCH 61 68
BRANCH 64 73
ATOM     73   C  Z9K D   4      46.475  93.365 105.7430  0.00  0.00     0.000 C
ATOM     74   O  Z9K D   4      47.577  92.786 105.9680  0.00  0.00     0.000 O
ATOM     75   O  Z9K D   4      46.449  94.197 104.8040  0.00  0.00     0.000 OA
ENDBRANCH 64 73
BRANCH 60 76
ATOM     76  O4  Z9L D   5      42.568  91.907 105.9490  0.00  0.00     0.000 O
BRANCH 76 80
ATOM     77  C1  Z9L D   5      40.856  90.934 102.4710  0.00  0.00     0.000 C
ATOM     78  C2  Z9L D   5      42.442  90.808 102.2660  0.00  0.00     0.000 C
ATOM     79  C3  Z9L D   5      43.129  90.763 103.8110  0.00  0.00     0.000 C
ATOM     80  C4  Z9L D   5      42.253  91.926 104.5810  0.00  0.00     0.000 C
ATOM     81  C5  Z9L D   5      40.665  92.204 104.6090  0.00  0.00     0.000 C
ATOM     82  O5  Z9L D   5      40.195  91.998 103.2680  0.00  0.00     0.000 O
ATOM     83   C  Z9L D   5      38.928  89.604 103.1080  0.00  0.00     0.000 C
ATOM     84   C  Z9L D   5      38.928  89.604 103.1080  0.00  0.00     0.000 C
BRANCH 78 85
ATOM     85   O  Z9L D   5      42.699  89.604 101.6170  0.00  0.00     0.000 O
ATOM     86   O  Z9L D   5      43.351  89.436  99.8120  0.00  0.00     0.000 OA
ATOM     87   S  Z9L D   5      43.205  90.669 100.5250  0.00  0.00     0.000 S
ATOM     88   O  Z9L D   5      44.551  91.134 100.7470  0.00  0.00     0.000 OA
ATOM     89   O  Z9L D   5      42.196  91.388  99.8270  0.00  0.00     0.000 OA
ENDBRANCH 78 85
BRANCH 79 90
ATOM     90   O  Z9L D   5      44.413  91.301 103.8100  0.00  0.00     0.000 O
ATOM     91   S  Z9L D   5      44.736  89.842 104.3600  0.00  0.00     0.000 S
ATOM     92   O  Z9L D   5      44.370  88.650 103.6420  0.00  0.00     0.000 OA
ATOM     93   O  Z9L D   5      44.745  89.867 105.8020  0.00  0.00     0.000 O
ATOM     94   O  Z9L D   5      46.043  90.214 103.9240  0.00  0.00     0.000 OA
ENDBRANCH 79 90
BRANCH 81 95
ATOM     95   C  Z9L D   5      40.136  93.560 105.4420  0.00  0.00     0.000 C
ATOM     96   S  Z9L D   5      39.613  95.474 105.2680  0.00  0.00     0.000 S
ATOM     97   O  Z9L D   5      40.683  94.535 104.5950  0.00  0.00     0.000 O
ATOM     98   O  Z9L D   5      40.070  95.728 106.6100  0.00  0.00     0.000 OA
ATOM     99   O  Z9L D   5      38.252  95.156 104.9970  0.00  0.00     0.000 OA
ATOM    100   O  Z9L D   5      40.227  96.437 104.3880  0.00  0.00     0.000 O
ENDBRANCH 81 95
ENDBRANCH 76 80
ENDBRANCH 60 76
ENDBRANCH 59 63
ENDBRANCH 37 59
ENDBRANCH 36 40
ENDBRANCH 23 36
ENDBRANCH 22 26
ENDBRANCH 1 22
TORSDOF 19
ENDMDL
MODEL 90
REMARK VINA RESULT:      -0.5     97.499    101.880
ROOT
ATOM      1  C1  Z9H D   1      35.609 116.519  70.9550  0.00  0.00     0.000 C
ATOM      2  C2  Z9H D   1      34.915 117.274  72.1130  0.00  0.00     0.000 C
ATOM      3  C3  Z9H D   1      36.086 118.234  72.4860  0.00  0.00     0.000 C
ATOM      4  C4  Z9H D   1      37.493 117.538  72.7020  0.00  0.00     0.000 C
ATOM      5  C5  Z9H D   1      38.097 116.479  71.6960  0.00  0.00     0.000 C
ATOM      6  O5  Z9H D   1      36.894 115.869  71.1640  0.00  0.00     0.000 O
ATOM      7   O  Z9H D   1      35.758 119.053  73.6100  0.00  0.00     0.000 O
ATOM      8   C  Z9H D   1      35.308 120.381  73.2950  0.00  0.00     0.000 C
ATOM      9   O  Z9H D   1      38.442 118.604  72.8140  0.00  0.00     0.000 O
ATOM     10   C  Z9H D   1      38.822 118.955  74.1480  0.00  0.00     0.000 C
ENDROOT
BRANCH 2 11
ATOM     11   O  Z9H D   1      33.990 118.075  71.4260  0.00  0.00     0.000 O
ATOM     12   O  Z9H D   1      32.119 117.854  71.5240  0.00  0.00     0.000 OA
ATOM     13   S  Z9H D   1      33.067 117.080  72.2520  0.00  0.00     0.000 S
ATOM     14   O  Z9H D   1      33.156 117.430  73.6410  0.00  0.00     0.000 OA
ATOM     15   O  Z9H D   1      33.128 115.735  71.7270  0.00  0.00     0.000 O
ENDBRANCH 2 11
BRANCH 5 16
ATOM     16   C  Z9H D   1      39.345 115.549  72.3110  0.00  0.00     0.000 C
ATOM     17   S  Z9H D   1      41.122 114.715  71.8780  0.00  0.00     0.000 S
ATOM     18   O  Z9H D   1      40.395 116.123  71.5700  0.00  0.00     0.000 O
ATOM     19   O  Z9H D   1      40.537 113.579  71.2250  0.00  0.00     0.000 O
ATOM     20   O  Z9H D   1      41.589 114.687  73.2200  0.00  0.00     0.000 OA
ATOM     21   O  Z9H D   1      42.137 115.331  71.0740  0.00  0.00     0.000 OA
ENDBRANCH 5 16
BRANCH 1 22
ATOM     22  O4  GU1 D   2      35.916 117.344  69.7740  0.00  0.00     0.000 O
BRANCH 22 26
ATOM     23  C1  GU1 D   2      36.192 117.374  65.6630  0.00  0.00     0.000 C
ATOM     24  C2  GU1 D   2      35.087 116.491  66.2240  0.00  0.00     0.000 C
ATOM     25  C3  GU1 D   2      34.841 116.853  67.6600  0.00  0.00     0.000 C
ATOM     26  C4  GU1 D   2      36.135 116.817  68.4600  0.00  0.00     0.000 C
ATOM     27  C5  GU1 D   2      37.210 117.652  67.7570  0.00  0.00     0.000 C
ATOM     28  O5  GU1 D   2      37.388 117.207  66.4150  0.00  0.00     0.000 O
ATOM     29   O  GU1 D   2      33.867 116.647  65.5100  0.00  0.00     0.000 O
ATOM     30   C  GU1 D   2      33.655 115.661  64.5100  0.00  0.00     0.000 C
ATOM     31   C  GU1 D   2      32.588 116.357  68.3450  0.00  0.00     0.000 C
ATOM     32   O  GU1 D   2      33.932 115.899  68.2170  0.00  0.00     0.000 O
BRANCH 27 33
ATOM     33   C  GU1 D   2      38.540 117.538  68.4630  0.00  0.00     0.000 C
ATOM     34   O  GU1 D   2      38.962 118.506  69.0600  0.00  0.00     0.000 OA
ATOM     35   O  GU1 D   2      39.170 116.492  68.4350  0.00  0.00     0.000 O
ENDBRANCH 27 33
BRANCH 23 36
ATOM     36  O4  GU6 D   3      36.784 117.065  64.3860  0.00  0.00     0.000 O
BRANCH 36 40
ATOM     37  C1  GU6 D   3      39.238 115.692  61.4220  0.00  0.00     0.000 C
ATOM     38  C2  GU6 D   3      38.406 116.905  61.0240  0.00  0.00     0.000 C
ATOM     39  C3  GU6 D   3      37.752 117.492  62.2470  0.00  0.00     0.000 C
ATOM     40  C4  GU6 D   3      37.826 116.723  63.4950  0.00  0.00     0.000 C
ATOM     41  C5  GU6 D   3      37.681 115.198  63.1780  0.00  0.00     0.000 C
ATOM     42  O5  GU6 D   3      38.381 114.731  62.0190  0.00  0.00     0.000 O
BRANCH 38 43
ATOM     43   O  GU6 D   3      39.215 117.879  60.3940  0.00  0.00     0.000 O
ATOM     44   S  GU6 D   3      38.731 118.303  59.0140  0.00  0.00     0.000 S
ATOM     45   O  GU6 D   3      39.184 117.302  58.0320  0.00  0.00     0.000 OA
ATOM     46   O  GU6 D   3      37.258 118.347  59.0250  0.00  0.00     0.000 O
ATOM     47   O  GU6 D   3      39.269 119.625  58.7120  0.00  0.00     0.000 OA
ENDBRANCH 38 43
BRANCH 39 48
ATOM     48   O  GU6 D   3      37.291 118.829  62.2540  0.00  0.00     0.000 O
ATOM     49   S  GU6 D   3      37.958 120.094  62.7930  0.00  0.00     0.000 S
ATOM     50   O  GU6 D   3      39.286 120.261  62.1920  0.00  0.00     0.000 OA
ATOM     51   O  GU6 D   3      37.043 121.161  62.3650  0.00  0.00     0.000 OA
ATOM     52   O  GU6 D   3      38.078 119.983  64.2640  0.00  0.00     0.000 O
ENDBRANCH 39 48
BRANCH 41 53
ATOM     53   C  GU6 D   3      36.919 114.142  63.9320  0.00  0.00     0.000 C
ATOM     54   O  GU6 D   3      37.679 114.163  65.1120  0.00  0.00     0.000 O
ATOM     55   S  GU6 D   3      37.398 113.159  66.2380  0.00  0.00     0.000 S
ATOM     56   O  GU6 D   3      37.740 111.818  65.7090  0.00  0.00     0.000 O
ATOM     57   O  GU6 D   3      38.248 113.496  67.3890  0.00  0.00     0.000 OA
ATOM     58   O  GU6 D   3      35.957 113.252  66.5600  0.00  0.00     0.000 OA
ENDBRANCH 41 53
BRANCH 37 59
ATOM     59  O4  Z9K D   4      40.446 115.739  62.2100  0.00  0.00     0.000 O
BRANCH 59 63
ATOM     60  C1  Z9K D   4      44.276 116.246  62.9350  0.00  0.00     0.000 C
ATOM     61  C2  Z9K D   4      44.267 116.200  61.3820  0.00  0.00     0.000 C
ATOM     62  C3  Z9K D   4      42.704 116.181  61.0900  0.00  0.00     0.000 C
ATOM     63  C4  Z9K D   4      41.778 115.218  61.9270  0.00  0.00     0.000 C
ATOM     64  C5  Z9K D   4      42.287 114.841  63.3270  0.00  0.00     0.000 C
ATOM     65  O5  Z9K D   4      43.020 116.027  63.7330  0.00  0.00     0.000 O
ATOM     66   O  Z9K D   4      42.385 115.896  59.7160  0.00  0.00     0.000 O
ATOM     67   C  Z9K D   4      42.391 117.032  58.8660  0.00  0.00     0.000 C
BRANCH 61 68
ATOM     68   O  Z9K D   4      44.736 117.441  60.9310  0.00  0.00     0.000 O
ATOM     69   O  Z9K D   4      45.439 115.555  59.3500  0.00  0.00     0.000 OA
ATOM     70   S  Z9K D   4      45.883 116.432  60.3910  0.00  0.00     0.000 S
ATOM     71   O  Z9K D   4      46.737 116.072  61.4800  0.00  0.00     0.000 OA
ATOM     72   O  Z9K D   4      46.300 117.688  59.8550  0.00  0.00     0.000 OA
ENDBRANCH 61 68
BRANCH 64 73
ATOM     73   C  Z9K D   4      41.129 114.343  64.2170  0.00  0.00     0.000 C
ATOM     74   O  Z9K D   4      40.682 115.049  65.1670  0.00  0.00     0.000 O
ATOM     75   O  Z9K D   4      40.584 113.228  64.0300  0.00  0.00     0.000 OA
ENDBRANCH 64 73
BRANCH 60 76
ATOM     76  O4  Z9L D   5      45.118 115.519  63.8460  0.00  0.00     0.000 O
BRANCH 76 80
ATOM     77  C1  Z9L D   5      47.101 115.735  67.3090  0.00  0.00     0.000 C
ATOM     78  C2  Z9L D   5      45.950 114.634  67.4950  0.00  0.00     0.000 C
ATOM     79  C3  Z9L D   5      45.426 114.213  65.9430  0.00  0.00     0.000 C
ATOM     80  C4  Z9L D   5      45.367 115.691  65.2170  0.00  0.00     0.000 C
ATOM     81  C5  Z9L D   5      46.426 116.906  65.2130  0.00  0.00     0.000 C
ATOM     82  O5  Z9L D   5      46.937 117.002  66.5520  0.00  0.00     0.000 O
ATOM     83   C  Z9L D   5      49.429 115.933  66.6510  0.00  0.00     0.000 C
ATOM     84   C  Z9L D   5      49.429 115.933  66.6510  0.00  0.00     0.000 C
BRANCH 78 85
ATOM     85   O  Z9L D   5      46.514 113.517  68.1040  0.00  0.00     0.000 O
ATOM     86   O  Z9L D   5      46.141 112.929  69.9000  0.00  0.00     0.000 OA
ATOM     87   S  Z9L D   5      45.471 114.000  69.2270  0.00  0.00     0.000 S
ATOM     88   O  Z9L D   5      44.126 113.524  69.0130  0.00  0.00     0.000 OA
ATOM     89   O  Z9L D   5      45.818 115.173  69.9520  0.00  0.00     0.000 OA
ENDBRANCH 78 85
BRANCH 79 90
ATOM     90   O  Z9L D   5      44.089 113.825  65.9470  0.00  0.00     0.000 O
ATOM     91   S  Z9L D   5      44.746 112.511  65.3320  0.00  0.00     0.000 S
ATOM     92   O  Z9L D   5      45.791 111.785  66.0050  0.00  0.00     0.000 OA
ATOM     93   O  Z9L D   5      44.703 112.584  63.8930  0.00  0.00     0.000 O
ATOM     94   O  Z9L D   5      43.503 111.960  65.7640  0.00  0.00     0.000 OA
ENDBRANCH 79 90
BRANCH 81 95
ATOM     95   C  Z9L D   5      45.975 118.318  64.4270  0.00  0.00     0.000 C
ATOM     96   S  Z9L D   5      45.188 120.132  64.6660  0.00  0.00     0.000 S
ATOM     97   O  Z9L D   5      44.954 118.711  65.3040  0.00  0.00     0.000 O
ATOM     98   O  Z9L D   5      44.649 120.081  63.3320  0.00  0.00     0.000 OA
ATOM     99   O  Z9L D   5      46.454 120.729  64.9320  0.00  0.00     0.000 OA
ATOM    100   O  Z9L D   5      44.123 120.474  65.5760  0.00  0.00     0.000 O
ENDBRANCH 81 95
ENDBRANCH 76 80
ENDBRANCH 60 76
ENDBRANCH 59 63
ENDBRANCH 37 59
ENDBRANCH 36 40
ENDBRANCH 23 36
ENDBRANCH 22 26
ENDBRANCH 1 22
TORSDOF 19
ENDMDL
MODEL 91
REMARK VINA RESULT:      -0.5    109.694    113.924
ROOT
ATOM      1  C1  Z9H D   1      35.488 104.184 100.3920  0.00  0.00     0.000 C
ATOM      2  C2  Z9H D   1      35.828 104.002 101.8900  0.00  0.00     0.000 C
ATOM      3  C3  Z9H D   1      35.984 105.507 102.2670  0.00  0.00     0.000 C
ATOM      4  C4  Z9H D   1      36.933 106.350 101.3190  0.00  0.00     0.000 C
ATOM      5  C5  Z9H D   1      36.845 106.300  99.7420  0.00  0.00     0.000 C
ATOM      6  O5  Z9H D   1      36.372 104.947  99.5230  0.00  0.00     0.000 O
ATOM      7   O  Z9H D   1      36.373 105.670 103.6320  0.00  0.00     0.000 O
ATOM      8   C  Z9H D   1      35.304 105.971 104.5450  0.00  0.00     0.000 C
ATOM      9   O  Z9H D   1      36.758 107.716 101.7090  0.00  0.00     0.000 O
ATOM     10   C  Z9H D   1      37.766 108.245 102.5760  0.00  0.00     0.000 C
ENDROOT
BRANCH 2 11
ATOM     11   O  Z9H D   1      34.589 103.617 102.4260  0.00  0.00     0.000 O
ATOM     12   O  Z9H D   1      34.227 101.907 103.1350  0.00  0.00     0.000 OA
ATOM     13   S  Z9H D   1      35.492 102.326 102.6330  0.00  0.00     0.000 S
ATOM     14   O  Z9H D   1      36.457 102.610 103.6560  0.00  0.00     0.000 OA
ATOM     15   O  Z9H D   1      35.779 101.668 101.3790  0.00  0.00     0.000 O
ENDBRANCH 2 11
BRANCH 5 16
ATOM     16   C  Z9H D   1      38.188 106.893  98.9370  0.00  0.00     0.000 C
ATOM     17   S  Z9H D   1      38.797 107.918  97.3200  0.00  0.00     0.000 S
ATOM     18   O  Z9H D   1      37.589 108.039  98.3830  0.00  0.00     0.000 O
ATOM     19   O  Z9H D   1      38.724 106.778  96.4510  0.00  0.00     0.000 O
ATOM     20   O  Z9H D   1      40.010 108.379  97.9010  0.00  0.00     0.000 OA
ATOM     21   O  Z9H D   1      38.116 109.054  96.7720  0.00  0.00     0.000 OA
ENDBRANCH 5 16
BRANCH 1 22
ATOM     22  O4  GU1 D   2      34.205 104.856 100.1250  0.00  0.00     0.000 O
BRANCH 22 26
ATOM     23  C1  GU1 D   2      30.955 105.035  97.5990  0.00  0.00     0.000 C
ATOM     24  C2  GU1 D   2      31.533 103.642  97.8000  0.00  0.00     0.000 C
ATOM     25  C3  GU1 D   2      32.433 103.646  99.0020  0.00  0.00     0.000 C
ATOM     26  C4  GU1 D   2      33.479 104.746  98.8950  0.00  0.00     0.000 C
ATOM     27  C5  GU1 D   2      32.803 106.085  98.5890  0.00  0.00     0.000 C
ATOM     28  O5  GU1 D   2      32.001 105.982  97.4150  0.00  0.00     0.000 O
ATOM     29   O  GU1 D   2      30.517 102.669  98.0090  0.00  0.00     0.000 O
ATOM     30   C  GU1 D   2      30.152 101.957  96.8350  0.00  0.00     0.000 C
ATOM     31   C  GU1 D   2      32.573 101.476 100.0340  0.00  0.00     0.000 C
ATOM     32   O  GU1 D   2      33.102 102.383  99.0700  0.00  0.00     0.000 O
BRANCH 27 33
ATOM     33   C  GU1 D   2      33.824 107.173  98.3570  0.00  0.00     0.000 C
ATOM     34   O  GU1 D   2      34.495 107.130  97.3470  0.00  0.00     0.000 OA
ATOM     35   O  GU1 D   2      33.965 108.075  99.1680  0.00  0.00     0.000 O
ENDBRANCH 27 33
BRANCH 23 36
ATOM     36  O4  GU6 D   3      30.259 105.357  96.3790  0.00  0.00     0.000 O
BRANCH 36 40
ATOM     37  C1  GU6 D   3      29.290 106.688  92.6390  0.00  0.00     0.000 C
ATOM     38  C2  GU6 D   3      28.105 106.607  93.5930  0.00  0.00     0.000 C
ATOM     39  C3  GU6 D   3      28.602 106.374  94.9960  0.00  0.00     0.000 C
ATOM     40  C4  GU6 D   3      30.022 106.053  95.1720  0.00  0.00     0.000 C
ATOM     41  C5  GU6 D   3      30.497 105.127  94.0040  0.00  0.00     0.000 C
ATOM     42  O5  GU6 D   3      30.005 105.463  92.7010  0.00  0.00     0.000 O
BRANCH 38 43
ATOM     43   O  GU6 D   3      27.343 107.798  93.5420  0.00  0.00     0.000 O
ATOM     44   S  GU6 D   3      25.868 107.588  93.2260  0.00  0.00     0.000 S
ATOM     45   O  GU6 D   3      25.718 107.437  91.7680  0.00  0.00     0.000 OA
ATOM     46   O  GU6 D   3      25.414 106.355  93.8940  0.00  0.00     0.000 O
ATOM     47   O  GU6 D   3      25.113 108.733  93.7230  0.00  0.00     0.000 OA
ENDBRANCH 38 43
BRANCH 39 48
ATOM     48   O  GU6 D   3      27.790 106.681  96.1140  0.00  0.00     0.000 O
ATOM     49   S  GU6 D   3      27.783 107.919  97.0100  0.00  0.00     0.000 S
ATOM     50   O  GU6 D   3      27.608 109.130  96.1990  0.00  0.00     0.000 OA
ATOM     51   O  GU6 D   3      26.623 107.692  97.8830  0.00  0.00     0.000 OA
ATOM     52   O  GU6 D   3      29.065 107.985  97.7480  0.00  0.00     0.000 O
ENDBRANCH 39 48
BRANCH 41 53
ATOM     53   C  GU6 D   3      31.415 103.936  94.0530  0.00  0.00     0.000 C
ATOM     54   O  GU6 D   3      32.586 104.612  94.4310  0.00  0.00     0.000 O
ATOM     55   S  GU6 D   3      33.922 103.863  94.5250  0.00  0.00     0.000 S
ATOM     56   O  GU6 D   3      34.274 103.444  93.1480  0.00  0.00     0.000 O
ATOM     57   O  GU6 D   3      34.936 104.780  95.0640  0.00  0.00     0.000 OA
ATOM     58   O  GU6 D   3      33.706 102.690  95.4000  0.00  0.00     0.000 OA
ENDBRANCH 41 53
BRANCH 37 59
ATOM     59  O4  Z9K D   4      30.264 107.753  92.6150  0.00  0.00     0.000 O
BRANCH 59 63
ATOM     60  C1  Z9K D   4      31.748 111.286  91.7450  0.00  0.00     0.000 C
ATOM     61  C2  Z9K D   4      30.508 111.242  90.8100  0.00  0.00     0.000 C
ATOM     62  C3  Z9K D   4      29.811 109.898  91.2970  0.00  0.00     0.000 C
ATOM     63  C4  Z9K D   4      30.695 108.612  91.5200  0.00  0.00     0.000 C
ATOM     64  C5  Z9K D   4      32.173 108.860  91.8590  0.00  0.00     0.000 C
ATOM     65  O5  Z9K D   4      32.129 110.108  92.5990  0.00  0.00     0.000 O
ATOM     66   O  Z9K D   4      28.742 109.467  90.4360  0.00  0.00     0.000 O
ATOM     67   C  Z9K D   4      27.485 110.060  90.7200  0.00  0.00     0.000 C
BRANCH 61 68
ATOM     68   O  Z9K D   4      29.661 112.288  91.2010  0.00  0.00     0.000 O
ATOM     69   O  Z9K D   4      29.531 111.885  88.6770  0.00  0.00     0.000 OA
ATOM     70   S  Z9K D   4      30.070 112.732  89.6980  0.00  0.00     0.000 S
ATOM     71   O  Z9K D   4      31.392 113.281  89.7180  0.00  0.00     0.000 OA
ATOM     72   O  Z9K D   4      29.132 113.741  90.0720  0.00  0.00     0.000 OA
ENDBRANCH 61 68
BRANCH 64 73
ATOM     73   C  Z9K D   4      32.797 107.620  92.5320  0.00  0.00     0.000 C
ATOM     74   O  Z9K D   4      33.041 106.568  91.8710  0.00  0.00     0.000 O
ATOM     75   O  Z9K D   4      33.091 107.607  93.7520  0.00  0.00     0.000 OA
ENDBRANCH 64 73
BRANCH 60 76
ATOM     76  O4  Z9L D   5      33.105 111.631  91.4150  0.00  0.00     0.000 O
BRANCH 76 80
ATOM     77  C1  Z9L D   5      36.407 113.447  92.7430  0.00  0.00     0.000 C
ATOM     78  C2  Z9L D   5      36.763 111.893  92.5720  0.00  0.00     0.000 C
ATOM     79  C3  Z9L D   5      35.553 111.222  91.5980  0.00  0.00     0.000 C
ATOM     80  C4  Z9L D   5      34.208 111.936  92.2280  0.00  0.00     0.000 C
ATOM     81  C5  Z9L D   5      33.917 113.472  92.6220  0.00  0.00     0.000 C
ATOM     82  O5  Z9L D   5      35.110 113.961  93.2520  0.00  0.00     0.000 O
ATOM     83   C  Z9L D   5      36.471 115.540  91.5150  0.00  0.00     0.000 C
ATOM     84   C  Z9L D   5      36.471 115.540  91.5150  0.00  0.00     0.000 C
BRANCH 78 85
ATOM     85   O  Z9L D   5      37.984 111.799  91.9120  0.00  0.00     0.000 O
ATOM     86   O  Z9L D   5      39.626 111.178  92.7060  0.00  0.00     0.000 OA
ATOM     87   S  Z9L D   5      38.344 111.158  93.3420  0.00  0.00     0.000 S
ATOM     88   O  Z9L D   5      38.004 109.761  93.4540  0.00  0.00     0.000 OA
ATOM     89   O  Z9L D   5      38.453 112.064  94.4330  0.00  0.00     0.000 OA
ENDBRANCH 78 85
BRANCH 79 90
ATOM     90   O  Z9L D   5      35.350 109.878  91.8950  0.00  0.00     0.000 O
ATOM     91   S  Z9L D   5      35.695 109.759  90.3440  0.00  0.00     0.000 S
ATOM     92   O  Z9L D   5      36.915 110.278  89.7850  0.00  0.00     0.000 OA
ATOM     93   O  Z9L D   5      34.471 109.759  89.5820  0.00  0.00     0.000 O
ATOM     94   O  Z9L D   5      35.949 108.411  90.7360  0.00  0.00     0.000 OA
ENDBRANCH 79 90
BRANCH 81 95
ATOM     95   C  Z9L D   5      32.438 113.815  93.3360  0.00  0.00     0.000 C
ATOM     96   S  Z9L D   5      31.491 114.078  95.0680  0.00  0.00     0.000 S
ATOM     97   O  Z9L D   5      32.647 113.143  94.5490  0.00  0.00     0.000 O
ATOM     98   O  Z9L D   5      30.268 113.590  94.4820  0.00  0.00     0.000 OA
ATOM     99   O  Z9L D   5      31.790 115.469  95.1070  0.00  0.00     0.000 OA
ATOM    100   O  Z9L D   5      31.738 113.342  96.2840  0.00  0.00     0.000 O
ENDBRANCH 81 95
ENDBRANCH 76 80
ENDBRANCH 60 76
ENDBRANCH 59 63
ENDBRANCH 37 59
ENDBRANCH 36 40
ENDBRANCH 23 36
ENDBRANCH 22 26
ENDBRANCH 1 22
TORSDOF 19
ENDMDL
MODEL 92
REMARK VINA RESULT:      -0.5    125.576    130.445
ROOT
ATOM      1  C1  Z9H D   1      41.671 131.747  93.3150  0.00  0.00     0.000 C
ATOM      2  C2  Z9H D   1      40.510 132.323  94.1600  0.00  0.00     0.000 C
ATOM      3  C3  Z9H D   1      41.357 133.198  95.1340  0.00  0.00     0.000 C
ATOM      4  C4  Z9H D   1      42.573 132.457  95.8290  0.00  0.00     0.000 C
ATOM      5  C5  Z9H D   1      43.605 131.559  95.0360  0.00  0.00     0.000 C
ATOM      6  O5  Z9H D   1      42.778 131.056  93.9570  0.00  0.00     0.000 O
ATOM      7   O  Z9H D   1      40.538 133.836  96.1160  0.00  0.00     0.000 O
ATOM      8   C  Z9H D   1      40.192 135.203  95.8350  0.00  0.00     0.000 C
ATOM      9   O  Z9H D   1      43.325 133.480  96.4900  0.00  0.00     0.000 O
ATOM     10   C  Z9H D   1      43.082 133.615  97.8940  0.00  0.00     0.000 C
ENDROOT
BRANCH 2 11
ATOM     11   O  Z9H D   1      39.922 133.233  93.2680  0.00  0.00     0.000 O
ATOM     12   O  Z9H D   1      38.201 133.027  92.5250  0.00  0.00     0.000 OA
ATOM     13   S  Z9H D   1      38.789 132.137  93.4680  0.00  0.00     0.000 S
ATOM     14   O  Z9H D   1      38.264 132.269  94.7970  0.00  0.00     0.000 OA
ATOM     15   O  Z9H D   1      39.137 130.887  92.8310  0.00  0.00     0.000 O
ENDBRANCH 2 11
BRANCH 5 16
ATOM     16   C  Z9H D   1      44.522 130.529  95.9840  0.00  0.00     0.000 C
ATOM     17   S  Z9H D   1      46.344 129.711  96.2090  0.00  0.00     0.000 S
ATOM     18   O  Z9H D   1      45.766 131.164  95.8110  0.00  0.00     0.000 O
ATOM     19   O  Z9H D   1      46.107 128.681  95.2390  0.00  0.00     0.000 O
ATOM     20   O  Z9H D   1      46.227 129.504  97.6110  0.00  0.00     0.000 OA
ATOM     21   O  Z9H D   1      47.580 130.398  95.9710  0.00  0.00     0.000 OA
ENDBRANCH 5 16
BRANCH 1 22
ATOM     22  O4  GU1 D   2      42.405 132.741  92.5130  0.00  0.00     0.000 O
BRANCH 22 26
ATOM     23  C1  GU1 D   2      44.368 133.429  88.9570  0.00  0.00     0.000 C
ATOM     24  C2  GU1 D   2      43.152 132.520  88.8520  0.00  0.00     0.000 C
ATOM     25  C3  GU1 D   2      42.321 132.655  90.0950  0.00  0.00     0.000 C
ATOM     26  C4  GU1 D   2      43.165 132.426  91.3400  0.00  0.00     0.000 C
ATOM     27  C5  GU1 D   2      44.414 133.312  91.2980  0.00  0.00     0.000 C
ATOM     28  O5  GU1 D   2      45.146 133.084  90.0970  0.00  0.00     0.000 O
ATOM     29   O  GU1 D   2      42.337 132.850  87.7340  0.00  0.00     0.000 O
ATOM     30   C  GU1 D   2      42.586 132.052  86.5850  0.00  0.00     0.000 C
ATOM     31   C  GU1 D   2      40.001 132.163  89.6890  0.00  0.00     0.000 C
ATOM     32   O  GU1 D   2      41.286 131.668  90.0560  0.00  0.00     0.000 O
BRANCH 27 33
ATOM     33   C  GU1 D   2      45.331 133.020  92.4620  0.00  0.00     0.000 C
ATOM     34   O  GU1 D   2      45.876 131.936  92.5090  0.00  0.00     0.000 OA
ATOM     35   O  GU1 D   2      45.519 133.858  93.3300  0.00  0.00     0.000 O
ENDBRANCH 27 33
BRANCH 23 36
ATOM     36  O4  GU6 D   3      45.446 133.304  88.0090  0.00  0.00     0.000 O
BRANCH 36 40
ATOM     37  C1  GU6 D   3      48.948 132.326  86.1440  0.00  0.00     0.000 C
ATOM     38  C2  GU6 D   3      48.325 133.626  85.6490  0.00  0.00     0.000 C
ATOM     39  C3  GU6 D   3      47.205 134.033  86.5710  0.00  0.00     0.000 C
ATOM     40  C4  GU6 D   3      46.773 133.066  87.5860  0.00  0.00     0.000 C
ATOM     41  C5  GU6 D   3      46.814 131.622  86.9850  0.00  0.00     0.000 C
ATOM     42  O5  GU6 D   3      47.946 131.322  86.1600  0.00  0.00     0.000 O
BRANCH 38 43
ATOM     43   O  GU6 D   3      49.297 134.652  85.5870  0.00  0.00     0.000 O
ATOM     44   S  GU6 D   3      49.422 135.319  84.2230  0.00  0.00     0.000 S
ATOM     45   O  GU6 D   3      50.270 134.474  83.3650  0.00  0.00     0.000 OA
ATOM     46   O  GU6 D   3      48.078 135.429  83.6280  0.00  0.00     0.000 O
ATOM     47   O  GU6 D   3      50.001 136.647  84.4010  0.00  0.00     0.000 OA
ENDBRANCH 38 43
BRANCH 39 48
ATOM     48   O  GU6 D   3      46.748 135.371  86.6120  0.00  0.00     0.000 O
ATOM     49   S  GU6 D   3      47.102 136.499  87.5800  0.00  0.00     0.000 S
ATOM     50   O  GU6 D   3      48.555 136.701  87.6100  0.00  0.00     0.000 OA
ATOM     51   O  GU6 D   3      46.417 137.662  87.0000  0.00  0.00     0.000 OA
ATOM     52   O  GU6 D   3      46.611 136.145  88.9300  0.00  0.00     0.000 O
ENDBRANCH 39 48
BRANCH 41 53
ATOM     53   C  GU6 D   3      45.835 130.493  87.1630  0.00  0.00     0.000 C
ATOM     54   O  GU6 D   3      46.047 130.273  88.5340  0.00  0.00     0.000 O
ATOM     55   S  GU6 D   3      45.354 129.105  89.2500  0.00  0.00     0.000 S
ATOM     56   O  GU6 D   3      45.914 127.859  88.6760  0.00  0.00     0.000 O
ATOM     57   O  GU6 D   3      45.651 129.195  90.6870  0.00  0.00     0.000 OA
ATOM     58   O  GU6 D   3      43.905 129.216  88.9700  0.00  0.00     0.000 OA
ENDBRANCH 41 53
BRANCH 37 59
ATOM     59  O4  Z9K D   4      49.715 132.186  87.3580  0.00  0.00     0.000 O
BRANCH 59 63
ATOM     60  C1  Z9K D   4      52.878 132.383  89.6840  0.00  0.00     0.000 C
ATOM     61  C2  Z9K D   4      53.519 132.599  88.2850  0.00  0.00     0.000 C
ATOM     62  C3  Z9K D   4      52.221 132.702  87.3720  0.00  0.00     0.000 C
ATOM     63  C4  Z9K D   4      51.057 131.658  87.5700  0.00  0.00     0.000 C
ATOM     64  C5  Z9K D   4      50.947 131.028  88.9660  0.00  0.00     0.000 C
ATOM     65  O5  Z9K D   4      51.410 132.093  89.8380  0.00  0.00     0.000 O
ATOM     66   O  Z9K D   4      52.513 132.668  85.9630  0.00  0.00     0.000 O
ATOM     67   C  Z9K D   4      52.842 133.928  85.4020  0.00  0.00     0.000 C
BRANCH 61 68
ATOM     68   O  Z9K D   4      54.099 133.874  88.2910  0.00  0.00     0.000 O
ATOM     69   O  Z9K D   4      55.456 132.246  86.8570  0.00  0.00     0.000 OA
ATOM     70   S  Z9K D   4      55.395 132.917  88.1200  0.00  0.00     0.000 S
ATOM     71   O  Z9K D   4      55.720 132.342  89.3890  0.00  0.00     0.000 OA
ATOM     72   O  Z9K D   4      55.963 134.224  88.0310  0.00  0.00     0.000 OA
ENDBRANCH 61 68
BRANCH 64 73
ATOM     73   C  Z9K D   4      49.537 130.443  89.1940  0.00  0.00     0.000 C
ATOM     74   O  Z9K D   4      49.161 129.389  88.6040  0.00  0.00     0.000 O
ATOM     75   O  Z9K D   4      48.715 130.983  89.9750  0.00  0.00     0.000 OA
ENDBRANCH 64 73
BRANCH 60 76
ATOM     76  O4  Z9L D   5      53.282 131.476  90.7230  0.00  0.00     0.000 O
BRANCH 76 80
ATOM     77  C1  Z9L D   5      53.722 131.051  94.6730  0.00  0.00     0.000 C
ATOM     78  C2  Z9L D   5      52.587 130.015  94.2120  0.00  0.00     0.000 C
ATOM     79  C3  Z9L D   5      52.723 129.861  92.5330  0.00  0.00     0.000 C
ATOM     80  C4  Z9L D   5      52.965 131.429  92.0900  0.00  0.00     0.000 C
ATOM     81  C5  Z9L D   5      53.944 132.557  92.6980  0.00  0.00     0.000 C
ATOM     82  O5  Z9L D   5      53.879 132.422  94.1250  0.00  0.00     0.000 O
ATOM     83   C  Z9L D   5      56.121 131.184  95.0230  0.00  0.00     0.000 C
ATOM     84   C  Z9L D   5      56.121 131.184  95.0230  0.00  0.00     0.000 C
BRANCH 78 85
ATOM     85   O  Z9L D   5      52.857 128.786  94.8070  0.00  0.00     0.000 O
ATOM     86   O  Z9L D   5      51.797 127.970  96.1920  0.00  0.00     0.000 OA
ATOM     87   S  Z9L D   5      51.455 129.171  95.4920  0.00  0.00     0.000 S
ATOM     88   O  Z9L D   5      50.305 128.824  94.6950  0.00  0.00     0.000 OA
ATOM     89   O  Z9L D   5      51.491 130.200  96.4730  0.00  0.00     0.000 OA
ENDBRANCH 78 85
BRANCH 79 90
ATOM     90   O  Z9L D   5      51.493 129.568  91.9500  0.00  0.00     0.000 O
ATOM     91   S  Z9L D   5      52.333 128.311  91.4490  0.00  0.00     0.000 S
ATOM     92   O  Z9L D   5      53.016 127.429  92.3580  0.00  0.00     0.000 OA
ATOM     93   O  Z9L D   5      52.869 128.586  90.1390  0.00  0.00     0.000 O
ATOM     94   O  Z9L D   5      51.016 127.791  91.2650  0.00  0.00     0.000 OA
ENDBRANCH 79 90
BRANCH 81 95
ATOM     95   C  Z9L D   5      53.850 134.095  92.0350  0.00  0.00     0.000 C
ATOM     96   S  Z9L D   5      53.044 135.906  92.2350  0.00  0.00     0.000 S
ATOM     97   O  Z9L D   5      52.567 134.427  92.4950  0.00  0.00     0.000 O
ATOM     98   O  Z9L D   5      53.077 136.086  90.8070  0.00  0.00     0.000 OA
ATOM     99   O  Z9L D   5      54.104 136.369  93.0650  0.00  0.00     0.000 OA
ATOM    100   O  Z9L D   5      51.707 136.185  92.6990  0.00  0.00     0.000 O
ENDBRANCH 81 95
ENDBRANCH 76 80
ENDBRANCH 60 76
ENDBRANCH 59 63
ENDBRANCH 37 59
ENDBRANCH 36 40
ENDBRANCH 23 36
ENDBRANCH 22 26
ENDBRANCH 1 22
TORSDOF 19
ENDMDL
MODEL 93
REMARK VINA RESULT:      -0.5     95.849    100.898
ROOT
ATOM      1  C1  Z9H D   1      16.354  35.369 114.3460  0.00  0.00     0.000 C
ATOM      2  C2  Z9H D   1      16.685  35.239 115.8520  0.00  0.00     0.000 C
ATOM      3  C3  Z9H D   1      15.467  36.032 116.4160  0.00  0.00     0.000 C
ATOM      4  C4  Z9H D   1      15.220  37.454 115.7630  0.00  0.00     0.000 C
ATOM      5  C5  Z9H D   1      15.216  37.699 114.2010  0.00  0.00     0.000 C
ATOM      6  O5  Z9H D   1      16.142  36.679 113.7490  0.00  0.00     0.000 O
ATOM      7   O  Z9H D   1      15.525  36.143 117.8400  0.00  0.00     0.000 O
ATOM      8   C  Z9H D   1      14.726  35.193 118.5650  0.00  0.00     0.000 C
ATOM      9   O  Z9H D   1      13.954  37.898 116.2630  0.00  0.00     0.000 O
ATOM     10   C  Z9H D   1      14.011  38.818 117.3570  0.00  0.00     0.000 C
ENDROOT
BRANCH 2 11
ATOM     11   O  Z9H D   1      16.389  33.889 116.1000  0.00  0.00     0.000 O
ATOM     12   O  Z9H D   1      17.680  32.583 116.5300  0.00  0.00     0.000 OA
ATOM     13   S  Z9H D   1      17.960  33.964 116.3230  0.00  0.00     0.000 S
ATOM     14   O  Z9H D   1      18.210  34.694 117.5330  0.00  0.00     0.000 OA
ATOM     15   O  Z9H D   1      18.668  34.154 115.0770  0.00  0.00     0.000 O
ENDBRANCH 2 11
BRANCH 5 16
ATOM     16   C  Z9H D   1      15.385  39.297 113.7340  0.00  0.00     0.000 C
ATOM     17   S  Z9H D   1      14.777  40.680 112.4080  0.00  0.00     0.000 S
ATOM     18   O  Z9H D   1      14.077  39.495 113.2520  0.00  0.00     0.000 O
ATOM     19   O  Z9H D   1      15.683  40.238 111.3870  0.00  0.00     0.000 O
ATOM     20   O  Z9H D   1      15.034  41.796 113.2490  0.00  0.00     0.000 OA
ATOM     21   O  Z9H D   1      13.435  40.802 111.9170  0.00  0.00     0.000 OA
ENDBRANCH 5 16
BRANCH 1 22
ATOM     22  O4  GU1 D   2      15.123  34.680 113.9210  0.00  0.00     0.000 O
BRANCH 22 26
ATOM     23  C1  GU1 D   2      13.317  32.581 110.8700  0.00  0.00     0.000 C
ATOM     24  C2  GU1 D   2      14.809  32.328 111.0240  0.00  0.00     0.000 C
ATOM     25  C3  GU1 D   2      15.262  32.828 112.3660  0.00  0.00     0.000 C
ATOM     26  C4  GU1 D   2      14.851  34.279 112.5720  0.00  0.00     0.000 C
ATOM     27  C5  GU1 D   2      13.354  34.445 112.2920  0.00  0.00     0.000 C
ATOM     28  O5  GU1 D   2      13.036  33.971 110.9860  0.00  0.00     0.000 O
ATOM     29   O  GU1 D   2      15.126  30.944 110.9360  0.00  0.00     0.000 O
ATOM     30   C  GU1 D   2      15.555  30.534 109.6450  0.00  0.00     0.000 C
ATOM     31   C  GU1 D   2      17.196  31.642 113.1670  0.00  0.00     0.000 C
ATOM     32   O  GU1 D   2      16.689  32.745 112.4200  0.00  0.00     0.000 O
BRANCH 27 33
ATOM     33   C  GU1 D   2      12.941  35.895 112.3720  0.00  0.00     0.000 C
ATOM     34   O  GU1 D   2      13.320  36.652 111.5020  0.00  0.00     0.000 OA
ATOM     35   O  GU1 D   2      12.238  36.291 113.2890  0.00  0.00     0.000 O
ENDBRANCH 27 33
BRANCH 23 36
ATOM     36  O4  GU6 D   3      12.687  32.418 109.5840  0.00  0.00     0.000 O
BRANCH 36 40
ATOM     37  C1  GU6 D   3      11.035  33.061 105.9020  0.00  0.00     0.000 C
ATOM     38  C2  GU6 D   3      10.495  31.828 106.6160  0.00  0.00     0.000 C
ATOM     39  C3  GU6 D   3      10.955  31.833 108.0510  0.00  0.00     0.000 C
ATOM     40  C4  GU6 D   3      11.965  32.824 108.4390  0.00  0.00     0.000 C
ATOM     41  C5  GU6 D   3      12.999  32.998 107.2780  0.00  0.00     0.000 C
ATOM     42  O5  GU6 D   3      12.453  33.028 105.9540  0.00  0.00     0.000 O
BRANCH 38 43
ATOM     43   O  GU6 D   3       9.081  31.802 106.5630  0.00  0.00     0.000 O
ATOM     44   S  GU6 D   3       8.498  30.528 105.9650  0.00  0.00     0.000 S
ATOM     45   O  GU6 D   3       8.544  30.635 104.4970  0.00  0.00     0.000 OA
ATOM     46   O  GU6 D   3       9.321  29.385 106.4000  0.00  0.00     0.000 O
ATOM     47   O  GU6 D   3       7.128  30.368 106.4440  0.00  0.00     0.000 OA
ENDBRANCH 38 43
BRANCH 39 48
ATOM     48   O  GU6 D   3      10.276  31.075 109.0340  0.00  0.00     0.000 O
ATOM     49   S  GU6 D   3       9.214  31.507 110.0440  0.00  0.00     0.000 S
ATOM     50   O  GU6 D   3       8.084  32.138 109.3510  0.00  0.00     0.000 OA
ATOM     51   O  GU6 D   3       8.813  30.238 110.6670  0.00  0.00     0.000 OA
ATOM     52   O  GU6 D   3       9.819  32.461 110.9990  0.00  0.00     0.000 O
ENDBRANCH 39 48
BRANCH 41 53
ATOM     53   C  GU6 D   3      14.494  33.155 107.3570  0.00  0.00     0.000 C
ATOM     54   O  GU6 D   3      14.521  34.386 108.0320  0.00  0.00     0.000 O
ATOM     55   S  GU6 D   3      15.853  35.103 108.2890  0.00  0.00     0.000 S
ATOM     56   O  GU6 D   3      16.387  35.500 106.9650  0.00  0.00     0.000 O
ATOM     57   O  GU6 D   3      15.594  36.287 109.1210  0.00  0.00     0.000 OA
ATOM     58   O  GU6 D   3      16.752  34.135 108.9570  0.00  0.00     0.000 OA
ENDBRANCH 41 53
BRANCH 37 59
ATOM     59  O4  Z9K D   4      10.627  34.419 106.1690  0.00  0.00     0.000 O
BRANCH 59 63
ATOM     60  C1  Z9K D   4       8.373  37.633 105.9710  0.00  0.00     0.000 C
ATOM     61  C2  Z9K D   4       7.765  36.768 104.8330  0.00  0.00     0.000 C
ATOM     62  C3  Z9K D   4       8.554  35.402 105.0370  0.00  0.00     0.000 C
ATOM     63  C4  Z9K D   4      10.112  35.443 105.2700  0.00  0.00     0.000 C
ATOM     64  C5  Z9K D   4      10.668  36.734 105.8890  0.00  0.00     0.000 C
ATOM     65  O5  Z9K D   4       9.581  37.176 106.7430  0.00  0.00     0.000 O
ATOM     66   O  Z9K D   4       8.365  34.469 103.9580  0.00  0.00     0.000 O
ATOM     67   C  Z9K D   4       7.207  33.659 104.0800  0.00  0.00     0.000 C
BRANCH 61 68
ATOM     68   O  Z9K D   4       6.432  36.508 105.1810  0.00  0.00     0.000 O
ATOM     69   O  Z9K D   4       6.701  36.723 102.6450  0.00  0.00     0.000 OA
ATOM     70   S  Z9K D   4       6.261  37.390 103.8340  0.00  0.00     0.000 S
ATOM     71   O  Z9K D   4       6.478  38.769 104.1480  0.00  0.00     0.000 OA
ATOM     72   O  Z9K D   4       4.913  37.039 104.1450  0.00  0.00     0.000 OA
ENDBRANCH 61 68
BRANCH 64 73
ATOM     73   C  Z9K D   4      12.055  36.487 106.5210  0.00  0.00     0.000 C
ATOM     74   O  Z9K D   4      13.079  36.301 105.8010  0.00  0.00     0.000 O
ATOM     75   O  Z9K D   4      12.221  36.468 107.7650  0.00  0.00     0.000 OA
ENDBRANCH 64 73
BRANCH 60 76
ATOM     76  O4  Z9L D   5       8.782  39.011 105.9260  0.00  0.00     0.000 O
BRANCH 76 80
ATOM     77  C1  Z9L D   5       8.816  42.454 107.9550  0.00  0.00     0.000 C
ATOM     78  C2  Z9L D   5      10.343  41.998 107.7780  0.00  0.00     0.000 C
ATOM     79  C3  Z9L D   5      10.362  40.828 106.5560  0.00  0.00     0.000 C
ATOM     80  C4  Z9L D   5       9.033  39.938 106.9510  0.00  0.00     0.000 C
ATOM     81  C5  Z9L D   5       7.541  40.395 107.3580  0.00  0.00     0.000 C
ATOM     82  O5  Z9L D   5       7.689  41.526 108.2300  0.00  0.00     0.000 O
ATOM     83   C  Z9L D   5       7.115  43.802 106.8690  0.00  0.00     0.000 C
ATOM     84   C  Z9L D   5       7.115  43.802 106.8690  0.00  0.00     0.000 C
BRANCH 78 85
ATOM     85   O  Z9L D   5      11.079  43.103 107.3620  0.00  0.00     0.000 O
ATOM     86   O  Z9L D   5      12.401  44.016 108.4240  0.00  0.00     0.000 OA
ATOM     87   S  Z9L D   5      11.735  42.807 108.7990  0.00  0.00     0.000 S
ATOM     88   O  Z9L D   5      12.758  41.791 108.7720  0.00  0.00     0.000 OA
ATOM     89   O  Z9L D   5      10.951  43.148 109.9350  0.00  0.00     0.000 OA
ENDBRANCH 78 85
BRANCH 79 90
ATOM     90   O  Z9L D   5      11.400  39.919 106.7410  0.00  0.00     0.000 O
ATOM     91   S  Z9L D   5      11.775  40.462 105.2920  0.00  0.00     0.000 S
ATOM     92   O  Z9L D   5      11.978  41.861 105.0210  0.00  0.00     0.000 OA
ATOM     93   O  Z9L D   5      11.210  39.588 104.2940  0.00  0.00     0.000 O
ATOM     94   O  Z9L D   5      13.041  39.915 105.6630  0.00  0.00     0.000 OA
ENDBRANCH 79 90
BRANCH 81 95
ATOM     95   C  Z9L D   5       6.458  39.190 107.7900  0.00  0.00     0.000 C
ATOM     96   S  Z9L D   5       5.656  38.196 109.3190  0.00  0.00     0.000 S
ATOM     97   O  Z9L D   5       7.074  38.793 108.9860  0.00  0.00     0.000 O
ATOM     98   O  Z9L D   5       5.490  37.033 108.4850  0.00  0.00     0.000 OA
ATOM     99   O  Z9L D   5       4.607  39.145 109.4830  0.00  0.00     0.000 OA
ATOM    100   O  Z9L D   5       6.347  37.800 110.5210  0.00  0.00     0.000 O
ENDBRANCH 81 95
ENDBRANCH 76 80
ENDBRANCH 60 76
ENDBRANCH 59 63
ENDBRANCH 37 59
ENDBRANCH 36 40
ENDBRANCH 23 36
ENDBRANCH 22 26
ENDBRANCH 1 22
TORSDOF 19
ENDMDL
MODEL 94
REMARK VINA RESULT:      -0.5     71.281     78.924
ROOT
ATOM      1  C1  Z9H D   1       9.938 109.251  12.6340  0.00  0.00     0.000 C
ATOM      2  C2  Z9H D   1       8.743 108.627  11.8750  0.00  0.00     0.000 C
ATOM      3  C3  Z9H D   1       8.174 109.934  11.2440  0.00  0.00     0.000 C
ATOM      4  C4  Z9H D   1       7.953 111.136  12.2530  0.00  0.00     0.000 C
ATOM      5  C5  Z9H D   1       9.043 111.594  13.3020  0.00  0.00     0.000 C
ATOM      6  O5  Z9H D   1       9.727 110.344  13.5700  0.00  0.00     0.000 O
ATOM      7   O  Z9H D   1       6.979 109.683  10.5010  0.00  0.00     0.000 O
ATOM      8   C  Z9H D   1       7.153 109.554   9.0800  0.00  0.00     0.000 C
ATOM      9   O  Z9H D   1       7.644 112.273  11.4410  0.00  0.00     0.000 O
ATOM     10   C  Z9H D   1       6.253 112.593  11.3300  0.00  0.00     0.000 C
ENDROOT
BRANCH 2 11
ATOM     11   O  Z9H D   1       9.383 107.959  10.8200  0.00  0.00     0.000 O
ATOM     12   O  Z9H D   1       9.435 106.083  10.6280  0.00  0.00     0.000 OA
ATOM     13   S  Z9H D   1       8.749 106.775  11.6670  0.00  0.00     0.000 S
ATOM     14   O  Z9H D   1       7.324 106.811  11.4970  0.00  0.00     0.000 OA
ATOM     15   O  Z9H D   1       9.431 106.595  12.9280  0.00  0.00     0.000 O
ENDBRANCH 2 11
BRANCH 5 16
ATOM     16   C  Z9H D   1       8.468 112.556  14.5460  0.00  0.00     0.000 C
ATOM     17   S  Z9H D   1       8.886 114.146  15.7020  0.00  0.00     0.000 S
ATOM     18   O  Z9H D   1       9.064 113.766  14.1430  0.00  0.00     0.000 O
ATOM     19   O  Z9H D   1       9.711 113.393  16.6040  0.00  0.00     0.000 O
ATOM     20   O  Z9H D   1       7.530 114.473  15.9760  0.00  0.00     0.000 OA
ATOM     21   O  Z9H D   1       9.540 115.336  15.2440  0.00  0.00     0.000 OA
ENDBRANCH 5 16
BRANCH 1 22
ATOM     22  O4  GU1 D   2      10.982 109.833  11.7720  0.00  0.00     0.000 O
BRANCH 22 26
ATOM     23  C1  GU1 D   2      15.026 110.495  11.3530  0.00  0.00     0.000 C
ATOM     24  C2  GU1 D   2      14.660 109.178  12.0200  0.00  0.00     0.000 C
ATOM     25  C3  GU1 D   2      13.209 108.882  11.7710  0.00  0.00     0.000 C
ATOM     26  C4  GU1 D   2      12.335 110.056  12.1870  0.00  0.00     0.000 C
ATOM     27  C5  GU1 D   2      12.851 111.347  11.5450  0.00  0.00     0.000 C
ATOM     28  O5  GU1 D   2      14.224 111.551  11.8680  0.00  0.00     0.000 O
ATOM     29   O  GU1 D   2      15.428 108.093  11.5140  0.00  0.00     0.000 O
ATOM     30   C  GU1 D   2      16.559 107.769  12.3110  0.00  0.00     0.000 C
ATOM     31   C  GU1 D   2      12.747 106.520  11.8180  0.00  0.00     0.000 C
ATOM     32   O  GU1 D   2      12.841 107.739  12.5510  0.00  0.00     0.000 O
BRANCH 27 33
ATOM     33   C  GU1 D   2      12.077 112.548  12.0340  0.00  0.00     0.000 C
ATOM     34   O  GU1 D   2      11.329 113.108  11.2590  0.00  0.00     0.000 OA
ATOM     35   O  GU1 D   2      12.201 112.940  13.1840  0.00  0.00     0.000 O
ENDBRANCH 27 33
BRANCH 23 36
ATOM     36  O4  GU6 D   3      16.290 111.124  11.6460  0.00  0.00     0.000 O
BRANCH 36 40
ATOM     37  C1  GU6 D   3      19.232 113.493  13.2030  0.00  0.00     0.000 C
ATOM     38  C2  GU6 D   3      19.530 112.979  11.7990  0.00  0.00     0.000 C
ATOM     39  C3  GU6 D   3      18.288 112.355  11.2170  0.00  0.00     0.000 C
ATOM     40  C4  GU6 D   3      17.145 112.148  12.1130  0.00  0.00     0.000 C
ATOM     41  C5  GU6 D   3      17.660 111.710  13.5240  0.00  0.00     0.000 C
ATOM     42  O5  GU6 D   3      18.819 112.399  14.0070  0.00  0.00     0.000 O
BRANCH 38 43
ATOM     43   O  GU6 D   3      19.976 114.033  10.9680  0.00  0.00     0.000 O
ATOM     44   S  GU6 D   3      21.321 113.781  10.3000  0.00  0.00     0.000 S
ATOM     45   O  GU6 D   3      22.390 114.098  11.2630  0.00  0.00     0.000 OA
ATOM     46   O  GU6 D   3      21.403 112.356   9.9290  0.00  0.00     0.000 O
ATOM     47   O  GU6 D   3      21.417 114.614   9.1060  0.00  0.00     0.000 OA
ENDBRANCH 38 43
BRANCH 39 48
ATOM     48   O  GU6 D   3      18.145 112.192   9.8190  0.00  0.00     0.000 O
ATOM     49   S  GU6 D   3      17.407 113.061   8.8010  0.00  0.00     0.000 S
ATOM     50   O  GU6 D   3      17.892 114.444   8.8700  0.00  0.00     0.000 OA
ATOM     51   O  GU6 D   3      17.758 112.439   7.5160  0.00  0.00     0.000 OA
ATOM     52   O  GU6 D   3      15.957 113.017   9.0940  0.00  0.00     0.000 O
ENDBRANCH 39 48
BRANCH 41 53
ATOM     53   C  GU6 D   3      17.097 110.673  14.4580  0.00  0.00     0.000 C
ATOM     54   O  GU6 D   3      15.883 111.316  14.7470  0.00  0.00     0.000 O
ATOM     55   S  GU6 D   3      14.918 110.726  15.7840  0.00  0.00     0.000 S
ATOM     56   O  GU6 D   3      15.598 110.811  17.0970  0.00  0.00     0.000 O
ATOM     57   O  GU6 D   3      13.684 111.526  15.7850  0.00  0.00     0.000 OA
ATOM     58   O  GU6 D   3      14.671 109.317  15.4030  0.00  0.00     0.000 OA
ENDBRANCH 41 53
BRANCH 37 59
ATOM     59  O4  Z9K D   4      18.365 114.605  13.5120  0.00  0.00     0.000 O
BRANCH 59 63
ATOM     60  C1  Z9K D   4      17.324 118.368  13.9610  0.00  0.00     0.000 C
ATOM     61  C2  Z9K D   4      18.867 118.496  13.8330  0.00  0.00     0.000 C
ATOM     62  C3  Z9K D   4      19.265 117.000  13.4690  0.00  0.00     0.000 C
ATOM     63  C4  Z9K D   4      18.621 115.814  14.2840  0.00  0.00     0.000 C
ATOM     64  C5  Z9K D   4      17.250 116.096  14.9170  0.00  0.00     0.000 C
ATOM     65  O5  Z9K D   4      16.647 117.025  13.9770  0.00  0.00     0.000 O
ATOM     66   O  Z9K D   4      20.682 116.759  13.5230  0.00  0.00     0.000 O
ATOM     67   C  Z9K D   4      21.378 117.088  12.3320  0.00  0.00     0.000 C
BRANCH 61 68
ATOM     68   O  Z9K D   4      19.124 119.261  12.6880  0.00  0.00     0.000 O
ATOM     69   O  Z9K D   4      20.883 119.685  14.4980  0.00  0.00     0.000 OA
ATOM     70   S  Z9K D   4      19.711 120.209  13.8630  0.00  0.00     0.000 S
ATOM     71   O  Z9K D   4      18.622 120.861  14.5240  0.00  0.00     0.000 OA
ATOM     72   O  Z9K D   4      20.053 120.935  12.6820  0.00  0.00     0.000 OA
ENDBRANCH 61 68
BRANCH 64 73
ATOM     73   C  Z9K D   4      16.511 114.779  15.2360  0.00  0.00     0.000 C
ATOM     74   O  Z9K D   4      15.515 114.404  14.5510  0.00  0.00     0.000 O
ATOM     75   O  Z9K D   4      16.871 114.030  16.1770  0.00  0.00     0.000 OA
ENDBRANCH 64 73
BRANCH 60 76
ATOM     76  O4  Z9L D   5      16.458 118.945  14.9530  0.00  0.00     0.000 O
BRANCH 76 80
ATOM     77  C1  Z9L D   5      12.874 120.603  15.5700  0.00  0.00     0.000 C
ATOM     78  C2  Z9L D   5      12.900 119.223  16.3870  0.00  0.00     0.000 C
ATOM     79  C3  Z9L D   5      14.523 118.761  16.5080  0.00  0.00     0.000 C
ATOM     80  C4  Z9L D   5      15.062 119.100  14.9890  0.00  0.00     0.000 C
ATOM     81  C5  Z9L D   5      14.848 120.400  14.0590  0.00  0.00     0.000 C
ATOM     82  O5  Z9L D   5      13.478 120.795  14.2270  0.00  0.00     0.000 O
ATOM     83   C  Z9L D   5      13.352 122.966  15.8490  0.00  0.00     0.000 C
ATOM     84   C  Z9L D   5      13.352 122.966  15.8490  0.00  0.00     0.000 C
BRANCH 78 85
ATOM     85   O  Z9L D   5      12.398 119.466  17.6620  0.00  0.00     0.000 O
ATOM     86   O  Z9L D   5      10.726 118.794  18.3400  0.00  0.00     0.000 OA
ATOM     87   S  Z9L D   5      11.304 118.445  17.0780  0.00  0.00     0.000 S
ATOM     88   O  Z9L D   5      11.675 117.058  17.2080  0.00  0.00     0.000 OA
ATOM     89   O  Z9L D   5      10.411 118.964  16.1010  0.00  0.00     0.000 OA
ENDBRANCH 78 85
BRANCH 79 90
ATOM     90   O  Z9L D   5      14.653 117.377  16.5740  0.00  0.00     0.000 O
ATOM     91   S  Z9L D   5      15.372 117.777  17.9370  0.00  0.00     0.000 S
ATOM     92   O  Z9L D   5      14.722 118.567  18.9490  0.00  0.00     0.000 OA
ATOM     93   O  Z9L D   5      16.793 117.882  17.7130  0.00  0.00     0.000 O
ATOM     94   O  Z9L D   5      15.091 116.408  18.2240  0.00  0.00     0.000 OA
ENDBRANCH 79 90
BRANCH 81 95
ATOM     95   C  Z9L D   5      15.481 120.348  12.5070  0.00  0.00     0.000 C
ATOM     96   S  Z9L D   5      15.088 119.909  10.6040  0.00  0.00     0.000 S
ATOM     97   O  Z9L D   5      14.679 119.314  12.0040  0.00  0.00     0.000 O
ATOM     98   O  Z9L D   5      16.469 119.559  10.3920  0.00  0.00     0.000 OA
ATOM     99   O  Z9L D   5      14.604 121.219  10.3230  0.00  0.00     0.000 OA
ATOM    100   O  Z9L D   5      14.265 118.818  10.1450  0.00  0.00     0.000 O
ENDBRANCH 81 95
ENDBRANCH 76 80
ENDBRANCH 60 76
ENDBRANCH 59 63
ENDBRANCH 37 59
ENDBRANCH 36 40
ENDBRANCH 23 36
ENDBRANCH 22 26
ENDBRANCH 1 22
TORSDOF 19
ENDMDL
MODEL 95
REMARK VINA RESULT:      -0.5    118.617    125.002
ROOT
ATOM      1  C1  Z9H D   1      65.469 137.126  67.4860  0.00  0.00     0.000 C
ATOM      2  C2  Z9H D   1      65.186 138.597  67.0960  0.00  0.00     0.000 C
ATOM      3  C3  Z9H D   1      66.620 139.166  67.3180  0.00  0.00     0.000 C
ATOM      4  C4  Z9H D   1      67.282 138.813  68.7140  0.00  0.00     0.000 C
ATOM      5  C5  Z9H D   1      67.290 137.354  69.3230  0.00  0.00     0.000 C
ATOM      6  O5  Z9H D   1      66.063 136.808  68.7750  0.00  0.00     0.000 O
ATOM      7   O  Z9H D   1      66.669 140.575  67.0870  0.00  0.00     0.000 O
ATOM      8   C  Z9H D   1      67.152 140.971  65.7930  0.00  0.00     0.000 C
ATOM      9   O  Z9H D   1      68.646 139.237  68.6160  0.00  0.00     0.000 O
ATOM     10   C  Z9H D   1      68.942 140.504  69.2120  0.00  0.00     0.000 C
ENDROOT
BRANCH 2 11
ATOM     11   O  Z9H D   1      65.040 138.506  65.7030  0.00  0.00     0.000 O
ATOM     12   O  Z9H D   1      63.414 138.777  64.7870  0.00  0.00     0.000 OA
ATOM     13   S  Z9H D   1      63.586 138.913  66.1940  0.00  0.00     0.000 S
ATOM     14   O  Z9H D   1      63.627 140.275  66.6450  0.00  0.00     0.000 OA
ATOM     15   O  Z9H D   1      62.933 137.827  66.8890  0.00  0.00     0.000 O
ENDBRANCH 2 11
BRANCH 5 16
ATOM     16   C  Z9H D   1      67.625 137.271  70.9600  0.00  0.00     0.000 C
ATOM     17   S  Z9H D   1      68.579 136.210  72.3760  0.00  0.00     0.000 S
ATOM     18   O  Z9H D   1      68.899 136.679  70.8650  0.00  0.00     0.000 O
ATOM     19   O  Z9H D   1      67.525 135.244  72.4970  0.00  0.00     0.000 O
ATOM     20   O  Z9H D   1      68.743 137.300  73.2740  0.00  0.00     0.000 OA
ATOM     21   O  Z9H D   1      69.859 135.589  72.2050  0.00  0.00     0.000 OA
ENDBRANCH 5 16
BRANCH 1 22
ATOM     22  O4  GU1 D   2      66.388 136.412  66.5830  0.00  0.00     0.000 O
BRANCH 22 26
ATOM     23  C1  GU1 D   2      67.306 132.769  64.8930  0.00  0.00     0.000 C
ATOM     24  C2  GU1 D   2      65.819 133.035  65.0720  0.00  0.00     0.000 C
ATOM     25  C3  GU1 D   2      65.602 134.499  65.3240  0.00  0.00     0.000 C
ATOM     26  C4  GU1 D   2      66.466 134.985  66.4790  0.00  0.00     0.000 C
ATOM     27  C5  GU1 D   2      67.924 134.577  66.2510  0.00  0.00     0.000 C
ATOM     28  O5  GU1 D   2      68.023 133.169  66.0550  0.00  0.00     0.000 O
ATOM     29   O  GU1 D   2      65.070 132.667  63.9200  0.00  0.00     0.000 O
ATOM     30   C  GU1 D   2      64.483 131.376  64.0030  0.00  0.00     0.000 C
ATOM     31   C  GU1 D   2      63.421 135.227  64.6140  0.00  0.00     0.000 C
ATOM     32   O  GU1 D   2      64.227 134.700  65.6650  0.00  0.00     0.000 O
BRANCH 27 33
ATOM     33   C  GU1 D   2      68.785 134.940  67.4370  0.00  0.00     0.000 C
ATOM     34   O  GU1 D   2      68.657 134.301  68.4610  0.00  0.00     0.000 OA
ATOM     35   O  GU1 D   2      69.592 135.854  67.3620  0.00  0.00     0.000 O
ENDBRANCH 27 33
BRANCH 23 36
ATOM     36  O4  GU6 D   3      67.800 131.415  64.8830  0.00  0.00     0.000 O
BRANCH 36 40
ATOM     37  C1  GU6 D   3      69.411 127.809  65.9290  0.00  0.00     0.000 C
ATOM     38  C2  GU6 D   3      69.562 128.149  64.4510  0.00  0.00     0.000 C
ATOM     39  C3  GU6 D   3      69.189 129.591  64.2240  0.00  0.00     0.000 C
ATOM     40  C4  GU6 D   3      68.564 130.316  65.3360  0.00  0.00     0.000 C
ATOM     41  C5  GU6 D   3      67.590 129.360  66.1010  0.00  0.00     0.000 C
ATOM     42  O5  GU6 D   3      68.060 128.023  66.3060  0.00  0.00     0.000 O
BRANCH 38 43
ATOM     43   O  GU6 D   3      70.890 127.920  64.0220  0.00  0.00     0.000 O
ATOM     44   S  GU6 D   3      71.012 126.991  62.8210  0.00  0.00     0.000 S
ATOM     45   O  GU6 D   3      70.934 125.599  63.2960  0.00  0.00     0.000 OA
ATOM     46   O  GU6 D   3      69.891 127.260  61.9030  0.00  0.00     0.000 O
ATOM     47   O  GU6 D   3      72.282 127.254  62.1500  0.00  0.00     0.000 OA
ENDBRANCH 38 43
BRANCH 39 48
ATOM     48   O  GU6 D   3      69.634 130.283  63.0740  0.00  0.00     0.000 O
ATOM     49   S  GU6 D   3      70.819 131.232  62.8970  0.00  0.00     0.000 S
ATOM     50   O  GU6 D   3      72.060 130.575  63.3220  0.00  0.00     0.000 OA
ATOM     51   O  GU6 D   3      70.824 131.492  61.4500  0.00  0.00     0.000 OA
ATOM     52   O  GU6 D   3      70.585 132.448  63.7070  0.00  0.00     0.000 O
ENDBRANCH 39 48
BRANCH 41 53
ATOM     53   C  GU6 D   3      66.227 129.653  66.6680  0.00  0.00     0.000 C
ATOM     54   O  GU6 D   3      66.624 130.568  67.6560  0.00  0.00     0.000 O
ATOM     55   S  GU6 D   3      65.602 131.131  68.6530  0.00  0.00     0.000 S
ATOM     56   O  GU6 D   3      65.151 129.994  69.4900  0.00  0.00     0.000 O
ATOM     57   O  GU6 D   3      66.264 132.153  69.4760  0.00  0.00     0.000 OA
ATOM     58   O  GU6 D   3      64.480 131.688  67.8640  0.00  0.00     0.000 OA
ENDBRANCH 41 53
BRANCH 37 59
ATOM     59  O4  Z9K D   4      70.240 128.330  66.9880  0.00  0.00     0.000 O
BRANCH 59 63
ATOM     60  C1  Z9K D   4      73.396 128.601  69.3150  0.00  0.00     0.000 C
ATOM     61  C2  Z9K D   4      73.640 127.225  68.6360  0.00  0.00     0.000 C
ATOM     62  C3  Z9K D   4      72.465 127.205  67.5650  0.00  0.00     0.000 C
ATOM     63  C4  Z9K D   4      71.015 127.636  68.0090  0.00  0.00     0.000 C
ATOM     64  C5  Z9K D   4      70.933 128.603  69.1990  0.00  0.00     0.000 C
ATOM     65  O5  Z9K D   4      72.144 129.392  69.0570  0.00  0.00     0.000 O
ATOM     66   O  Z9K D   4      72.292 125.923  66.9330  0.00  0.00     0.000 O
ATOM     67   C  Z9K D   4      73.132 125.706  65.8120  0.00  0.00     0.000 C
BRANCH 61 68
ATOM     68   O  Z9K D   4      74.833 127.332  67.9080  0.00  0.00     0.000 O
ATOM     69   O  Z9K D   4      74.534 124.973  68.8540  0.00  0.00     0.000 OA
ATOM     70   S  Z9K D   4      75.218 126.220  69.0210  0.00  0.00     0.000 S
ATOM     71   O  Z9K D   4      75.469 126.875  70.2670  0.00  0.00     0.000 OA
ATOM     72   O  Z9K D   4      76.395 126.267  68.2140  0.00  0.00     0.000 OA
ENDBRANCH 61 68
BRANCH 64 73
ATOM     73   C  Z9K D   4      69.572 129.331  69.2230  0.00  0.00     0.000 C
ATOM     74   O  Z9K D   4      69.476 130.553  68.9100  0.00  0.00     0.000 O
ATOM     75   O  Z9K D   4      68.512 128.740  69.5450  0.00  0.00     0.000 OA
ENDBRANCH 64 73
BRANCH 60 76
ATOM     76  O4  Z9L D   5      73.452 128.929  70.7140  0.00  0.00     0.000 O
BRANCH 76 80
ATOM     77  C1  Z9L D   5      74.457 131.767  73.3420  0.00  0.00     0.000 C
ATOM     78  C2  Z9L D   5      72.872 131.558  73.4600  0.00  0.00     0.000 C
ATOM     79  C3  Z9L D   5      72.520 130.081  72.7140  0.00  0.00     0.000 C
ATOM     80  C4  Z9L D   5      73.477 130.167  71.3760  0.00  0.00     0.000 C
ATOM     81  C5  Z9L D   5      75.021 130.601  71.2110  0.00  0.00     0.000 C
ATOM     82  O5  Z9L D   5      75.215 131.739  72.0650  0.00  0.00     0.000 O
ATOM     83   C  Z9L D   5      76.539 130.975  74.3060  0.00  0.00     0.000 C
ATOM     84   C  Z9L D   5      76.539 130.975  74.3060  0.00  0.00     0.000 C
BRANCH 78 85
ATOM     85   O  Z9L D   5      72.547 131.476  74.8110  0.00  0.00     0.000 O
ATOM     86   O  Z9L D   5      71.562 132.807  75.7960  0.00  0.00     0.000 OA
ATOM     87   S  Z9L D   5      71.790 132.827  74.3830  0.00  0.00     0.000 S
ATOM     88   O  Z9L D   5      70.493 132.605  73.7920  0.00  0.00     0.000 OA
ATOM     89   O  Z9L D   5      72.609 133.966  74.1520  0.00  0.00     0.000 OA
ENDBRANCH 78 85
BRANCH 79 90
ATOM     90   O  Z9L D   5      71.238 130.081  72.1700  0.00  0.00     0.000 O
ATOM     91   S  Z9L D   5      71.114 128.830  73.1470  0.00  0.00     0.000 S
ATOM     92   O  Z9L D   5      71.382 128.924  74.5580  0.00  0.00     0.000 OA
ATOM     93   O  Z9L D   5      71.406 127.622  72.4160  0.00  0.00     0.000 O
ATOM     94   O  Z9L D   5      69.727 129.110  72.9610  0.00  0.00     0.000 OA
ENDBRANCH 79 90
BRANCH 81 95
ATOM     95   C  Z9L D   5      75.642 130.656  69.6530  0.00  0.00     0.000 C
ATOM     96   S  Z9L D   5      76.053 131.843  68.1080  0.00  0.00     0.000 S
ATOM     97   O  Z9L D   5      74.914 131.763  69.1920  0.00  0.00     0.000 O
ATOM     98   O  Z9L D   5      75.838 130.746  67.1990  0.00  0.00     0.000 OA
ATOM     99   O  Z9L D   5      77.354 132.156  68.5970  0.00  0.00     0.000 OA
ATOM    100   O  Z9L D   5      75.255 132.961  67.6690  0.00  0.00     0.000 O
ENDBRANCH 81 95
ENDBRANCH 76 80
ENDBRANCH 60 76
ENDBRANCH 59 63
ENDBRANCH 37 59
ENDBRANCH 36 40
ENDBRANCH 23 36
ENDBRANCH 22 26
ENDBRANCH 1 22
TORSDOF 19
ENDMDL
MODEL 96
REMARK VINA RESULT:      -0.5    170.890    177.375
ROOT
ATOM      1  C1  Z9H D   1     123.976 146.325 106.2910  0.00  0.00     0.000 C
ATOM      2  C2  Z9H D   1     124.205 147.536 105.3550  0.00  0.00     0.000 C
ATOM      3  C3  Z9H D   1     124.275 146.762 104.0030  0.00  0.00     0.000 C
ATOM      4  C4  Z9H D   1     125.264 145.524 103.9800  0.00  0.00     0.000 C
ATOM      5  C5  Z9H D   1     125.301 144.426 105.1160  0.00  0.00     0.000 C
ATOM      6  O5  Z9H D   1     124.896 145.198 106.2740  0.00  0.00     0.000 O
ATOM      7   O  Z9H D   1     124.550 147.638 102.9090  0.00  0.00     0.000 O
ATOM      8   C  Z9H D   1     123.403 148.051 102.1470  0.00  0.00     0.000 C
ATOM      9   O  Z9H D   1     125.009 144.846 102.7450  0.00  0.00     0.000 O
ATOM     10   C  Z9H D   1     125.926 145.130 101.6840  0.00  0.00     0.000 C
ENDROOT
BRANCH 2 11
ATOM     11   O  Z9H D   1     122.943 148.150 105.3600  0.00  0.00     0.000 O
ATOM     12   O  Z9H D   1     122.590 149.840 106.1200  0.00  0.00     0.000 OA
ATOM     13   S  Z9H D   1     123.874 149.226 106.0660  0.00  0.00     0.000 S
ATOM     14   O  Z9H D   1     124.745 149.790 105.0750  0.00  0.00     0.000 OA
ATOM     15   O  Z9H D   1     124.282 148.796 107.3840  0.00  0.00     0.000 O
ENDBRANCH 2 11
BRANCH 5 16
ATOM     16   C  Z9H D   1     126.679 143.477 105.1400  0.00  0.00     0.000 C
ATOM     17   S  Z9H D   1     127.367 141.609 105.4190  0.00  0.00     0.000 S
ATOM     18   O  Z9H D   1     126.096 142.280 104.6830  0.00  0.00     0.000 O
ATOM     19   O  Z9H D   1     127.362 141.718 106.8500  0.00  0.00     0.000 O
ATOM     20   O  Z9H D   1     128.536 141.777 104.6290  0.00  0.00     0.000 OA
ATOM     21   O  Z9H D   1     126.702 140.421 104.9700  0.00  0.00     0.000 OA
ENDBRANCH 5 16
BRANCH 1 22
ATOM     22  O4  GU1 D   2     122.693 145.626 106.0970  0.00  0.00     0.000 O
BRANCH 22 26
ATOM     23  C1  GU1 D   2     119.639 143.603 107.9800  0.00  0.00     0.000 C
ATOM     24  C2  GU1 D   2     120.242 144.744 108.7850  0.00  0.00     0.000 C
ATOM     25  C3  GU1 D   2     121.048 145.624 107.8740  0.00  0.00     0.000 C
ATOM     26  C4  GU1 D   2     122.066 144.807 107.0910  0.00  0.00     0.000 C
ATOM     27  C5  GU1 D   2     121.374 143.626 106.4040  0.00  0.00     0.000 C
ATOM     28  O5  GU1 D   2     120.666 142.840 107.3590  0.00  0.00     0.000 O
ATOM     29   O  GU1 D   2     119.242 145.544 109.4050  0.00  0.00     0.000 O
ATOM     30   C  GU1 D   2     118.988 145.200 110.7600  0.00  0.00     0.000 C
ATOM     31   C  GU1 D   2     121.176 147.887 108.6820  0.00  0.00     0.000 C
ATOM     32   O  GU1 D   2     121.748 146.582 108.6740  0.00  0.00     0.000 O
BRANCH 27 33
ATOM     33   C  GU1 D   2     122.377 142.729 105.7180  0.00  0.00     0.000 C
ATOM     34   O  GU1 D   2     123.129 142.070 106.4070  0.00  0.00     0.000 OA
ATOM     35   O  GU1 D   2     122.424 142.668 104.4990  0.00  0.00     0.000 O
ENDBRANCH 27 33
BRANCH 23 36
ATOM     36  O4  GU6 D   3     119.027 142.488 108.6580  0.00  0.00     0.000 O
BRANCH 36 40
ATOM     37  C1  GU6 D   3     118.301 138.866 110.4050  0.00  0.00     0.000 C
ATOM     38  C2  GU6 D   3     117.051 139.560 109.8780  0.00  0.00     0.000 C
ATOM     39  C3  GU6 D   3     117.449 140.736 109.0240  0.00  0.00     0.000 C
ATOM     40  C4  GU6 D   3     118.861 141.134 109.0270  0.00  0.00     0.000 C
ATOM     41  C5  GU6 D   3     119.446 140.973 110.4680  0.00  0.00     0.000 C
ATOM     42  O5  GU6 D   3     119.043 139.796 111.1780  0.00  0.00     0.000 O
BRANCH 38 43
ATOM     43   O  GU6 D   3     116.263 138.660 109.1240  0.00  0.00     0.000 O
ATOM     44   S  GU6 D   3     114.822 138.534 109.6020  0.00  0.00     0.000 S
ATOM     45   O  GU6 D   3     114.786 137.600 110.7400  0.00  0.00     0.000 OA
ATOM     46   O  GU6 D   3     114.354 139.861 110.0410  0.00  0.00     0.000 O
ATOM     47   O  GU6 D   3     114.000 138.054 108.4950  0.00  0.00     0.000 OA
ENDBRANCH 38 43
BRANCH 39 48
ATOM     48   O  GU6 D   3     116.549 141.285 108.0810  0.00  0.00     0.000 O
ATOM     49   S  GU6 D   3     116.441 141.048 106.5750  0.00  0.00     0.000 S
ATOM     50   O  GU6 D   3     116.293 139.615 106.2980  0.00  0.00     0.000 OA
ATOM     51   O  GU6 D   3     115.226 141.789 106.2080  0.00  0.00     0.000 OA
ATOM     52   O  GU6 D   3     117.662 141.567 105.9190  0.00  0.00     0.000 O
ENDBRANCH 39 48
BRANCH 41 53
ATOM     53   C  GU6 D   3     120.391 141.877 111.2140  0.00  0.00     0.000 C
ATOM     54   O  GU6 D   3     121.509 141.713 110.3810  0.00  0.00     0.000 O
ATOM     55   S  GU6 D   3     122.854 142.354 110.7490  0.00  0.00     0.000 S
ATOM     56   O  GU6 D   3     123.324 141.682 111.9830  0.00  0.00     0.000 O
ATOM     57   O  GU6 D   3     123.797 142.129 109.6430  0.00  0.00     0.000 OA
ATOM     58   O  GU6 D   3     122.604 143.793 110.9880  0.00  0.00     0.000 OA
ENDBRANCH 41 53
BRANCH 37 59
ATOM     59  O4  Z9K D   4     119.244 138.132 109.5960  0.00  0.00     0.000 O
BRANCH 59 63
ATOM     60  C1  Z9K D   4     120.687 135.076 107.5880  0.00  0.00     0.000 C
ATOM     61  C2  Z9K D   4     119.519 134.404 108.3610  0.00  0.00     0.000 C
ATOM     62  C3  Z9K D   4     118.827 135.673 109.0250  0.00  0.00     0.000 C
ATOM     63  C4  Z9K D   4     119.728 136.763 109.7210  0.00  0.00     0.000 C
ATOM     64  C5  Z9K D   4     121.171 136.876 109.2040  0.00  0.00     0.000 C
ATOM     65  O5  Z9K D   4     121.039 136.523 107.8010  0.00  0.00     0.000 O
ATOM     66   O  Z9K D   4     117.835 135.330 110.0100  0.00  0.00     0.000 O
ATOM     67   C  Z9K D   4     116.545 135.076 109.4780  0.00  0.00     0.000 C
BRANCH 61 68
ATOM     68   O  Z9K D   4     118.617 133.920 107.4040  0.00  0.00     0.000 O
ATOM     69   O  Z9K D   4     118.684 132.402 109.4630  0.00  0.00     0.000 OA
ATOM     70   S  Z9K D   4     119.124 132.552 108.1080  0.00  0.00     0.000 S
ATOM     71   O  Z9K D   4     120.425 132.226 107.6100  0.00  0.00     0.000 OA
ATOM     72   O  Z9K D   4     118.133 132.079 107.1960  0.00  0.00     0.000 OA
ENDBRANCH 61 68
BRANCH 64 73
ATOM     73   C  Z9K D   4     121.780 138.245 109.5700  0.00  0.00     0.000 C
ATOM     74   O  Z9K D   4     122.103 138.521 110.7620  0.00  0.00     0.000 O
ATOM     75   O  Z9K D   4     121.982 139.132 108.7050  0.00  0.00     0.000 OA
ENDBRANCH 64 73
BRANCH 60 76
ATOM     76  O4  Z9L D   5     122.053 134.642 107.4790  0.00  0.00     0.000 O
BRANCH 76 80
ATOM     77  C1  Z9L D   5     125.148 134.262 104.9790  0.00  0.00     0.000 C
ATOM     78  C2  Z9L D   5     125.577 135.327 106.0990  0.00  0.00     0.000 C
ATOM     79  C3  Z9L D   5     124.489 135.147 107.3810  0.00  0.00     0.000 C
ATOM     80  C4  Z9L D   5     123.066 134.986 106.5680  0.00  0.00     0.000 C
ATOM     81  C5  Z9L D   5     122.680 134.085 105.2870  0.00  0.00     0.000 C
ATOM     82  O5  Z9L D   5     123.791 134.172 104.3830  0.00  0.00     0.000 O
ATOM     83   C  Z9L D   5     125.244 131.883 104.5070  0.00  0.00     0.000 C
ATOM     84   C  Z9L D   5     125.244 131.883 104.5070  0.00  0.00     0.000 C
BRANCH 78 85
ATOM     85   O  Z9L D   5     126.857 135.000 106.5380  0.00  0.00     0.000 O
ATOM     86   O  Z9L D   5     128.442 136.043 106.2030  0.00  0.00     0.000 OA
ATOM     87   S  Z9L D   5     127.108 136.437 105.8630  0.00  0.00     0.000 S
ATOM     88   O  Z9L D   5     126.813 137.548 106.7340  0.00  0.00     0.000 OA
ATOM     89   O  Z9L D   5     127.082 136.483 104.4420  0.00  0.00     0.000 OA
ENDBRANCH 78 85
BRANCH 79 90
ATOM     90   O  Z9L D   5     124.311 136.346 108.0670  0.00  0.00     0.000 O
ATOM     91   S  Z9L D   5     124.826 135.428 109.2630  0.00  0.00     0.000 S
ATOM     92   O  Z9L D   5     126.077 134.719 109.2060  0.00  0.00     0.000 OA
ATOM     93   O  Z9L D   5     123.692 134.879 109.9640  0.00  0.00     0.000 O
ATOM     94   O  Z9L D   5     125.092 136.710 109.8310  0.00  0.00     0.000 OA
ENDBRANCH 79 90
BRANCH 81 95
ATOM     95   C  Z9L D   5     121.130 134.252 104.6680  0.00  0.00     0.000 C
ATOM     96   S  Z9L D   5     120.020 135.164 103.2890  0.00  0.00     0.000 S
ATOM     97   O  Z9L D   5     121.255 135.561 104.1810  0.00  0.00     0.000 O
ATOM     98   O  Z9L D   5     118.877 135.110 104.1630  0.00  0.00     0.000 OA
ATOM     99   O  Z9L D   5     120.258 134.150 102.3170  0.00  0.00     0.000 OA
ATOM    100   O  Z9L D   5     120.186 136.524 102.8390  0.00  0.00     0.000 O
ENDBRANCH 81 95
ENDBRANCH 76 80
ENDBRANCH 60 76
ENDBRANCH 59 63
ENDBRANCH 37 59
ENDBRANCH 36 40
ENDBRANCH 23 36
ENDBRANCH 22 26
ENDBRANCH 1 22
TORSDOF 19
ENDMDL
MODEL 97
REMARK VINA RESULT:      -0.5    113.509    118.367
ROOT
ATOM      1  C1  Z9H D   1       5.007  28.539 128.9440  0.00  0.00     0.000 C
ATOM      2  C2  Z9H D   1       3.817  29.280 129.5990  0.00  0.00     0.000 C
ATOM      3  C3  Z9H D   1       4.625  30.396 130.3290  0.00  0.00     0.000 C
ATOM      4  C4  Z9H D   1       5.844  29.890 131.2060  0.00  0.00     0.000 C
ATOM      5  C5  Z9H D   1       6.911  28.848 130.6820  0.00  0.00     0.000 C
ATOM      6  O5  Z9H D   1       6.117  28.064 129.7560  0.00  0.00     0.000 O
ATOM      7   O  Z9H D   1       3.773  31.241 131.1050  0.00  0.00     0.000 O
ATOM      8   C  Z9H D   1       3.402  32.482 130.4810  0.00  0.00     0.000 C
ATOM      9   O  Z9H D   1       6.559  31.067 131.5940  0.00  0.00     0.000 O
ATOM     10   C  Z9H D   1       6.286  31.548 132.9140  0.00  0.00     0.000 C
ENDROOT
BRANCH 2 11
ATOM     11   O  Z9H D   1       3.227  29.917 128.4970  0.00  0.00     0.000 O
ATOM     12   O  Z9H D   1       1.529  29.477 127.8020  0.00  0.00     0.000 OA
ATOM     13   S  Z9H D   1       2.119  28.871 128.9490  0.00  0.00     0.000 S
ATOM     14   O  Z9H D   1       1.559  29.317 130.1930  0.00  0.00     0.000 OA
ATOM     15   O  Z9H D   1       2.515  27.513 128.6540  0.00  0.00     0.000 O
ENDBRANCH 2 11
BRANCH 5 16
ATOM     16   C  Z9H D   1       7.833  28.117 131.8720  0.00  0.00     0.000 C
ATOM     17   S  Z9H D   1       9.675  27.457 132.3320  0.00  0.00     0.000 S
ATOM     18   O  Z9H D   1       9.058  28.745 131.5790  0.00  0.00     0.000 O
ATOM     19   O  Z9H D   1       9.507  26.214 131.6360  0.00  0.00     0.000 O
ATOM     20   O  Z9H D   1       9.518  27.590 133.7390  0.00  0.00     0.000 OA
ATOM     21   O  Z9H D   1      10.892  28.118 131.9630  0.00  0.00     0.000 OA
ENDBRANCH 5 16
BRANCH 1 22
ATOM     22  O4  GU1 D   2       5.735  29.316 127.9250  0.00  0.00     0.000 O
BRANCH 22 26
ATOM     23  C1  GU1 D   2       7.775  29.113 124.3520  0.00  0.00     0.000 C
ATOM     24  C2  GU1 D   2       6.608  28.145 124.4780  0.00  0.00     0.000 C
ATOM     25  C3  GU1 D   2       5.732  28.569 125.6220  0.00  0.00     0.000 C
ATOM     26  C4  GU1 D   2       6.545  28.735 126.8970  0.00  0.00     0.000 C
ATOM     27  C5  GU1 D   2       7.752  29.641 126.6360  0.00  0.00     0.000 C
ATOM     28  O5  GU1 D   2       8.532  29.134 125.5570  0.00  0.00     0.000 O
ATOM     29   O  GU1 D   2       5.814  28.113 123.2980  0.00  0.00     0.000 O
ATOM     30   C  GU1 D   2       6.137  27.046 122.4170  0.00  0.00     0.000 C
ATOM     31   C  GU1 D   2       3.451  27.860 125.3250  0.00  0.00     0.000 C
ATOM     32   O  GU1 D   2       4.746  27.554 125.8360  0.00  0.00     0.000 O
BRANCH 27 33
ATOM     33   C  GU1 D   2       8.644  29.728 127.8510  0.00  0.00     0.000 C
ATOM     34   O  GU1 D   2       9.285  28.747 128.1680  0.00  0.00     0.000 OA
ATOM     35   O  GU1 D   2       8.718  30.763 128.4950  0.00  0.00     0.000 O
ENDBRANCH 27 33
BRANCH 23 36
ATOM     36  O4  GU6 D   3       8.888  28.792 123.4940  0.00  0.00     0.000 O
BRANCH 36 40
ATOM     37  C1  GU6 D   3      12.488  27.531 122.0300  0.00  0.00     0.000 C
ATOM     38  C2  GU6 D   3      11.826  28.618 121.1920  0.00  0.00     0.000 C
ATOM     39  C3  GU6 D   3      10.660  29.199 121.9490  0.00  0.00     0.000 C
ATOM     40  C4  GU6 D   3      10.237  28.517 123.1770  0.00  0.00     0.000 C
ATOM     41  C5  GU6 D   3      10.360  26.969 122.9850  0.00  0.00     0.000 C
ATOM     42  O5  GU6 D   3      11.530  26.517 122.2940  0.00  0.00     0.000 O
BRANCH 38 43
ATOM     43   O  GU6 D   3      12.754  29.638 120.8770  0.00  0.00     0.000 O
ATOM     44   S  GU6 D   3      12.895  29.923 119.3880  0.00  0.00     0.000 S
ATOM     45   O  GU6 D   3      13.806  28.923 118.8040  0.00  0.00     0.000 OA
ATOM     46   O  GU6 D   3      11.567  29.802 118.7580  0.00  0.00     0.000 O
ATOM     47   O  GU6 D   3      13.410  31.277 119.2140  0.00  0.00     0.000 OA
ENDBRANCH 38 43
BRANCH 39 48
ATOM     48   O  GU6 D   3      10.145  30.475 121.6210  0.00  0.00     0.000 O
ATOM     49   S  GU6 D   3      10.412  31.835 122.2630  0.00  0.00     0.000 S
ATOM     50   O  GU6 D   3      11.853  32.113 122.2780  0.00  0.00     0.000 OA
ATOM     51   O  GU6 D   3       9.700  32.767 121.3780  0.00  0.00     0.000 OA
ATOM     52   O  GU6 D   3       9.884  31.825 123.6460  0.00  0.00     0.000 O
ENDBRANCH 39 48
BRANCH 41 53
ATOM     53   C  GU6 D   3       9.425  25.881 123.4400  0.00  0.00     0.000 C
ATOM     54   O  GU6 D   3       9.587  26.057 124.8230  0.00  0.00     0.000 O
ATOM     55   S  GU6 D   3       8.917  25.095 125.8130  0.00  0.00     0.000 S
ATOM     56   O  GU6 D   3       9.556  23.772 125.6230  0.00  0.00     0.000 O
ATOM     57   O  GU6 D   3       9.147  25.592 127.1780  0.00  0.00     0.000 OA
ATOM     58   O  GU6 D   3       7.478  25.045 125.4710  0.00  0.00     0.000 OA
ENDBRANCH 41 53
BRANCH 37 59
ATOM     59  O4  Z9K D   4      13.221  27.757 123.2520  0.00  0.00     0.000 O
BRANCH 59 63
ATOM     60  C1  Z9K D   4      16.290  28.726 125.5070  0.00  0.00     0.000 C
ATOM     61  C2  Z9K D   4      16.968  28.599 124.1150  0.00  0.00     0.000 C
ATOM     62  C3  Z9K D   4      15.699  28.391 123.1800  0.00  0.00     0.000 C
ATOM     63  C4  Z9K D   4      14.577  27.375 123.6230  0.00  0.00     0.000 C
ATOM     64  C5  Z9K D   4      14.448  27.130 125.1340  0.00  0.00     0.000 C
ATOM     65  O5  Z9K D   4      14.833  28.409 125.7020  0.00  0.00     0.000 O
ATOM     66   O  Z9K D   4      16.039  28.002 121.8370  0.00  0.00     0.000 O
ATOM     67   C  Z9K D   4      16.329  29.086 120.9690  0.00  0.00     0.000 C
BRANCH 61 68
ATOM     68   O  Z9K D   4      17.489  29.860 123.7950  0.00  0.00     0.000 O
ATOM     69   O  Z9K D   4      18.963  27.986 122.8660  0.00  0.00     0.000 OA
ATOM     70   S  Z9K D   4      18.832  28.961 123.9060  0.00  0.00     0.000 S
ATOM     71   O  Z9K D   4      19.143  28.756 125.2880  0.00  0.00     0.000 OA
ATOM     72   O  Z9K D   4      19.343  30.226 123.4870  0.00  0.00     0.000 OA
ENDBRANCH 61 68
BRANCH 64 73
ATOM     73   C  Z9K D   4      13.060  26.552 125.4790  0.00  0.00     0.000 C
ATOM     74   O  Z9K D   4      12.753  25.360 125.1820  0.00  0.00     0.000 O
ATOM     75   O  Z9K D   4      12.188  27.234 126.0710  0.00  0.00     0.000 OA
ENDBRANCH 64 73
BRANCH 60 76
ATOM     76  O4  Z9L D   5      16.701  28.146 126.7580  0.00  0.00     0.000 O
BRANCH 76 80
ATOM     77  C1  Z9L D   5      17.008  28.791 130.6900  0.00  0.00     0.000 C
ATOM     78  C2  Z9L D   5      15.948  27.604 130.4900  0.00  0.00     0.000 C
ATOM     79  C3  Z9L D   5      16.157  27.027 128.9140  0.00  0.00     0.000 C
ATOM     80  C4  Z9L D   5      16.333  28.438 128.0810  0.00  0.00     0.000 C
ATOM     81  C5  Z9L D   5      17.227  29.742 128.3950  0.00  0.00     0.000 C
ATOM     82  O5  Z9L D   5      17.113  29.980 129.8060  0.00  0.00     0.000 O
ATOM     83   C  Z9L D   5      19.380  29.157 131.0500  0.00  0.00     0.000 C
ATOM     84   C  Z9L D   5      19.380  29.157 131.0500  0.00  0.00     0.000 C
BRANCH 78 85
ATOM     85   O  Z9L D   5      16.258  26.591 131.3920  0.00  0.00     0.000 O
ATOM     86   O  Z9L D   5      15.188  26.099 132.9160  0.00  0.00     0.000 OA
ATOM     87   S  Z9L D   5      14.811  27.053 131.9170  0.00  0.00     0.000 S
ATOM     88   O  Z9L D   5      13.714  26.440 131.2090  0.00  0.00     0.000 OA
ATOM     89   O  Z9L D   5      14.752  28.301 132.5950  0.00  0.00     0.000 OA
ENDBRANCH 78 85
BRANCH 79 90
ATOM     90   O  Z9L D   5      14.968  26.518 128.3990  0.00  0.00     0.000 O
ATOM     91   S  Z9L D   5      15.892  25.228 128.2610  0.00  0.00     0.000 S
ATOM     92   O  Z9L D   5      16.586  24.655 129.3840  0.00  0.00     0.000 OA
ATOM     93   O  Z9L D   5      16.463  25.188 126.9380  0.00  0.00     0.000 O
ATOM     94   O  Z9L D   5      14.614  24.598 128.1880  0.00  0.00     0.000 OA
ENDBRANCH 79 90
BRANCH 81 95
ATOM     95   C  Z9L D   5      17.078  31.046 127.3500  0.00  0.00     0.000 C
ATOM     96   S  Z9L D   5      16.158  32.786 127.0410  0.00  0.00     0.000 S
ATOM     97   O  Z9L D   5      15.756  31.395 127.6610  0.00  0.00     0.000 O
ATOM     98   O  Z9L D   5      16.255  32.592 125.6170  0.00  0.00     0.000 OA
ATOM     99   O  Z9L D   5      17.145  33.521 127.7580  0.00  0.00     0.000 OA
ATOM    100   O  Z9L D   5      14.785  33.082 127.3690  0.00  0.00     0.000 O
ENDBRANCH 81 95
ENDBRANCH 76 80
ENDBRANCH 60 76
ENDBRANCH 59 63
ENDBRANCH 37 59
ENDBRANCH 36 40
ENDBRANCH 23 36
ENDBRANCH 22 26
ENDBRANCH 1 22
TORSDOF 19
ENDMDL
MODEL 98
REMARK VINA RESULT:      -0.5    122.946    128.486
ROOT
ATOM      1  C1  Z9H D   1      18.427 107.741 120.4680  0.00  0.00     0.000 C
ATOM      2  C2  Z9H D   1      18.133 108.141 121.9340  0.00  0.00     0.000 C
ATOM      3  C3  Z9H D   1      19.552 107.879 122.5250  0.00  0.00     0.000 C
ATOM      4  C4  Z9H D   1      20.180 106.465 122.1830  0.00  0.00     0.000 C
ATOM      5  C5  Z9H D   1      20.193 105.855 120.7240  0.00  0.00     0.000 C
ATOM      6  O5  Z9H D   1      18.990 106.436 120.1600  0.00  0.00     0.000 O
ATOM      7   O  Z9H D   1      19.586 108.110 123.9350  0.00  0.00     0.000 O
ATOM      8   C  Z9H D   1      20.099 109.391 124.3370  0.00  0.00     0.000 C
ATOM      9   O  Z9H D   1      21.539 106.525 122.6270  0.00  0.00     0.000 O
ATOM     10   C  Z9H D   1      21.800 105.923 123.8990  0.00  0.00     0.000 C
ENDROOT
BRANCH 2 11
ATOM     11   O  Z9H D   1      18.027 109.537 121.8400  0.00  0.00     0.000 O
ATOM     12   O  Z9H D   1      16.425 110.499 122.0970  0.00  0.00     0.000 OA
ATOM     13   S  Z9H D   1      16.556 109.087 122.2360  0.00  0.00     0.000 S
ATOM     14   O  Z9H D   1      16.573 108.638 123.5990  0.00  0.00     0.000 OA
ATOM     15   O  Z9H D   1      15.893 108.410 121.1460  0.00  0.00     0.000 O
ENDBRANCH 2 11
BRANCH 5 16
ATOM     16   C  Z9H D   1      20.484 104.209 120.6470  0.00  0.00     0.000 C
ATOM     17   S  Z9H D   1      21.391 102.762 119.5860  0.00  0.00     0.000 S
ATOM     18   O  Z9H D   1      21.755 104.267 120.0460  0.00  0.00     0.000 O
ATOM     19   O  Z9H D   1      20.327 102.665 118.6290  0.00  0.00     0.000 O
ATOM     20   O  Z9H D   1      21.539 101.867 120.6800  0.00  0.00     0.000 OA
ATOM     21   O  Z9H D   1      22.671 102.897 118.9540  0.00  0.00     0.000 OA
ENDBRANCH 5 16
BRANCH 1 22
ATOM     22  O4  GU1 D   2      19.382 108.617 119.7670  0.00  0.00     0.000 O
BRANCH 22 26
ATOM     23  C1  GU1 D   2      20.372 110.308 116.1440  0.00  0.00     0.000 C
ATOM     24  C2  GU1 D   2      18.879 110.166 116.3970  0.00  0.00     0.000 C
ATOM     25  C3  GU1 D   2      18.644 109.910 117.8570  0.00  0.00     0.000 C
ATOM     26  C4  GU1 D   2      19.473 108.730 118.3420  0.00  0.00     0.000 C
ATOM     27  C5  GU1 D   2      20.940 108.922 117.9470  0.00  0.00     0.000 C
ATOM     28  O5  GU1 D   2      21.055 109.125 116.5410  0.00  0.00     0.000 O
ATOM     29   O  GU1 D   2      18.163 111.341 116.0310  0.00  0.00     0.000 O
ATOM     30   C  GU1 D   2      17.585 111.281 114.7350  0.00  0.00     0.000 C
ATOM     31   C  GU1 D   2      16.476 110.673 118.5730  0.00  0.00     0.000 C
ATOM     32   O  GU1 D   2      17.259 109.604 118.0460  0.00  0.00     0.000 O
BRANCH 27 33
ATOM     33   C  GU1 D   2      21.766 107.710 118.3090  0.00  0.00     0.000 C
ATOM     34   O  GU1 D   2      21.606 106.690 117.6700  0.00  0.00     0.000 OA
ATOM     35   O  GU1 D   2      22.578 107.762 119.2190  0.00  0.00     0.000 O
ENDBRANCH 27 33
BRANCH 23 36
ATOM     36  O4  GU6 D   3      20.877 110.314 114.7940  0.00  0.00     0.000 O
BRANCH 36 40
ATOM     37  C1  GU6 D   3      22.480 109.241 111.1920  0.00  0.00     0.000 C
ATOM     38  C2  GU6 D   3      22.661 110.715 111.5350  0.00  0.00     0.000 C
ATOM     39  C3  GU6 D   3      22.287 110.947 112.9760  0.00  0.00     0.000 C
ATOM     40  C4  GU6 D   3      21.636 109.847 113.6960  0.00  0.00     0.000 C
ATOM     41  C5  GU6 D   3      20.649 109.105 112.7360  0.00  0.00     0.000 C
ATOM     42  O5  GU6 D   3      21.120 108.892 111.4000  0.00  0.00     0.000 O
BRANCH 38 43
ATOM     43   O  GU6 D   3      23.998 111.117 111.3120  0.00  0.00     0.000 O
ATOM     44   S  GU6 D   3      24.150 112.310 110.3770  0.00  0.00     0.000 S
ATOM     45   O  GU6 D   3      24.071 111.828 108.9870  0.00  0.00     0.000 OA
ATOM     46   O  GU6 D   3      23.044 113.251 110.6320  0.00  0.00     0.000 O
ATOM     47   O  GU6 D   3      25.430 112.957 110.6440  0.00  0.00     0.000 OA
ENDBRANCH 38 43
BRANCH 39 48
ATOM     48   O  GU6 D   3      22.752 112.087 113.6720  0.00  0.00     0.000 O
ATOM     49   S  GU6 D   3      23.936 112.237 114.6270  0.00  0.00     0.000 S
ATOM     50   O  GU6 D   3      25.171 111.786 113.9760  0.00  0.00     0.000 OA
ATOM     51   O  GU6 D   3      23.971 113.682 114.8890  0.00  0.00     0.000 OA
ATOM     52   O  GU6 D   3      23.679 111.430 115.8410  0.00  0.00     0.000 O
ENDBRANCH 39 48
BRANCH 41 53
ATOM     53   C  GU6 D   3      19.274 108.565 113.0220  0.00  0.00     0.000 C
ATOM     54   O  GU6 D   3      19.646 107.575 113.9450  0.00  0.00     0.000 O
ATOM     55   S  GU6 D   3      18.601 106.601 114.5060  0.00  0.00     0.000 S
ATOM     56   O  GU6 D   3      18.142 105.767 113.3710  0.00  0.00     0.000 O
ATOM     57   O  GU6 D   3      19.240 105.770 115.5370  0.00  0.00     0.000 OA
ATOM     58   O  GU6 D   3      17.491 107.414 115.0510  0.00  0.00     0.000 OA
ENDBRANCH 41 53
BRANCH 37 59
ATOM     59  O4  Z9K D   4      23.285 108.164 111.7140  0.00  0.00     0.000 O
BRANCH 59 63
ATOM     60  C1  Z9K D   4      26.393 105.775 112.0000  0.00  0.00     0.000 C
ATOM     61  C2  Z9K D   4      26.664 106.458 110.6320  0.00  0.00     0.000 C
ATOM     62  C3  Z9K D   4      25.509 107.551 110.6070  0.00  0.00     0.000 C
ATOM     63  C4  Z9K D   4      24.047 107.133 111.0210  0.00  0.00     0.000 C
ATOM     64  C5  Z9K D   4      23.933 105.938 111.9800  0.00  0.00     0.000 C
ATOM     65  O5  Z9K D   4      25.138 106.053 112.7810  0.00  0.00     0.000 O
ATOM     66   O  Z9K D   4      25.361 108.194 109.3280  0.00  0.00     0.000 O
ATOM     67   C  Z9K D   4      26.225 109.301 109.1260  0.00  0.00     0.000 C
BRANCH 61 68
ATOM     68   O  Z9K D   4      27.869 107.162 110.7550  0.00  0.00     0.000 O
ATOM     69   O  Z9K D   4      27.584 106.220 108.3930  0.00  0.00     0.000 OA
ATOM     70   S  Z9K D   4      28.248 106.041 109.6490  0.00  0.00     0.000 S
ATOM     71   O  Z9K D   4      28.464 104.790 110.3090  0.00  0.00     0.000 OA
ATOM     72   O  Z9K D   4      29.439 106.824 109.7130  0.00  0.00     0.000 OA
ENDBRANCH 61 68
BRANCH 64 73
ATOM     73   C  Z9K D   4      22.564 105.936 112.6940  0.00  0.00     0.000 C
ATOM     74   O  Z9K D   4      22.464 106.236 113.9190  0.00  0.00     0.000 O
ATOM     75   O  Z9K D   4      21.503 105.645 112.0890  0.00  0.00     0.000 OA
ENDBRANCH 64 73
BRANCH 60 76
ATOM     76  O4  Z9L D   5      26.418 104.373 112.3200  0.00  0.00     0.000 O
BRANCH 76 80
ATOM     77  C1  Z9L D   5      27.352 101.711 115.1500  0.00  0.00     0.000 C
ATOM     78  C2  Z9L D   5      25.767 101.621 114.9270  0.00  0.00     0.000 C
ATOM     79  C3  Z9L D   5      25.441 102.383 113.4520  0.00  0.00     0.000 C
ATOM     80  C4  Z9L D   5      26.421 103.703 113.5550  0.00  0.00     0.000 C
ATOM     81  C5  Z9L D   5      27.964 103.839 114.0030  0.00  0.00     0.000 C
ATOM     82  O5  Z9L D   5      28.132 102.974 115.1370  0.00  0.00     0.000 O
ATOM     83   C  Z9L D   5      29.424 100.714 114.3700  0.00  0.00     0.000 C
ATOM     84   C  Z9L D   5      29.424 100.714 114.3700  0.00  0.00     0.000 C
BRANCH 78 85
ATOM     85   O  Z9L D   5      25.419 100.277 114.8330  0.00  0.00     0.000 O
ATOM     86   O  Z9L D   5      24.390  99.306 116.1400  0.00  0.00     0.000 OA
ATOM     87   S  Z9L D   5      24.642 100.715 116.1700  0.00  0.00     0.000 S
ATOM     88   O  Z9L D   5      23.362 101.330 115.9230  0.00  0.00     0.000 OA
ATOM     89   O  Z9L D   5      25.443 100.927 117.3260  0.00  0.00     0.000 OA
ENDBRANCH 78 85
BRANCH 79 90
ATOM     90   O  Z9L D   5      24.169 102.949 113.4440  0.00  0.00     0.000 O
ATOM     91   S  Z9L D   5      24.041 101.987 112.1810  0.00  0.00     0.000 S
ATOM     92   O  Z9L D   5      24.284 100.571 112.2630  0.00  0.00     0.000 OA
ATOM     93   O  Z9L D   5      24.359 102.725 110.9840  0.00  0.00     0.000 O
ATOM     94   O  Z9L D   5      22.655 102.195 112.4480  0.00  0.00     0.000 OA
ENDBRANCH 79 90
BRANCH 81 95
ATOM     95   C  Z9L D   5      28.611 105.384 114.0730  0.00  0.00     0.000 C
ATOM     96   S  Z9L D   5      28.990 106.936 115.2630  0.00  0.00     0.000 S
ATOM     97   O  Z9L D   5      27.836 105.873 115.1350  0.00  0.00     0.000 O
ATOM     98   O  Z9L D   5      28.851 107.835 114.1460  0.00  0.00     0.000 OA
ATOM     99   O  Z9L D   5      30.262 106.426 115.6500  0.00  0.00     0.000 OA
ATOM    100   O  Z9L D   5      28.142 107.404 116.3320  0.00  0.00     0.000 O
ENDBRANCH 81 95
ENDBRANCH 76 80
ENDBRANCH 60 76
ENDBRANCH 59 63
ENDBRANCH 37 59
ENDBRANCH 36 40
ENDBRANCH 23 36
ENDBRANCH 22 26
ENDBRANCH 1 22
TORSDOF 19
ENDMDL
MODEL 99
REMARK VINA RESULT:      -0.5     69.360     76.249
ROOT
ATOM      1  C1  Z9H D   1      38.209 112.871  21.1890  0.00  0.00     0.000 C
ATOM      2  C2  Z9H D   1      39.511 113.257  20.4470  0.00  0.00     0.000 C
ATOM      3  C3  Z9H D   1      40.258 111.896  20.5880  0.00  0.00     0.000 C
ATOM      4  C4  Z9H D   1      40.310 111.298  22.0550  0.00  0.00     0.000 C
ATOM      5  C5  Z9H D   1      39.041 111.200  22.9930  0.00  0.00     0.000 C
ATOM      6  O5  Z9H D   1      38.261 112.335  22.5400  0.00  0.00     0.000 O
ATOM      7   O  Z9H D   1      41.572 111.957  20.0300  0.00  0.00     0.000 O
ATOM      8   C  Z9H D   1      41.702 111.428  18.7000  0.00  0.00     0.000 C
ATOM      9   O  Z9H D   1      40.835 109.973  21.9160  0.00  0.00     0.000 O
ATOM     10   C  Z9H D   1      42.230 109.829  22.2040  0.00  0.00     0.000 C
ENDROOT
BRANCH 2 11
ATOM     11   O  Z9H D   1      39.083 113.303  19.1110  0.00  0.00     0.000 O
ATOM     12   O  Z9H D   1      38.982 114.882  18.0840  0.00  0.00     0.000 OA
ATOM     13   S  Z9H D   1      39.459 114.814  19.4250  0.00  0.00     0.000 S
ATOM     14   O  Z9H D   1      40.887 114.909  19.5380  0.00  0.00     0.000 OA
ATOM     15   O  Z9H D   1      38.511 115.424  20.3280  0.00  0.00     0.000 O
ENDBRANCH 2 11
BRANCH 5 16
ATOM     16   C  Z9H D   1      39.377 110.966  24.6160  0.00  0.00     0.000 C
ATOM     17   S  Z9H D   1      38.741 110.070  26.2990  0.00  0.00     0.000 S
ATOM     18   O  Z9H D   1      38.841 109.671  24.7380  0.00  0.00     0.000 O
ATOM     19   O  Z9H D   1      37.784 111.097  26.5980  0.00  0.00     0.000 O
ATOM     20   O  Z9H D   1      40.023 109.998  26.9070  0.00  0.00     0.000 OA
ATOM     21   O  Z9H D   1      38.157 108.761  26.3540  0.00  0.00     0.000 OA
ENDBRANCH 5 16
BRANCH 1 22
ATOM     22  O4  GU1 D   2      37.400 111.835  20.5220  0.00  0.00     0.000 O
BRANCH 22 26
ATOM     23  C1  GU1 D   2      33.572 110.520  19.7560  0.00  0.00     0.000 C
ATOM     24  C2  GU1 D   2      33.732 112.032  19.8040  0.00  0.00     0.000 C
ATOM     25  C3  GU1 D   2      35.188 112.382  19.7030  0.00  0.00     0.000 C
ATOM     26  C4  GU1 D   2      36.000 111.636  20.7520  0.00  0.00     0.000 C
ATOM     27  C5  GU1 D   2      35.689 110.137  20.6870  0.00  0.00     0.000 C
ATOM     28  O5  GU1 D   2      34.289 109.913  20.8240  0.00  0.00     0.000 O
ATOM     29   O  GU1 D   2      33.045 112.674  18.7360  0.00  0.00     0.000 O
ATOM     30   C  GU1 D   2      31.757 113.158  19.0890  0.00  0.00     0.000 C
ATOM     31   C  GU1 D   2      35.530 114.566  18.7510  0.00  0.00     0.000 C
ATOM     32   O  GU1 D   2      35.331 113.788  19.9290  0.00  0.00     0.000 O
BRANCH 27 33
ATOM     33   C  GU1 D   2      36.389 109.386  21.7940  0.00  0.00     0.000 C
ATOM     34   O  GU1 D   2      35.993 109.532  22.9320  0.00  0.00     0.000 OA
ATOM     35   O  GU1 D   2      37.329 108.646  21.5450  0.00  0.00     0.000 O
ENDBRANCH 27 33
BRANCH 23 36
ATOM     36  O4  GU6 D   3      32.303 109.918  20.0790  0.00  0.00     0.000 O
BRANCH 36 40
ATOM     37  C1  GU6 D   3      29.195 108.100  22.0090  0.00  0.00     0.000 C
ATOM     38  C2  GU6 D   3      29.186 107.901  20.4990  0.00  0.00     0.000 C
ATOM     39  C3  GU6 D   3      30.497 108.367  19.9210  0.00  0.00     0.000 C
ATOM     40  C4  GU6 D   3      31.410 109.099  20.8060  0.00  0.00     0.000 C
ATOM     41  C5  GU6 D   3      30.585 110.037  21.7480  0.00  0.00     0.000 C
ATOM     42  O5  GU6 D   3      29.379 109.481  22.2820  0.00  0.00     0.000 O
BRANCH 38 43
ATOM     43   O  GU6 D   3      28.973 106.540  20.1780  0.00  0.00     0.000 O
ATOM     44   S  GU6 D   3      27.796 106.290  19.2450  0.00  0.00     0.000 S
ATOM     45   O  GU6 D   3      26.558 106.287  20.0440  0.00  0.00     0.000 OA
ATOM     46   O  GU6 D   3      27.738 107.382  18.2560  0.00  0.00     0.000 O
ATOM     47   O  GU6 D   3      27.995 105.012  18.5680  0.00  0.00     0.000 OA
ENDBRANCH 38 43
BRANCH 39 48
ATOM     48   O  GU6 D   3      30.931 107.918  18.6520  0.00  0.00     0.000 O
ATOM     49   S  GU6 D   3      31.907 106.799  18.2880  0.00  0.00     0.000 S
ATOM     50   O  GU6 D   3      31.477 105.536  18.8980  0.00  0.00     0.000 OA
ATOM     51   O  GU6 D   3      31.816 106.741  16.8230  0.00  0.00     0.000 OA
ATOM     52   O  GU6 D   3      33.256 107.163  18.7750  0.00  0.00     0.000 O
ENDBRANCH 39 48
BRANCH 41 53
ATOM     53   C  GU6 D   3      30.890 111.444  22.1860  0.00  0.00     0.000 C
ATOM     54   O  GU6 D   3      32.043 111.164  22.9370  0.00  0.00     0.000 O
ATOM     55   S  GU6 D   3      32.738 112.274  23.7380  0.00  0.00     0.000 S
ATOM     56   O  GU6 D   3      31.798 112.681  24.8080  0.00  0.00     0.000 O
ATOM     57   O  GU6 D   3      33.977 111.730  24.3120  0.00  0.00     0.000 OA
ATOM     58   O  GU6 D   3      32.997 113.392  22.8040  0.00  0.00     0.000 OA
ENDBRANCH 41 53
BRANCH 37 59
ATOM     59  O4  Z9K D   4      30.020 107.365  22.9380  0.00  0.00     0.000 O
BRANCH 59 63
ATOM     60  C1  Z9K D   4      31.099 104.359  25.2280  0.00  0.00     0.000 C
ATOM     61  C2  Z9K D   4      29.628 103.978  24.9040  0.00  0.00     0.000 C
ATOM     62  C3  Z9K D   4      29.256 105.094  23.8340  0.00  0.00     0.000 C
ATOM     63  C4  Z9K D   4      29.653 106.592  24.1180  0.00  0.00     0.000 C
ATOM     64  C5  Z9K D   4      30.863 106.806  25.0400  0.00  0.00     0.000 C
ATOM     65  O5  Z9K D   4      31.697 105.654  24.7500  0.00  0.00     0.000 O
ATOM     66   O  Z9K D   4      27.852 105.136  23.5210  0.00  0.00     0.000 O
ATOM     67   C  Z9K D   4      27.449 104.227  22.5100  0.00  0.00     0.000 C
BRANCH 61 68
ATOM     68   O  Z9K D   4      29.662 102.761  24.2090  0.00  0.00     0.000 O
ATOM     69   O  Z9K D   4      27.574 102.929  25.6790  0.00  0.00     0.000 OA
ATOM     70   S  Z9K D   4      28.879 102.350  25.5660  0.00  0.00     0.000 S
ATOM     71   O  Z9K D   4      29.828 102.211  26.6280  0.00  0.00     0.000 OA
ATOM     72   O  Z9K D   4      28.836 101.141  24.8070  0.00  0.00     0.000 OA
ENDBRANCH 61 68
BRANCH 64 73
ATOM     73   C  Z9K D   4      31.457 108.218  24.8480  0.00  0.00     0.000 C
ATOM     74   O  Z9K D   4      32.559 108.391  24.2500  0.00  0.00     0.000 O
ATOM     75   O  Z9K D   4      30.870 109.245  25.2690  0.00  0.00     0.000 OA
ENDBRANCH 64 73
BRANCH 60 76
ATOM     76  O4  Z9L D   5      31.751 104.399  26.5090  0.00  0.00     0.000 O
BRANCH 76 80
ATOM     77  C1  Z9L D   5      35.201 103.722  28.4090  0.00  0.00     0.000 C
ATOM     78  C2  Z9L D   5      34.897 105.292  28.5330  0.00  0.00     0.000 C
ATOM     79  C3  Z9L D   5      33.262 105.501  28.1520  0.00  0.00     0.000 C
ATOM     80  C4  Z9L D   5      33.108 104.494  26.8570  0.00  0.00     0.000 C
ATOM     81  C5  Z9L D   5      33.616 102.980  26.6320  0.00  0.00     0.000 C
ATOM     82  O5  Z9L D   5      34.934 102.909  27.1950  0.00  0.00     0.000 O
ATOM     83   C  Z9L D   5      34.832 101.632  29.5880  0.00  0.00     0.000 C
ATOM     84   C  Z9L D   5      34.832 101.632  29.5880  0.00  0.00     0.000 C
BRANCH 78 85
ATOM     85   O  Z9L D   5      35.109 105.669  29.8560  0.00  0.00     0.000 O
ATOM     86   O  Z9L D   5      36.538 106.807  30.4660  0.00  0.00     0.000 OA
ATOM     87   S  Z9L D   5      36.242 106.518  29.0960  0.00  0.00     0.000 S
ATOM     88   O  Z9L D   5      35.765 107.763  28.5460  0.00  0.00     0.000 OA
ATOM     89   O  Z9L D   5      37.365 105.789  28.6160  0.00  0.00     0.000 OA
ENDBRANCH 78 85
BRANCH 79 90
ATOM     90   O  Z9L D   5      33.028 106.753  27.5910  0.00  0.00     0.000 O
ATOM     91   S  Z9L D   5      32.010 106.814  28.8140  0.00  0.00     0.000 S
ATOM     92   O  Z9L D   5      32.429 106.615  30.1760  0.00  0.00     0.000 OA
ATOM     93   O  Z9L D   5      30.705 106.391  28.3700  0.00  0.00     0.000 O
ATOM     94   O  Z9L D   5      32.117 108.211  28.5390  0.00  0.00     0.000 OA
ENDBRANCH 79 90
BRANCH 81 95
ATOM     95   C  Z9L D   5      33.352 102.296  25.1240  0.00  0.00     0.000 C
ATOM     96   S  Z9L D   5      34.150 101.957  23.3310  0.00  0.00     0.000 S
ATOM     97   O  Z9L D   5      34.203 103.129  24.3810  0.00  0.00     0.000 O
ATOM     98   O  Z9L D   5      32.840 101.995  22.7330  0.00  0.00     0.000 OA
ATOM     99   O  Z9L D   5      34.741 100.729  23.7420  0.00  0.00     0.000 OA
ATOM    100   O  Z9L D   5      35.008 102.862  22.6060  0.00  0.00     0.000 O
ENDBRANCH 81 95
ENDBRANCH 76 80
ENDBRANCH 60 76
ENDBRANCH 59 63
ENDBRANCH 37 59
ENDBRANCH 36 40
ENDBRANCH 23 36
ENDBRANCH 22 26
ENDBRANCH 1 22
TORSDOF 19
ENDMDL
MODEL 100
REMARK VINA RESULT:      -0.5     78.015     84.947
ROOT
ATOM      1  C1  Z9H D   1     104.813  19.645   7.4010  0.00  0.00     0.000 C
ATOM      2  C2  Z9H D   1     105.917  20.631   6.9500  0.00  0.00     0.000 C
ATOM      3  C3  Z9H D   1     105.422  21.890   7.7260  0.00  0.00     0.000 C
ATOM      4  C4  Z9H D   1     103.890  22.247   7.5330  0.00  0.00     0.000 C
ATOM      5  C5  Z9H D   1     102.732  21.177   7.6470  0.00  0.00     0.000 C
ATOM      6  O5  Z9H D   1     103.409  19.973   7.2080  0.00  0.00     0.000 O
ATOM      7   O  Z9H D   1     106.236  23.031   7.4520  0.00  0.00     0.000 O
ATOM      8   C  Z9H D   1     107.242  23.320   8.4370  0.00  0.00     0.000 C
ATOM      9   O  Z9H D   1     103.608  23.278   8.4850  0.00  0.00     0.000 O
ATOM     10   C  Z9H D   1     103.606  24.612   7.9680  0.00  0.00     0.000 C
ENDROOT
BRANCH 2 11
ATOM     11   O  Z9H D   1     107.031  20.172   7.6700  0.00  0.00     0.000 O
ATOM     12   O  Z9H D   1     108.550  19.380   6.8820  0.00  0.00     0.000 OA
ATOM     13   S  Z9H D   1     107.435  19.893   6.1600  0.00  0.00     0.000 S
ATOM     14   O  Z9H D   1     107.688  21.152   5.5200  0.00  0.00     0.000 OA
ATOM     15   O  Z9H D   1     106.662  18.812   5.5920  0.00  0.00     0.000 O
ENDBRANCH 2 11
BRANCH 5 16
ATOM     16   C  Z9H D   1     101.268  21.643   6.9840  0.00  0.00     0.000 C
ATOM     17   S  Z9H D   1      99.273  21.541   7.2050  0.00  0.00     0.000 S
ATOM     18   O  Z9H D   1     100.539  21.750   8.1830  0.00  0.00     0.000 O
ATOM     19   O  Z9H D   1      99.178  20.238   6.6110  0.00  0.00     0.000 O
ATOM     20   O  Z9H D   1      98.997  22.742   6.4960  0.00  0.00     0.000 OA
ATOM     21   O  Z9H D   1      98.588  21.609   8.4630  0.00  0.00     0.000 OA
ENDBRANCH 5 16
BRANCH 1 22
ATOM     22  O4  GU1 D   2     104.819  19.326   8.8400  0.00  0.00     0.000 O
BRANCH 22 26
ATOM     23  C1  GU1 D   2     104.138  16.383  11.6400  0.00  0.00     0.000 C
ATOM     24  C2  GU1 D   2     104.724  15.891  10.3260  0.00  0.00     0.000 C
ATOM     25  C3  GU1 D   2     105.274  17.059   9.5590  0.00  0.00     0.000 C
ATOM     26  C4  GU1 D   2     104.226  18.151   9.4050  0.00  0.00     0.000 C
ATOM     27  C5  GU1 D   2     103.625  18.499  10.7700  0.00  0.00     0.000 C
ATOM     28  O5  GU1 D   2     103.104  17.330  11.3980  0.00  0.00     0.000 O
ATOM     29   O  GU1 D   2     105.777  14.957  10.5290  0.00  0.00     0.000 O
ATOM     30   C  GU1 D   2     105.367  13.600  10.4400  0.00  0.00     0.000 C
ATOM     31   C  GU1 D   2     107.058  16.410   8.0790  0.00  0.00     0.000 C
ATOM     32   O  GU1 D   2     105.657  16.605   8.2570  0.00  0.00     0.000 O
BRANCH 27 33
ATOM     33   C  GU1 D   2     102.497  19.493  10.6340  0.00  0.00     0.000 C
ATOM     34   O  GU1 D   2     101.460  19.124  10.1230  0.00  0.00     0.000 OA
ATOM     35   O  GU1 D   2     102.628  20.640  11.0340  0.00  0.00     0.000 O
ENDBRANCH 27 33
BRANCH 23 36
ATOM     36  O4  GU6 D   3     103.332  15.500  12.4450  0.00  0.00     0.000 O
BRANCH 36 40
ATOM     37  C1  GU6 D   3     100.210  13.530  14.1980  0.00  0.00     0.000 C
ATOM     38  C2  GU6 D   3     101.478  13.558  15.0440  0.00  0.00     0.000 C
ATOM     39  C3  GU6 D   3     102.465  14.524  14.4430  0.00  0.00     0.000 C
ATOM     40  C4  GU6 D   3     102.164  15.066  13.1130  0.00  0.00     0.000 C
ATOM     41  C5  GU6 D   3     101.514  13.952  12.2290  0.00  0.00     0.000 C
ATOM     42  O5  GU6 D   3     100.552  13.116  12.8840  0.00  0.00     0.000 O
BRANCH 38 43
ATOM     43   O  GU6 D   3     101.180  13.936  16.3740  0.00  0.00     0.000 O
ATOM     44   S  GU6 D   3     101.652  12.945  17.4300  0.00  0.00     0.000 S
ATOM     45   O  GU6 D   3     100.665  11.857  17.5270  0.00  0.00     0.000 OA
ATOM     46   O  GU6 D   3     102.952  12.392  17.0090  0.00  0.00     0.000 O
ATOM     47   O  GU6 D   3     101.796  13.647  18.7020  0.00  0.00     0.000 OA
ENDBRANCH 38 43
BRANCH 39 48
ATOM     48   O  GU6 D   3     103.515  15.067  15.2200  0.00  0.00     0.000 O
ATOM     49   S  GU6 D   3     103.610  16.414  15.9360  0.00  0.00     0.000 S
ATOM     50   O  GU6 D   3     102.474  16.583  16.8480  0.00  0.00     0.000 OA
ATOM     51   O  GU6 D   3     104.875  16.308  16.6760  0.00  0.00     0.000 OA
ATOM     52   O  GU6 D   3     103.614  17.495  14.9250  0.00  0.00     0.000 O
ENDBRANCH 39 48
BRANCH 41 53
ATOM     53   C  GU6 D   3     101.745  13.641  10.7750  0.00  0.00     0.000 C
ATOM     54   O  GU6 D   3     101.222  14.829  10.2400  0.00  0.00     0.000 O
ATOM     55   S  GU6 D   3     101.100  15.012   8.7210  0.00  0.00     0.000 S
ATOM     56   O  GU6 D   3     100.096  14.029   8.2520  0.00  0.00     0.000 O
ATOM     57   O  GU6 D   3     100.650  16.385   8.4490  0.00  0.00     0.000 OA
ATOM     58   O  GU6 D   3     102.431  14.733   8.1380  0.00  0.00     0.000 OA
ENDBRANCH 41 53
BRANCH 37 59
ATOM     59  O4  Z9K D   4      99.273  14.620  14.0750  0.00  0.00     0.000 O
BRANCH 59 63
ATOM     60  C1  Z9K D   4      96.278  16.953  15.0920  0.00  0.00     0.000 C
ATOM     61  C2  Z9K D   4      96.094  15.775  16.0880  0.00  0.00     0.000 C
ATOM     62  C3  Z9K D   4      97.408  14.928  15.7990  0.00  0.00     0.000 C
ATOM     63  C4  Z9K D   4      97.834  14.658  14.3060  0.00  0.00     0.000 C
ATOM     64  C5  Z9K D   4      97.362  15.691  13.2720  0.00  0.00     0.000 C
ATOM     65  O5  Z9K D   4      97.347  16.926  14.0350  0.00  0.00     0.000 O
ATOM     66   O  Z9K D   4      97.396  13.630  16.4210  0.00  0.00     0.000 O
ATOM     67   C  Z9K D   4      97.850  13.619  17.7640  0.00  0.00     0.000 C
BRANCH 61 68
ATOM     68   O  Z9K D   4      96.241  16.301  17.3790  0.00  0.00     0.000 O
ATOM     69   O  Z9K D   4      94.536  14.393  17.3460  0.00  0.00     0.000 OA
ATOM     70   S  Z9K D   4      94.696  15.816  17.3890  0.00  0.00     0.000 S
ATOM     71   O  Z9K D   4      93.903  16.768  16.6740  0.00  0.00     0.000 OA
ATOM     72   O  Z9K D   4      94.885  16.266  18.7300  0.00  0.00     0.000 OA
ENDBRANCH 61 68
BRANCH 64 73
ATOM     73   C  Z9K D   4      98.221  15.619  11.9920  0.00  0.00     0.000 C
ATOM     74   O  Z9K D   4      98.118  14.649  11.1870  0.00  0.00     0.000 O
ATOM     75   O  Z9K D   4      99.047  16.518  11.6980  0.00  0.00     0.000 OA
ENDBRANCH 64 73
BRANCH 60 76
ATOM     76  O4  Z9L D   5      95.294  17.568  14.2430  0.00  0.00     0.000 O
BRANCH 76 80
ATOM     77  C1  Z9L D   5      94.066  21.031  12.6710  0.00  0.00     0.000 C
ATOM     78  C2  Z9L D   5      94.547  20.106  11.4520  0.00  0.00     0.000 C
ATOM     79  C3  Z9L D   5      94.623  18.524  12.0440  0.00  0.00     0.000 C
ATOM     80  C4  Z9L D   5      95.315  18.771  13.5190  0.00  0.00     0.000 C
ATOM     81  C5  Z9L D   5      94.989  19.856  14.6670  0.00  0.00     0.000 C
ATOM     82  O5  Z9L D   5      94.743  21.098  13.9920  0.00  0.00     0.000 O
ATOM     83   C  Z9L D   5      92.074  21.589  13.9410  0.00  0.00     0.000 C
ATOM     84   C  Z9L D   5      92.074  21.589  13.9410  0.00  0.00     0.000 C
BRANCH 78 85
ATOM     85   O  Z9L D   5      93.581  20.173  10.4520  0.00  0.00     0.000 O
ATOM     86   O  Z9L D   5      93.817  21.023   8.7400  0.00  0.00     0.000 OA
ATOM     87   S  Z9L D   5      94.845  20.842   9.7200  0.00  0.00     0.000 S
ATOM     88   O  Z9L D   5      95.752  19.884   9.1370  0.00  0.00     0.000 OA
ATOM     89   O  Z9L D   5      95.198  22.155  10.1380  0.00  0.00     0.000 OA
ENDBRANCH 78 85
BRANCH 79 90
ATOM     90   O  Z9L D   5      95.592  17.779  11.3770  0.00  0.00     0.000 O
ATOM     91   S  Z9L D   5      94.313  16.874  11.0890  0.00  0.00     0.000 S
ATOM     92   O  Z9L D   5      93.129  17.392  10.4570  0.00  0.00     0.000 OA
ATOM     93   O  Z9L D   5      94.228  15.837  12.0870  0.00  0.00     0.000 O
ATOM     94   O  Z9L D   5      95.169  16.393  10.0530  0.00  0.00     0.000 OA
ENDBRANCH 79 90
BRANCH 81 95
ATOM     95   C  Z9L D   5      95.981  19.865  16.0200  0.00  0.00     0.000 C
ATOM     96   S  Z9L D   5      97.576  20.711  16.8610  0.00  0.00     0.000 S
ATOM     97   O  Z9L D   5      97.156  20.312  15.3970  0.00  0.00     0.000 O
ATOM     98   O  Z9L D   5      97.868  19.485  17.5580  0.00  0.00     0.000 OA
ATOM     99   O  Z9L D   5      96.802  21.742  17.4680  0.00  0.00     0.000 OA
ATOM    100   O  Z9L D   5      98.767  21.137  16.1690  0.00  0.00     0.000 O
ENDBRANCH 81 95
ENDBRANCH 76 80
ENDBRANCH 60 76
ENDBRANCH 59 63
ENDBRANCH 37 59
ENDBRANCH 36 40
ENDBRANCH 23 36
ENDBRANCH 22 26
ENDBRANCH 1 22
TORSDOF 19
ENDMDL
