MODEL 1
REMARK VINA RESULT:      -4.0      0.000      0.000
ROOT
ATOM      1  C1  IDS C   1      18.045   6.277  38.1070  0.00  0.00     0.000 C
ATOM      2  C2  IDS C   1      17.084   7.440  38.2810  0.00  0.00     0.000 C
ATOM      3  C3  IDS C   1      16.100   7.506  37.1200  0.00  0.00     0.000 C
ATOM      4  C4  IDS C   1      15.429   6.152  36.8870  0.00  0.00     0.000 C
ATOM      5  C5  IDS C   1      16.491   5.035  36.8200  0.00  0.00     0.000 C
ATOM      6  O5  IDS C   1      17.313   5.059  37.9830  0.00  0.00     0.000 O
ATOM      7   O  IDS C   1      16.782   7.936  35.9410  0.00  0.00     0.000 O
ATOM      9  HD  IDS C   1      16.136   7.476  35.5930  0.00  0.00     0.000 HD
ATOM      9   O  IDS C   1      14.526   5.886  37.9710  0.00  0.00     0.000 O
ATOM     11  HD  IDS C   1      13.879   5.426  37.6230  0.00  0.00     0.000 HD
ENDROOT
BRANCH 2 11
ATOM     11   O  IDS C   1      16.301   7.273  39.5260  0.00  0.00     0.000 O
ATOM     12   S  IDS C   1      15.997   8.526  40.4700  0.00  0.00     0.000 S
ATOM     13   O  IDS C   1      14.680   8.214  40.9790  0.00  0.00     0.000 OA
ATOM     14   O  IDS C   1      16.025   9.736  39.6840  0.00  0.00     0.000 OA
ATOM     15   O  IDS C   1      17.028   8.479  41.4770  0.00  0.00     0.000 OA
ENDBRANCH 2 11
BRANCH 5 16
ATOM     16   C  IDS C   1      15.893   3.645  36.7050  0.00  0.00     0.000 C
ATOM     17   O  IDS C   1      14.726   3.535  36.3920  0.00  0.00     0.000 OA
ATOM     18   O  IDS C   1      16.553   2.670  36.9340  0.00  0.00     0.000 OA
ENDBRANCH 5 16
BRANCH 1 19
ATOM     19  O4  SGN C   2      19.090   6.417  37.2860  0.00  0.00     0.000 O
BRANCH 19 23
ATOM     20  C1  SGN C   2      22.972   5.113  36.4750  0.00  0.00     0.000 C
ATOM     21  C2  SGN C   2      21.941   4.028  36.8060  0.00  0.00     0.000 C
ATOM     22  C3  SGN C   2      20.531   4.591  36.6460  0.00  0.00     0.000 C
ATOM     23  C4  SGN C   2      20.366   5.822  37.5290  0.00  0.00     0.000 C
ATOM     24  C5  SGN C   2      21.472   6.835  37.2190  0.00  0.00     0.000 C
ATOM     25  O5  SGN C   2      22.760   6.208  37.3520  0.00  0.00     0.000 O
ATOM     26   O  SGN C   2      19.560   3.601  36.9650  0.00  0.00     0.000 O
ATOM     28  HD  SGN C   2      19.037   2.925  37.1080  0.00  0.00     0.000 HD
BRANCH 21 30
ATOM     28   N  SGN C   2      23.104   3.204  36.4520  0.00  0.00     0.000 N
ATOM     30  HD  SGN C   2      23.139   2.875  35.6520  0.00  0.00     0.000 HD
ATOM     30   S  SGN C   2      23.061   1.610  36.5810  0.00  0.00     0.000 S
ATOM     31   O  SGN C   2      21.914   1.203  35.8410  0.00  0.00     0.000 OA
ATOM     32   O  SGN C   2      24.337   1.097  36.2470  0.00  0.00     0.000 OA
ATOM     33   O  SGN C   2      22.853   1.358  38.1140  0.00  0.00     0.000 OA
ENDBRANCH 21 30
BRANCH 24 34
ATOM     34   C  SGN C   2      21.481   8.027  38.1460  0.00  0.00     0.000 C
ATOM     35   O  SGN C   2      21.171   7.584  39.4790  0.00  0.00     0.000 O
ATOM     36   S  SGN C   2      20.664   8.691  40.5120  0.00  0.00     0.000 S
ATOM     37   O  SGN C   2      19.545   9.330  39.8490  0.00  0.00     0.000 OA
ATOM     38   O  SGN C   2      20.289   7.969  41.7040  0.00  0.00     0.000 OA
ATOM     39   O  SGN C   2      21.808   9.552  40.6890  0.00  0.00     0.000 OA
ENDBRANCH 24 34
BRANCH 20 40
ATOM     40  O4  IDS C   3      23.016   5.558  35.2220  0.00  0.00     0.000 O
BRANCH 40 44
ATOM     41  C1  IDS C   3      23.937   5.831  31.8300  0.00  0.00     0.000 C
ATOM     42  C2  IDS C   3      24.526   4.750  32.7320  0.00  0.00     0.000 C
ATOM     43  C3  IDS C   3      25.093   5.372  34.0060  0.00  0.00     0.000 C
ATOM     44  C4  IDS C   3      24.097   6.312  34.6660  0.00  0.00     0.000 C
ATOM     45  C5  IDS C   3      23.551   7.314  33.6270  0.00  0.00     0.000 C
ATOM     46  O5  IDS C   3      22.966   6.598  32.5370  0.00  0.00     0.000 O
ATOM     47   O  IDS C   3      26.293   6.077  33.6940  0.00  0.00     0.000 O
ATOM     49  HD  IDS C   3      25.843   5.349  33.8270  0.00  0.00     0.000 HD
BRANCH 42 49
ATOM     49   O  IDS C   3      23.477   3.774  33.1080  0.00  0.00     0.000 O
ATOM     50   S  IDS C   3      22.765   2.897  31.9720  0.00  0.00     0.000 S
ATOM     51   O  IDS C   3      23.797   1.965  31.5750  0.00  0.00     0.000 OA
ATOM     52   O  IDS C   3      22.348   3.765  30.8830  0.00  0.00     0.000 OA
ATOM     53   O  IDS C   3      21.640   2.252  32.6140  0.00  0.00     0.000 OA
ENDBRANCH 42 49
BRANCH 45 54
ATOM     54   C  IDS C   3      22.514   8.268  34.1970  0.00  0.00     0.000 C
ATOM     55   O  IDS C   3      22.852   9.116  34.9820  0.00  0.00     0.000 OA
ATOM     56   O  IDS C   3      21.348   8.162  33.8720  0.00  0.00     0.000 OA
ENDBRANCH 45 54
BRANCH 41 57
ATOM     57  O4  SGN C   4      24.963   6.419  31.2020  0.00  0.00     0.000 O
BRANCH 57 61
ATOM     58  C1  SGN C   4      25.584   8.925  27.9060  0.00  0.00     0.000 C
ATOM     59  C2  SGN C   4      24.670   9.461  29.0190  0.00  0.00     0.000 C
ATOM     60  C3  SGN C   4      24.848   8.660  30.3170  0.00  0.00     0.000 C
ATOM     61  C4  SGN C   4      24.649   7.181  30.0330  0.00  0.00     0.000 C
ATOM     62  C5  SGN C   4      25.567   6.725  28.8990  0.00  0.00     0.000 C
ATOM     63  O5  SGN C   4      25.362   7.534  27.7250  0.00  0.00     0.000 O
BRANCH 59 66
ATOM     64   N  SGN C   4      24.948  10.899  29.0760  0.00  0.00     0.000 N
ATOM     66  HD  SGN C   4      24.696  10.093  29.2680  0.00  0.00     0.000 HD
ATOM     66   O  SGN C   4      24.315  13.251  29.0260  0.00  0.00     0.000 OA
ATOM     67   O  SGN C   4      23.249  11.661  27.4840  0.00  0.00     0.000 OA
ATOM     68   S  SGN C   4      23.743  11.951  28.9440  0.00  0.00     0.000 S
ATOM     69   O  SGN C   4      22.723  11.580  29.8580  0.00  0.00     0.000 OA
ENDBRANCH 59 66
BRANCH 62 70
ATOM     70   C  SGN C   4      25.294   5.295  28.5070  0.00  0.00     0.000 C
ATOM     71   S  SGN C   4      26.091   3.391  26.9870  0.00  0.00     0.000 S
ATOM     72   O  SGN C   4      25.988   2.474  28.1050  0.00  0.00     0.000 OA
ATOM     73   O  SGN C   4      24.866   3.504  26.2220  0.00  0.00     0.000 OA
ATOM     74   O  SGN C   4      27.268   3.181  26.1740  0.00  0.00     0.000 OA
ATOM     75   O  SGN C   4      26.336   4.812  27.6500  0.00  0.00     0.000 O
ENDBRANCH 62 70
ENDBRANCH 57 61
ENDBRANCH 41 57
ENDBRANCH 40 44
ENDBRANCH 20 40
ENDBRANCH 19 23
ENDBRANCH 1 19
TORSDOF 14
ENDMDL
MODEL 2
REMARK VINA RESULT:      -2.2      3.990      6.890
ROOT
ATOM      1  C1  IDS C   1      22.785  10.031  39.6410  0.00  0.00     0.000 C
ATOM      2  C2  IDS C   1      23.581  11.315  39.4950  0.00  0.00     0.000 C
ATOM      3  C3  IDS C   1      23.153  12.077  38.2470  0.00  0.00     0.000 C
ATOM      4  C4  IDS C   1      21.635  12.257  38.2030  0.00  0.00     0.000 C
ATOM      5  C5  IDS C   1      20.931  10.909  38.4560  0.00  0.00     0.000 C
ATOM      6  O5  IDS C   1      21.390  10.328  39.6720  0.00  0.00     0.000 O
ATOM      7   O  IDS C   1      23.608  11.382  37.0850  0.00  0.00     0.000 O
ATOM      9  HD  IDS C   1      22.917  11.794  36.7640  0.00  0.00     0.000 HD
ATOM      9   O  IDS C   1      21.247  13.195  39.2180  0.00  0.00     0.000 O
ATOM     11  HD  IDS C   1      20.556  13.608  38.8980  0.00  0.00     0.000 HD
ENDROOT
BRANCH 2 11
ATOM     11   O  IDS C   1      23.348  12.196  40.6610  0.00  0.00     0.000 O
ATOM     12   S  IDS C   1      24.563  12.645  41.5970  0.00  0.00     0.000 S
ATOM     13   O  IDS C   1      24.175  13.985  41.9810  0.00  0.00     0.000 OA
ATOM     14   O  IDS C   1      25.790  12.609  40.8390  0.00  0.00     0.000 OA
ATOM     15   O  IDS C   1      24.544  11.706  42.6910  0.00  0.00     0.000 OA
ENDBRANCH 2 11
BRANCH 5 16
ATOM     16   C  IDS C   1      19.420  11.029  38.5420  0.00  0.00     0.000 C
ATOM     17   O  IDS C   1      18.788  10.116  39.0310  0.00  0.00     0.000 OA
ATOM     18   O  IDS C   1      18.855  12.000  38.1200  0.00  0.00     0.000 OA
ENDBRANCH 5 16
BRANCH 1 19
ATOM     19  O4  SGN C   2      23.139   8.962  38.9210  0.00  0.00     0.000 O
BRANCH 19 23
ATOM     20  C1  SGN C   2      23.301   4.793  38.8150  0.00  0.00     0.000 C
ATOM     21  C2  SGN C   2      21.904   5.424  38.7970  0.00  0.00     0.000 C
ATOM     22  C3  SGN C   2      22.008   6.895  38.4040  0.00  0.00     0.000 C
ATOM     23  C4  SGN C   2      22.948   7.617  39.3620  0.00  0.00     0.000 C
ATOM     24  C5  SGN C   2      24.298   6.896  39.4080  0.00  0.00     0.000 C
ATOM     25  O5  SGN C   2      24.099   5.510  39.7420  0.00  0.00     0.000 O
ATOM     26   O  SGN C   2      20.721   7.502  38.3970  0.00  0.00     0.000 O
ATOM     28  HD  SGN C   2      19.900   7.775  38.3500  0.00  0.00     0.000 HD
BRANCH 21 30
ATOM     28   N  SGN C   2      21.327   4.317  38.0230  0.00  0.00     0.000 N
ATOM     30  HD  SGN C   2      20.668   4.495  37.4890  0.00  0.00     0.000 HD
ATOM     30   S  SGN C   2      20.046   3.516  38.5490  0.00  0.00     0.000 S
ATOM     31   O  SGN C   2      19.061   4.510  38.8120  0.00  0.00     0.000 OA
ATOM     32   O  SGN C   2      19.767   2.467  37.6400  0.00  0.00     0.000 OA
ATOM     33   O  SGN C   2      20.535   2.850  39.8800  0.00  0.00     0.000 OA
ENDBRANCH 21 30
BRANCH 24 34
ATOM     34   C  SGN C   2      25.248   7.451  40.4430  0.00  0.00     0.000 C
ATOM     35   O  SGN C   2      26.272   8.211  39.7770  0.00  0.00     0.000 O
ATOM     36   S  SGN C   2      27.618   8.485  40.5910  0.00  0.00     0.000 S
ATOM     37   O  SGN C   2      28.065   7.173  41.0160  0.00  0.00     0.000 OA
ATOM     38   O  SGN C   2      28.514   9.123  39.6580  0.00  0.00     0.000 OA
ATOM     39   O  SGN C   2      27.200   9.340  41.6750  0.00  0.00     0.000 OA
ENDBRANCH 24 34
BRANCH 20 40
ATOM     40  O4  IDS C   3      23.950   4.701  37.6570  0.00  0.00     0.000 O
BRANCH 40 44
ATOM     41  C1  IDS C   3      25.351   4.072  34.4840  0.00  0.00     0.000 C
ATOM     42  C2  IDS C   3      23.960   3.566  34.8560  0.00  0.00     0.000 C
ATOM     43  C3  IDS C   3      24.010   2.797  36.1740  0.00  0.00     0.000 C
ATOM     44  C4  IDS C   3      24.739   3.579  37.2550  0.00  0.00     0.000 C
ATOM     45  C5  IDS C   3      26.103   4.066  36.7210  0.00  0.00     0.000 C
ATOM     46  O5  IDS C   3      25.901   4.850  35.5430  0.00  0.00     0.000 O
ATOM     47   O  IDS C   3      24.652   1.542  35.9650  0.00  0.00     0.000 O
ATOM     49  HD  IDS C   3      23.977   2.079  35.8950  0.00  0.00     0.000 HD
BRANCH 42 49
ATOM     49   O  IDS C   3      23.027   4.707  35.0090  0.00  0.00     0.000 O
ATOM     50   S  IDS C   3      21.646   4.717  34.1960  0.00  0.00     0.000 S
ATOM     51   O  IDS C   3      20.860   3.704  34.8630  0.00  0.00     0.000 OA
ATOM     52   O  IDS C   3      21.904   4.396  32.8020  0.00  0.00     0.000 OA
ATOM     53   O  IDS C   3      21.101   6.049  34.3550  0.00  0.00     0.000 OA
ENDBRANCH 42 49
BRANCH 45 54
ATOM     54   C  IDS C   3      26.883   4.894  37.7300  0.00  0.00     0.000 C
ATOM     55   O  IDS C   3      27.121   4.438  38.8190  0.00  0.00     0.000 OA
ATOM     56   O  IDS C   3      27.249   6.016  37.4410  0.00  0.00     0.000 OA
ENDBRANCH 45 54
BRANCH 41 57
ATOM     57  O4  SGN C   4      26.018   3.034  33.9650  0.00  0.00     0.000 O
BRANCH 57 61
ATOM     58  C1  SGN C   4      29.376   2.371  31.5540  0.00  0.00     0.000 C
ATOM     59  C2  SGN C   4      29.634   2.959  32.9510  0.00  0.00     0.000 C
ATOM     60  C3  SGN C   4      28.415   2.771  33.8640  0.00  0.00     0.000 C
ATOM     61  C4  SGN C   4      27.180   3.342  33.1880  0.00  0.00     0.000 C
ATOM     62  C5  SGN C   4      27.003   2.736  31.7960  0.00  0.00     0.000 C
ATOM     63  O5  SGN C   4      28.191   2.928  31.0050  0.00  0.00     0.000 O
BRANCH 59 66
ATOM     64   N  SGN C   4      30.907   2.357  33.3590  0.00  0.00     0.000 N
ATOM     66  HD  SGN C   4      30.128   2.735  33.3610  0.00  0.00     0.000 HD
ATOM     66   O  SGN C   4      33.189   2.436  34.2080  0.00  0.00     0.000 OA
ATOM     67   O  SGN C   4      32.407   4.152  32.6310  0.00  0.00     0.000 OA
ATOM     68   S  SGN C   4      32.093   3.291  33.9030  0.00  0.00     0.000 S
ATOM     69   O  SGN C   4      31.568   4.137  34.9140  0.00  0.00     0.000 OA
ENDBRANCH 59 66
BRANCH 62 70
ATOM     70   C  SGN C   4      25.863   3.384  31.0510  0.00  0.00     0.000 C
ATOM     71   S  SGN C   4      25.143   5.537  29.8600  0.00  0.00     0.000 S
ATOM     72   O  SGN C   4      24.612   4.740  28.7710  0.00  0.00     0.000 OA
ATOM     73   O  SGN C   4      24.180   5.783  30.9140  0.00  0.00     0.000 OA
ATOM     74   O  SGN C   4      25.842   6.723  29.4210  0.00  0.00     0.000 OA
ATOM     75   O  SGN C   4      26.285   4.638  30.5000  0.00  0.00     0.000 O
ENDBRANCH 62 70
ENDBRANCH 57 61
ENDBRANCH 41 57
ENDBRANCH 40 44
ENDBRANCH 20 40
ENDBRANCH 19 23
ENDBRANCH 1 19
TORSDOF 14
ENDMDL
MODEL 3
REMARK VINA RESULT:      -1.7      4.317      6.402
ROOT
ATOM      1  C1  IDS C   1      22.082  12.510  40.7400  0.00  0.00     0.000 C
ATOM      2  C2  IDS C   1      22.017  14.000  40.4550  0.00  0.00     0.000 C
ATOM      3  C3  IDS C   1      20.744  14.350  39.6940  0.00  0.00     0.000 C
ATOM      4  C4  IDS C   1      19.510  13.778  40.3910  0.00  0.00     0.000 C
ATOM      5  C5  IDS C   1      19.723  12.286  40.7160  0.00  0.00     0.000 C
ATOM      6  O5  IDS C   1      20.921  12.105  41.4640  0.00  0.00     0.000 O
ATOM      7   O  IDS C   1      20.837  13.855  38.3570  0.00  0.00     0.000 O
ATOM      9  HD  IDS C   1      19.978  13.857  38.4680  0.00  0.00     0.000 HD
ATOM      9   O  IDS C   1      19.284  14.503  41.6100  0.00  0.00     0.000 O
ATOM     11  HD  IDS C   1      18.425  14.505  41.7210  0.00  0.00     0.000 HD
ENDROOT
BRANCH 2 11
ATOM     11   O  IDS C   1      22.007  14.762  41.7230  0.00  0.00     0.000 O
ATOM     12   S  IDS C   1      23.364  15.021  42.5280  0.00  0.00     0.000 S
ATOM     13   O  IDS C   1      23.140  16.334  43.0900  0.00  0.00     0.000 OA
ATOM     14   O  IDS C   1      24.478  14.982  41.6110  0.00  0.00     0.000 OA
ATOM     15   O  IDS C   1      23.405  13.972  43.5160  0.00  0.00     0.000 OA
ENDBRANCH 2 11
BRANCH 5 16
ATOM     16   C  IDS C   1      18.584  11.676  41.5130  0.00  0.00     0.000 C
ATOM     17   O  IDS C   1      18.538  11.872  42.7090  0.00  0.00     0.000 OA
ATOM     18   O  IDS C   1      17.751  10.999  40.9770  0.00  0.00     0.000 OA
ENDBRANCH 5 16
BRANCH 1 19
ATOM     19  O4  SGN C   2      22.485  11.681  39.7720  0.00  0.00     0.000 O
BRANCH 19 23
ATOM     20  C1  SGN C   2      24.976   8.458  38.8610  0.00  0.00     0.000 C
ATOM     21  C2  SGN C   2      23.644   8.122  39.5420  0.00  0.00     0.000 C
ATOM     22  C3  SGN C   2      22.686   9.304  39.4120  0.00  0.00     0.000 C
ATOM     23  C4  SGN C   2      23.330  10.553  40.0030  0.00  0.00     0.000 C
ATOM     24  C5  SGN C   2      24.695  10.792  39.3500  0.00  0.00     0.000 C
ATOM     25  O5  SGN C   2      25.512   9.615  39.4820  0.00  0.00     0.000 O
ATOM     26   O  SGN C   2      21.449   9.016  40.0530  0.00  0.00     0.000 O
ATOM     28  HD  SGN C   2      20.708   8.736  40.4030  0.00  0.00     0.000 HD
BRANCH 21 30
ATOM     28   N  SGN C   2      23.756   6.789  38.9340  0.00  0.00     0.000 N
ATOM     30  HD  SGN C   2      23.049   6.449  38.5680  0.00  0.00     0.000 HD
ATOM     30   S  SGN C   2      23.374   5.470  39.7540  0.00  0.00     0.000 S
ATOM     31   O  SGN C   2      22.050   5.693  40.2300  0.00  0.00     0.000 OA
ATOM     32   O  SGN C   2      23.653   4.342  38.9440  0.00  0.00     0.000 OA
ATOM     33   O  SGN C   2      24.398   5.448  40.9390  0.00  0.00     0.000 OA
ENDBRANCH 21 30
BRANCH 24 34
ATOM     34   C  SGN C   2      25.476  11.924  39.9750  0.00  0.00     0.000 C
ATOM     35   O  SGN C   2      26.723  11.411  40.4770  0.00  0.00     0.000 O
ATOM     36   S  SGN C   2      27.482  12.292  41.5700  0.00  0.00     0.000 S
ATOM     37   O  SGN C   2      26.498  12.517  42.6110  0.00  0.00     0.000 OA
ATOM     38   O  SGN C   2      28.603  11.493  42.0030  0.00  0.00     0.000 OA
ATOM     39   O  SGN C   2      27.860  13.486  40.8540  0.00  0.00     0.000 OA
ENDBRANCH 24 34
BRANCH 20 40
ATOM     40  O4  IDS C   3      24.966   8.634  37.5420  0.00  0.00     0.000 O
BRANCH 40 44
ATOM     41  C1  IDS C   3      24.900   8.566  34.0180  0.00  0.00     0.000 C
ATOM     42  C2  IDS C   3      24.435   7.372  34.8470  0.00  0.00     0.000 C
ATOM     43  C3  IDS C   3      25.506   6.984  35.8640  0.00  0.00     0.000 C
ATOM     44  C4  IDS C   3      25.995   8.187  36.6550  0.00  0.00     0.000 C
ATOM     45  C5  IDS C   3      26.381   9.328  35.6900  0.00  0.00     0.000 C
ATOM     46  O5  IDS C   3      25.262   9.654  34.8640  0.00  0.00     0.000 O
ATOM     47   O  IDS C   3      26.600   6.370  35.1880  0.00  0.00     0.000 O
ATOM     49  HD  IDS C   3      25.794   6.366  35.5050  0.00  0.00     0.000 HD
BRANCH 42 49
ATOM     49   O  IDS C   3      23.191   7.712  35.5760  0.00  0.00     0.000 O
ATOM     50   S  IDS C   3      21.926   6.733  35.4840  0.00  0.00     0.000 S
ATOM     51   O  IDS C   3      22.332   5.589  36.2710  0.00  0.00     0.000 OA
ATOM     52   O  IDS C   3      21.677   6.394  34.0930  0.00  0.00     0.000 OA
ATOM     53   O  IDS C   3      20.819   7.457  36.0730  0.00  0.00     0.000 OA
ENDBRANCH 42 49
BRANCH 45 54
ATOM     54   C  IDS C   3      26.845  10.588  36.4030  0.00  0.00     0.000 C
ATOM     55   O  IDS C   3      26.273  11.629  36.2080  0.00  0.00     0.000 OA
ATOM     56   O  IDS C   3      27.801  10.544  37.1530  0.00  0.00     0.000 OA
ENDBRANCH 45 54
BRANCH 41 57
ATOM     57  O4  SGN C   4      25.745   8.095  33.0930  0.00  0.00     0.000 O
BRANCH 57 61
ATOM     58  C1  SGN C   4      27.502   9.438  29.5380  0.00  0.00     0.000 C
ATOM     59  C2  SGN C   4      27.554  10.396  30.7390  0.00  0.00     0.000 C
ATOM     60  C3  SGN C   4      27.263   9.655  32.0520  0.00  0.00     0.000 C
ATOM     61  C4  SGN C   4      25.946   8.907  31.9320  0.00  0.00     0.000 C
ATOM     62  C5  SGN C   4      25.954   7.999  30.7030  0.00  0.00     0.000 C
ATOM     63  O5  SGN C   4      26.257   8.756  29.5160  0.00  0.00     0.000 O
BRANCH 59 66
ATOM     64   N  SGN C   4      28.846  11.074  30.6020  0.00  0.00     0.000 N
ATOM     66  HD  SGN C   4      28.112  10.741  30.9170  0.00  0.00     0.000 HD
ATOM     66   O  SGN C   4      30.282  13.039  30.4830  0.00  0.00     0.000 OA
ATOM     67   O  SGN C   4      28.090  13.051  29.3700  0.00  0.00     0.000 OA
ATOM     68   S  SGN C   4      28.915  12.676  30.6490  0.00  0.00     0.000 S
ATOM     69   O  SGN C   4      28.213  13.121  31.7980  0.00  0.00     0.000 OA
ENDBRANCH 59 66
BRANCH 62 70
ATOM     70   C  SGN C   4      24.611   7.348  30.4860  0.00  0.00     0.000 C
ATOM     71   S  SGN C   4      23.195   6.078  28.7680  0.00  0.00     0.000 S
ATOM     72   O  SGN C   4      22.814   5.135  29.8010  0.00  0.00     0.000 OA
ATOM     73   O  SGN C   4      22.305   7.218  28.6760  0.00  0.00     0.000 OA
ATOM     74   O  SGN C   4      23.479   5.458  27.4950  0.00  0.00     0.000 OA
ATOM     75   O  SGN C   4      24.601   6.647  29.2370  0.00  0.00     0.000 O
ENDBRANCH 62 70
ENDBRANCH 57 61
ENDBRANCH 41 57
ENDBRANCH 40 44
ENDBRANCH 20 40
ENDBRANCH 19 23
ENDBRANCH 1 19
TORSDOF 14
ENDMDL
MODEL 4
REMARK VINA RESULT:      -0.8     52.618     57.832
ROOT
ATOM      1  C1  IDS C   1      11.418  21.654  92.8810  0.00  0.00     0.000 C
ATOM      2  C2  IDS C   1      10.216  21.739  93.8050  0.00  0.00     0.000 C
ATOM      3  C3  IDS C   1      10.323  20.716  94.9290  0.00  0.00     0.000 C
ATOM      4  C4  IDS C   1      11.678  20.808  95.6320  0.00  0.00     0.000 C
ATOM      5  C5  IDS C   1      12.819  20.807  94.5940  0.00  0.00     0.000 C
ATOM      6  O5  IDS C   1      12.618  21.836  93.6320  0.00  0.00     0.000 O
ATOM      7   O  IDS C   1      10.124  19.404  94.3990  0.00  0.00     0.000 O
ATOM      9  HD  IDS C   1      10.618  19.225  95.0870  0.00  0.00     0.000 HD
ATOM      9   O  IDS C   1      11.727  22.025  96.3920  0.00  0.00     0.000 O
ATOM     11  HD  IDS C   1      12.221  21.846  97.0800  0.00  0.00     0.000 HD
ENDROOT
BRANCH 2 11
ATOM     11   O  IDS C   1      10.142  23.081  94.4250  0.00  0.00     0.000 O
ATOM     12   S  IDS C   1       9.013  24.121  93.9830  0.00  0.00     0.000 S
ATOM     13   O  IDS C   1       8.732  24.814  95.2210  0.00  0.00     0.000 OA
ATOM     14   O  IDS C   1       7.873  23.400  93.4700  0.00  0.00     0.000 OA
ATOM     15   O  IDS C   1       9.651  24.952  92.9920  0.00  0.00     0.000 OA
ENDBRANCH 2 11
BRANCH 5 16
ATOM     16   C  IDS C   1      14.190  21.012  95.2110  0.00  0.00     0.000 C
ATOM     17   O  IDS C   1      15.159  21.051  94.4830  0.00  0.00     0.000 OA
ATOM     18   O  IDS C   1      14.321  21.118  96.3990  0.00  0.00     0.000 OA
ENDBRANCH 5 16
BRANCH 1 19
ATOM     19  O4  SGN C   2      11.452  20.698  91.9480  0.00  0.00     0.000 O
BRANCH 19 23
ATOM     20  C1  SGN C   2      12.885  19.646  88.1710  0.00  0.00     0.000 C
ATOM     21  C2  SGN C   2      13.911  19.672  89.3100  0.00  0.00     0.000 C
ATOM     22  C3  SGN C   2      13.190  19.637  90.6550  0.00  0.00     0.000 C
ATOM     23  C4  SGN C   2      12.211  20.802  90.7420  0.00  0.00     0.000 C
ATOM     24  C5  SGN C   2      11.267  20.779  89.5370  0.00  0.00     0.000 C
ATOM     25  O5  SGN C   2      12.031  20.769  88.3180  0.00  0.00     0.000 O
ATOM     26   O  SGN C   2      14.128  19.677  91.7240  0.00  0.00     0.000 O
ATOM     28  HD  SGN C   2      14.763  19.634  92.3120  0.00  0.00     0.000 HD
BRANCH 21 30
ATOM     28   N  SGN C   2      14.725  18.645  88.6460  0.00  0.00     0.000 N
ATOM     30  HD  SGN C   2      15.146  18.076  89.1440  0.00  0.00     0.000 HD
ATOM     30   S  SGN C   2      16.293  18.857  88.4060  0.00  0.00     0.000 S
ATOM     31   O  SGN C   2      16.830  19.171  89.6870  0.00  0.00     0.000 OA
ATOM     32   O  SGN C   2      16.790  17.745  87.6830  0.00  0.00     0.000 OA
ATOM     33   O  SGN C   2      16.368  20.096  87.4500  0.00  0.00     0.000 OA
ENDBRANCH 21 30
BRANCH 24 34
ATOM     34   C  SGN C   2      10.354  21.980  89.4590  0.00  0.00     0.000 C
ATOM     35   O  SGN C   2       9.043  21.602  89.9140  0.00  0.00     0.000 O
ATOM     36   S  SGN C   2       7.827  22.543  89.4840  0.00  0.00     0.000 S
ATOM     37   O  SGN C   2       7.925  22.636  88.0400  0.00  0.00     0.000 OA
ATOM     38   O  SGN C   2       6.634  21.868  89.9360  0.00  0.00     0.000 OA
ATOM     39   O  SGN C   2       8.088  23.785  90.1690  0.00  0.00     0.000 OA
ENDBRANCH 24 34
BRANCH 20 40
ATOM     40  O4  IDS C   3      12.145  18.549  88.0350  0.00  0.00     0.000 O
BRANCH 40 44
ATOM     41  C1  IDS C   3      10.427  15.520  87.4830  0.00  0.00     0.000 C
ATOM     42  C2  IDS C   3      11.949  15.569  87.5740  0.00  0.00     0.000 C
ATOM     43  C3  IDS C   3      12.505  16.625  86.6220  0.00  0.00     0.000 C
ATOM     44  C4  IDS C   3      11.792  17.958  86.7810  0.00  0.00     0.000 C
ATOM     45  C5  IDS C   3      10.265  17.748  86.7170  0.00  0.00     0.000 C
ATOM     46  O5  IDS C   3       9.870  16.810  87.7210  0.00  0.00     0.000 O
ATOM     47   O  IDS C   3      12.380  16.164  85.2790  0.00  0.00     0.000 O
ATOM     49  HD  IDS C   3      12.754  16.160  86.0600  0.00  0.00     0.000 HD
BRANCH 42 49
ATOM     49   O  IDS C   3      12.366  15.909  88.9540  0.00  0.00     0.000 O
ATOM     50   S  IDS C   3      13.554  15.089  89.6500  0.00  0.00     0.000 S
ATOM     51   O  IDS C   3      14.732  15.548  88.9490  0.00  0.00     0.000 OA
ATOM     52   O  IDS C   3      13.322  13.664  89.4770  0.00  0.00     0.000 OA
ATOM     53   O  IDS C   3      13.541  15.476  91.0450  0.00  0.00     0.000 OA
ENDBRANCH 42 49
BRANCH 45 54
ATOM     54   C  IDS C   3       9.471  19.031  86.9080  0.00  0.00     0.000 C
ATOM     55   O  IDS C   3       9.675  19.971  86.1850  0.00  0.00     0.000 OA
ATOM     56   O  IDS C   3       8.648  19.108  87.7990  0.00  0.00     0.000 OA
ENDBRANCH 45 54
BRANCH 41 57
ATOM     57  O4  SGN C   4      10.123  14.826  86.3790  0.00  0.00     0.000 O
BRANCH 57 61
ATOM     58  C1  SGN C   4       6.739  13.135  84.5850  0.00  0.00     0.000 C
ATOM     59  C2  SGN C   4       6.770  14.668  84.6950  0.00  0.00     0.000 C
ATOM     60  C3  SGN C   4       8.191  15.175  84.9770  0.00  0.00     0.000 C
ATOM     61  C4  SGN C   4       8.748  14.471  86.2020  0.00  0.00     0.000 C
ATOM     62  C5  SGN C   4       8.659  12.954  86.0360  0.00  0.00     0.000 C
ATOM     63  O5  SGN C   4       7.305  12.554  85.7500  0.00  0.00     0.000 O
BRANCH 59 66
ATOM     64   N  SGN C   4       6.099  15.125  83.4740  0.00  0.00     0.000 N
ATOM     66  HD  SGN C   4       6.593  15.080  84.1840  0.00  0.00     0.000 HD
ATOM     66   O  SGN C   4       4.453  16.433  82.2430  0.00  0.00     0.000 OA
ATOM     67   O  SGN C   4       3.835  15.376  84.3750  0.00  0.00     0.000 OA
ATOM     68   S  SGN C   4       4.906  16.193  83.5710  0.00  0.00     0.000 S
ATOM     69   O  SGN C   4       5.345  17.284  84.3650  0.00  0.00     0.000 OA
ENDBRANCH 59 66
BRANCH 62 70
ATOM     70   C  SGN C   4       9.081  12.233  87.2910  0.00  0.00     0.000 C
ATOM     71   S  SGN C   4       8.821  12.219  89.8410  0.00  0.00     0.000 S
ATOM     72   O  SGN C   4       8.627  10.783  89.7990  0.00  0.00     0.000 OA
ATOM     73   O  SGN C   4      10.211  12.606  89.9730  0.00  0.00     0.000 OA
ATOM     74   O  SGN C   4       7.937  12.895  90.7640  0.00  0.00     0.000 OA
ATOM     75   O  SGN C   4       8.348  12.733  88.4160  0.00  0.00     0.000 O
ENDBRANCH 62 70
ENDBRANCH 57 61
ENDBRANCH 41 57
ENDBRANCH 40 44
ENDBRANCH 20 40
ENDBRANCH 19 23
ENDBRANCH 1 19
TORSDOF 14
ENDMDL
MODEL 5
REMARK VINA RESULT:      -0.8     82.847     86.515
ROOT
ATOM      1  C1  IDS C   1      95.319  15.978  83.7150  0.00  0.00     0.000 C
ATOM      2  C2  IDS C   1      96.119  16.367  84.9450  0.00  0.00     0.000 C
ATOM      3  C3  IDS C   1      96.476  15.137  85.7690  0.00  0.00     0.000 C
ATOM      4  C4  IDS C   1      97.124  14.059  84.9000  0.00  0.00     0.000 C
ATOM      5  C5  IDS C   1      96.276  13.813  83.6360  0.00  0.00     0.000 C
ATOM      6  O5  IDS C   1      96.054  15.034  82.9390  0.00  0.00     0.000 O
ATOM      7   O  IDS C   1      95.300  14.629  86.4020  0.00  0.00     0.000 O
ATOM      9  HD  IDS C   1      95.774  13.907  86.3430  0.00  0.00     0.000 HD
ATOM      9   O  IDS C   1      98.437  14.496  84.5150  0.00  0.00     0.000 O
ATOM     11  HD  IDS C   1      98.911  13.774  84.4570  0.00  0.00     0.000 HD
ENDROOT
BRANCH 2 11
ATOM     11   O  IDS C   1      97.384  17.023  84.5450  0.00  0.00     0.000 O
ATOM     12   S  IDS C   1      97.624  18.576  84.8380  0.00  0.00     0.000 S
ATOM     13   O  IDS C   1      99.044  18.621  85.1090  0.00  0.00     0.000 OA
ATOM     14   O  IDS C   1      96.822  18.979  85.9680  0.00  0.00     0.000 OA
ATOM     15   O  IDS C   1      97.251  19.238  83.6130  0.00  0.00     0.000 OA
ENDBRANCH 2 11
BRANCH 5 16
ATOM     16   C  IDS C   1      96.916  12.836  82.6660  0.00  0.00     0.000 C
ATOM     17   O  IDS C   1      96.298  12.507  81.6750  0.00  0.00     0.000 OA
ATOM     18   O  IDS C   1      98.007  12.383  82.8780  0.00  0.00     0.000 OA
ENDBRANCH 5 16
BRANCH 1 19
ATOM     19  O4  SGN C   2      94.010  15.737  83.8420  0.00  0.00     0.000 O
BRANCH 19 23
ATOM     20  C1  SGN C   2      90.293  15.919  81.9510  0.00  0.00     0.000 C
ATOM     21  C2  SGN C   2      91.256  14.829  81.4650  0.00  0.00     0.000 C
ATOM     22  C3  SGN C   2      92.350  14.606  82.5060  0.00  0.00     0.000 C
ATOM     23  C4  SGN C   2      93.070  15.921  82.7820  0.00  0.00     0.000 C
ATOM     24  C5  SGN C   2      92.054  16.996  83.1780  0.00  0.00     0.000 C
ATOM     25  O5  SGN C   2      91.039  17.106  82.1640  0.00  0.00     0.000 O
ATOM     26   O  SGN C   2      93.263  13.608  82.0640  0.00  0.00     0.000 O
ATOM     28  HD  SGN C   2      93.729  12.947  81.7540  0.00  0.00     0.000 HD
BRANCH 21 30
ATOM     28   N  SGN C   2      90.045  14.158  80.9740  0.00  0.00     0.000 N
ATOM     30  HD  SGN C   2      89.931  13.324  81.1790  0.00  0.00     0.000 HD
ATOM     30   S  SGN C   2      90.058  13.317  79.6120  0.00  0.00     0.000 S
ATOM     31   O  SGN C   2      91.124  12.385  79.7550  0.00  0.00     0.000 OA
ATOM     32   O  SGN C   2      88.744  12.856  79.3570  0.00  0.00     0.000 OA
ATOM     33   O  SGN C   2      90.391  14.382  78.5120  0.00  0.00     0.000 OA
ENDBRANCH 21 30
BRANCH 24 34
ATOM     34   C  SGN C   2      92.656  18.374  83.3290  0.00  0.00     0.000 C
ATOM     35   O  SGN C   2      92.803  18.669  84.7290  0.00  0.00     0.000 O
ATOM     36   S  SGN C   2      92.964  20.205  85.1330  0.00  0.00     0.000 S
ATOM     37   O  SGN C   2      91.826  20.868  84.5270  0.00  0.00     0.000 OA
ATOM     38   O  SGN C   2      92.943  20.232  86.5760  0.00  0.00     0.000 OA
ATOM     39   O  SGN C   2      94.234  20.584  84.5630  0.00  0.00     0.000 OA
ENDBRANCH 24 34
BRANCH 20 40
ATOM     40  O4  IDS C   3      89.565  15.659  83.0350  0.00  0.00     0.000 O
BRANCH 40 44
ATOM     41  C1  IDS C   3      87.397  14.790  85.6750  0.00  0.00     0.000 C
ATOM     42  C2  IDS C   3      87.506  13.933  84.4170  0.00  0.00     0.000 C
ATOM     43  C3  IDS C   3      87.316  14.793  83.1700  0.00  0.00     0.000 C
ATOM     44  C4  IDS C   3      88.196  16.033  83.2020  0.00  0.00     0.000 C
ATOM     45  C5  IDS C   3      88.017  16.769  84.5460  0.00  0.00     0.000 C
ATOM     46  O5  IDS C   3      88.318  15.876  85.6220  0.00  0.00     0.000 O
ATOM     47   O  IDS C   3      85.946  15.171  83.0600  0.00  0.00     0.000 O
ATOM     49  HD  IDS C   3      86.591  14.596  82.9980  0.00  0.00     0.000 HD
BRANCH 42 49
ATOM     49   O  IDS C   3      88.840  13.292  84.3520  0.00  0.00     0.000 O
ATOM     50   S  IDS C   3      88.962  11.755  83.9170  0.00  0.00     0.000 S
ATOM     51   O  IDS C   3      88.667  11.784  82.5010  0.00  0.00     0.000 OA
ATOM     52   O  IDS C   3      88.004  10.962  84.6700  0.00  0.00     0.000 OA
ATOM     53   O  IDS C   3      90.328  11.368  84.2000  0.00  0.00     0.000 OA
ENDBRANCH 42 49
BRANCH 45 54
ATOM     54   C  IDS C   3      88.894  18.004  84.6780  0.00  0.00     0.000 C
ATOM     55   O  IDS C   3      88.837  18.868  83.8410  0.00  0.00     0.000 OA
ATOM     56   O  IDS C   3      89.661  18.107  85.6160  0.00  0.00     0.000 OA
ENDBRANCH 45 54
BRANCH 41 57
ATOM     57  O4  SGN C   4      86.093  14.995  85.8960  0.00  0.00     0.000 O
BRANCH 57 61
ATOM     58  C1  SGN C   4      83.641  16.527  88.9240  0.00  0.00     0.000 C
ATOM     59  C2  SGN C   4      84.605  17.516  88.2490  0.00  0.00     0.000 C
ATOM     60  C3  SGN C   4      85.131  16.957  86.9200  0.00  0.00     0.000 C
ATOM     61  C4  SGN C   4      85.739  15.584  87.1520  0.00  0.00     0.000 C
ATOM     62  C5  SGN C   4      84.737  14.665  87.8500  0.00  0.00     0.000 C
ATOM     63  O5  SGN C   4      84.269  15.263  89.0740  0.00  0.00     0.000 O
BRANCH 59 66
ATOM     64   N  SGN C   4      83.861  18.779  88.2220  0.00  0.00     0.000 N
ATOM     66  HD  SGN C   4      84.421  18.141  88.0530  0.00  0.00     0.000 HD
ATOM     66   O  SGN C   4      83.588  21.164  88.6360  0.00  0.00     0.000 OA
ATOM     67   O  SGN C   4      84.721  19.752  90.2990  0.00  0.00     0.000 OA
ATOM     68   S  SGN C   4      84.542  20.119  88.7850  0.00  0.00     0.000 S
ATOM     69   O  SGN C   4      85.822  20.254  88.1890  0.00  0.00     0.000 OA
ENDBRANCH 59 66
BRANCH 62 70
ATOM     70   C  SGN C   4      85.360  13.340  88.2120  0.00  0.00     0.000 C
ATOM     71   S  SGN C   4      87.453  12.257  89.2200  0.00  0.00     0.000 S
ATOM     72   O  SGN C   4      86.605  11.398  90.0220  0.00  0.00     0.000 OA
ATOM     73   O  SGN C   4      87.774  11.697  87.9230  0.00  0.00     0.000 OA
ATOM     74   O  SGN C   4      88.601  12.766  89.9350  0.00  0.00     0.000 OA
ATOM     75   O  SGN C   4      86.574  13.550  88.9430  0.00  0.00     0.000 O
ENDBRANCH 62 70
ENDBRANCH 57 61
ENDBRANCH 41 57
ENDBRANCH 40 44
ENDBRANCH 20 40
ENDBRANCH 19 23
ENDBRANCH 1 19
TORSDOF 14
ENDMDL
MODEL 6
REMARK VINA RESULT:      -0.8     51.982     58.608
ROOT
ATOM      1  C1  IDS C   1       9.927   6.384  87.6120  0.00  0.00     0.000 C
ATOM      2  C2  IDS C   1      11.149   5.777  86.9460  0.00  0.00     0.000 C
ATOM      3  C3  IDS C   1      11.582   4.506  87.6670  0.00  0.00     0.000 C
ATOM      4  C4  IDS C   1      10.407   3.545  87.8450  0.00  0.00     0.000 C
ATOM      5  C5  IDS C   1       9.195   4.289  88.4400  0.00  0.00     0.000 C
ATOM      6  O5  IDS C   1       8.871   5.427  87.6480  0.00  0.00     0.000 O
ATOM      7   O  IDS C   1      12.147   4.846  88.9350  0.00  0.00     0.000 O
ATOM      9  HD  IDS C   1      11.859   4.046  89.0970  0.00  0.00     0.000 HD
ATOM      9   O  IDS C   1      10.051   3.001  86.5650  0.00  0.00     0.000 O
ATOM     11  HD  IDS C   1       9.763   2.200  86.7280  0.00  0.00     0.000 HD
ENDROOT
BRANCH 2 11
ATOM     11   O  IDS C   1      10.841   5.416  85.5450  0.00  0.00     0.000 O
ATOM     12   S  IDS C   1      11.509   6.214  84.3320  0.00  0.00     0.000 S
ATOM     13   O  IDS C   1      11.675   5.177  83.3370  0.00  0.00     0.000 OA
ATOM     14   O  IDS C   1      12.761   6.784  84.7670  0.00  0.00     0.000 OA
ATOM     15   O  IDS C   1      10.529   7.207  83.9680  0.00  0.00     0.000 OA
ENDBRANCH 2 11
BRANCH 5 16
ATOM     16   C  IDS C   1       7.950   3.425  88.5390  0.00  0.00     0.000 C
ATOM     17   O  IDS C   1       6.941   3.906  89.0100  0.00  0.00     0.000 OA
ATOM     18   O  IDS C   1       7.965   2.281  88.1750  0.00  0.00     0.000 OA
ENDBRANCH 5 16
BRANCH 1 19
ATOM     19  O4  SGN C   2      10.088   7.118  88.7170  0.00  0.00     0.000 O
BRANCH 19 23
ATOM     20  C1  SGN C   2       8.605  10.314  90.9560  0.00  0.00     0.000 C
ATOM     21  C2  SGN C   2       7.772   9.027  90.9640  0.00  0.00     0.000 C
ATOM     22  C3  SGN C   2       8.627   7.855  90.4890  0.00  0.00     0.000 C
ATOM     23  C4  SGN C   2       9.193   8.161  89.1070  0.00  0.00     0.000 C
ATOM     24  C5  SGN C   2       9.940   9.497  89.1340  0.00  0.00     0.000 C
ATOM     25  O5  SGN C   2       9.073  10.531  89.6350  0.00  0.00     0.000 O
ATOM     26   O  SGN C   2       7.864   6.655  90.4750  0.00  0.00     0.000 O
ATOM     28  HD  SGN C   2       7.352   5.961  90.5610  0.00  0.00     0.000 HD
BRANCH 21 30
ATOM     28   N  SGN C   2       7.227   9.485  92.2490  0.00  0.00     0.000 N
ATOM     30  HD  SGN C   2       7.167   8.909  92.8930  0.00  0.00     0.000 HD
ATOM     30   S  SGN C   2       5.676   9.312  92.6020  0.00  0.00     0.000 S
ATOM     31   O  SGN C   2       5.397   7.929  92.4030  0.00  0.00     0.000 OA
ATOM     32   O  SGN C   2       5.432   9.909  93.8620  0.00  0.00     0.000 OA
ATOM     33   O  SGN C   2       4.942  10.188  91.5300  0.00  0.00     0.000 OA
ENDBRANCH 21 30
BRANCH 24 34
ATOM     34   C  SGN C   2      10.411   9.957  87.7750  0.00  0.00     0.000 C
ATOM     35   O  SGN C   2      11.819   9.689  87.6520  0.00  0.00     0.000 O
ATOM     36   S  SGN C   2      12.616  10.496  86.5290  0.00  0.00     0.000 S
ATOM     37   O  SGN C   2      12.322  11.890  86.7990  0.00  0.00     0.000 OA
ATOM     38   O  SGN C   2      14.005  10.156  86.7170  0.00  0.00     0.000 OA
ATOM     39   O  SGN C   2      12.060  10.010  85.2900  0.00  0.00     0.000 OA
ENDBRANCH 24 34
BRANCH 20 40
ATOM     40  O4  IDS C   3       9.631  10.388  91.8020  0.00  0.00     0.000 O
BRANCH 40 44
ATOM     41  C1  IDS C   3      12.097  10.691  94.3020  0.00  0.00     0.000 C
ATOM     42  C2  IDS C   3      10.650  10.350  94.6460  0.00  0.00     0.000 C
ATOM     43  C3  IDS C   3       9.700  11.361  94.0100  0.00  0.00     0.000 C
ATOM     44  C4  IDS C   3       9.998  11.561  92.5320  0.00  0.00     0.000 C
ATOM     45  C5  IDS C   3      11.501  11.849  92.3330  0.00  0.00     0.000 C
ATOM     46  O5  IDS C   3      12.268  10.780  92.8900  0.00  0.00     0.000 O
ATOM     47   O  IDS C   3       9.803  12.605  94.6980  0.00  0.00     0.000 O
ATOM     49  HD  IDS C   3       9.538  11.783  94.6340  0.00  0.00     0.000 HD
BRANCH 42 49
ATOM     49   O  IDS C   3      10.312   8.999  94.1410  0.00  0.00     0.000 O
ATOM     50   S  IDS C   3       9.484   7.989  95.0690  0.00  0.00     0.000 S
ATOM     51   O  IDS C   3       8.154   8.557  95.0760  0.00  0.00     0.000 OA
ATOM     52   O  IDS C   3      10.082   7.950  96.3930  0.00  0.00     0.000 OA
ATOM     53   O  IDS C   3       9.544   6.702  94.4080  0.00  0.00     0.000 OA
ENDBRANCH 42 49
BRANCH 45 54
ATOM     54   C  IDS C   3      11.893  12.023  90.8740  0.00  0.00     0.000 C
ATOM     55   O  IDS C   3      12.745  11.318  90.3970  0.00  0.00     0.000 OA
ATOM     56   O  IDS C   3      11.358  12.882  90.2000  0.00  0.00     0.000 OA
ENDBRANCH 45 54
BRANCH 41 57
ATOM     57  O4  SGN C   4      12.466  11.692  95.1110  0.00  0.00     0.000 O
BRANCH 57 61
ATOM     58  C1  SGN C   4      15.969  13.729  96.1650  0.00  0.00     0.000 C
ATOM     59  C2  SGN C   4      15.524  13.833  94.6970  0.00  0.00     0.000 C
ATOM     60  C3  SGN C   4      14.057  13.411  94.5310  0.00  0.00     0.000 C
ATOM     61  C4  SGN C   4      13.857  12.027  95.1250  0.00  0.00     0.000 C
ATOM     62  C5  SGN C   4      14.347  11.989  96.5720  0.00  0.00     0.000 C
ATOM     63  O5  SGN C   4      15.719  12.420  96.6550  0.00  0.00     0.000 O
BRANCH 59 66
ATOM     64   N  SGN C   4      15.900  15.196  94.3060  0.00  0.00     0.000 N
ATOM     66  HD  SGN C   4      15.521  14.418  94.3500  0.00  0.00     0.000 HD
ATOM     66   O  SGN C   4      16.972  16.837  92.8610  0.00  0.00     0.000 OA
ATOM     67   O  SGN C   4      18.094  14.702  93.3360  0.00  0.00     0.000 OA
ATOM     68   S  SGN C   4      16.756  15.435  92.9710  0.00  0.00     0.000 S
ATOM     69   O  SGN C   4      16.127  14.742  91.9050  0.00  0.00     0.000 OA
ENDBRANCH 59 66
BRANCH 62 70
ATOM     70   C  SGN C   4      14.284  10.594  97.1420  0.00  0.00     0.000 C
ATOM     71   S  SGN C   4      14.840   8.141  96.6450  0.00  0.00     0.000 S
ATOM     72   O  SGN C   4      15.401   8.014  97.9750  0.00  0.00     0.000 OA
ATOM     73   O  SGN C   4      13.423   7.844  96.5890  0.00  0.00     0.000 OA
ATOM     74   O  SGN C   4      15.616   7.475  95.6240  0.00  0.00     0.000 OA
ATOM     75   O  SGN C   4      14.986   9.682  96.2900  0.00  0.00     0.000 O
ENDBRANCH 62 70
ENDBRANCH 57 61
ENDBRANCH 41 57
ENDBRANCH 40 44
ENDBRANCH 20 40
ENDBRANCH 19 23
ENDBRANCH 1 19
TORSDOF 14
ENDMDL
MODEL 7
REMARK VINA RESULT:      -0.8     52.585     59.139
ROOT
ATOM      1  C1  IDS C   1       9.289   5.336  87.9600  0.00  0.00     0.000 C
ATOM      2  C2  IDS C   1      10.674   4.977  87.4530  0.00  0.00     0.000 C
ATOM      3  C3  IDS C   1      11.294   3.878  88.3070  0.00  0.00     0.000 C
ATOM      4  C4  IDS C   1      10.341   2.692  88.4580  0.00  0.00     0.000 C
ATOM      5  C5  IDS C   1       8.943   3.182  88.8850  0.00  0.00     0.000 C
ATOM      6  O5  IDS C   1       8.465   4.172  87.9800  0.00  0.00     0.000 O
ATOM      7   O  IDS C   1      11.640   4.408  89.5880  0.00  0.00     0.000 O
ATOM      9  HD  IDS C   1      11.516   3.575  89.7880  0.00  0.00     0.000 HD
ATOM      9   O  IDS C   1      10.243   2.009  87.1990  0.00  0.00     0.000 O
ATOM     11  HD  IDS C   1      10.119   1.176  87.3990  0.00  0.00     0.000 HD
ENDROOT
BRANCH 2 11
ATOM     11   O  IDS C   1      10.595   4.475  86.0630  0.00  0.00     0.000 O
ATOM     12   S  IDS C   1      11.196   5.329  84.8530  0.00  0.00     0.000 S
ATOM     13   O  IDS C   1      11.682   4.299  83.9620  0.00  0.00     0.000 OA
ATOM     14   O  IDS C   1      12.246   6.186  85.3490  0.00  0.00     0.000 OA
ATOM     15   O  IDS C   1      10.068   6.058  84.3280  0.00  0.00     0.000 OA
ENDBRANCH 2 11
BRANCH 5 16
ATOM     16   C  IDS C   1       7.910   2.072  88.9440  0.00  0.00     0.000 C
ATOM     17   O  IDS C   1       6.779   2.344  89.2850  0.00  0.00     0.000 OA
ATOM     18   O  IDS C   1       8.207   0.941  88.6740  0.00  0.00     0.000 OA
ENDBRANCH 5 16
BRANCH 1 19
ATOM     19  O4  SGN C   2       9.175   6.151  89.0130  0.00  0.00     0.000 O
BRANCH 19 23
ATOM     20  C1  SGN C   2       6.820   9.064  90.8550  0.00  0.00     0.000 C
ATOM     21  C2  SGN C   2       6.285   7.627  90.8920  0.00  0.00     0.000 C
ATOM     22  C3  SGN C   2       7.417   6.648  90.5880  0.00  0.00     0.000 C
ATOM     23  C4  SGN C   2       8.041   6.990  89.2400  0.00  0.00     0.000 C
ATOM     24  C5  SGN C   2       8.477   8.457  89.2260  0.00  0.00     0.000 C
ATOM     25  O5  SGN C   2       7.362   9.301  89.5660  0.00  0.00     0.000 O
ATOM     26   O  SGN C   2       6.935   5.310  90.6030  0.00  0.00     0.000 O
ATOM     28  HD  SGN C   2       6.578   4.526  90.6990  0.00  0.00     0.000 HD
BRANCH 21 30
ATOM     28   N  SGN C   2       5.527   8.027  92.0850  0.00  0.00     0.000 N
ATOM     30  HD  SGN C   2       5.527   7.491  92.7650  0.00  0.00     0.000 HD
ATOM     30   S  SGN C   2       4.022   7.536  92.3140  0.00  0.00     0.000 S
ATOM     31   O  SGN C   2       4.068   6.117  92.2020  0.00  0.00     0.000 OA
ATOM     32   O  SGN C   2       3.528   8.136  93.4970  0.00  0.00     0.000 OA
ATOM     33   O  SGN C   2       3.230   8.164  91.1170  0.00  0.00     0.000 OA
ENDBRANCH 21 30
BRANCH 24 34
ATOM     34   C  SGN C   2       8.974   8.930  87.8800  0.00  0.00     0.000 C
ATOM     35   O  SGN C   2      10.412   8.974  87.9020  0.00  0.00     0.000 O
ATOM     36   S  SGN C   2      11.127   9.871  86.7910  0.00  0.00     0.000 S
ATOM     37   O  SGN C   2      10.515  11.179  86.9230  0.00  0.00     0.000 OA
ATOM     38   O  SGN C   2      12.531   9.859  87.1260  0.00  0.00     0.000 OA
ATOM     39   O  SGN C   2      10.818   9.203  85.5510  0.00  0.00     0.000 OA
ENDBRANCH 24 34
BRANCH 20 40
ATOM     40  O4  IDS C   3       7.713   9.412  91.7770  0.00  0.00     0.000 O
BRANCH 40 44
ATOM     41  C1  IDS C   3       9.789  10.400  94.4500  0.00  0.00     0.000 C
ATOM     42  C2  IDS C   3       8.422   9.767  94.6930  0.00  0.00     0.000 C
ATOM     43  C3  IDS C   3       7.347  10.504  93.8990  0.00  0.00     0.000 C
ATOM     44  C4  IDS C   3       7.743  10.678  92.4410  0.00  0.00     0.000 C
ATOM     45  C5  IDS C   3       9.162  11.280  92.3510  0.00  0.00     0.000 C
ATOM     46  O5  IDS C   3      10.080  10.442  93.0560  0.00  0.00     0.000 O
ATOM     47   O  IDS C   3       7.109  11.778  94.4930  0.00  0.00     0.000 O
ATOM     49  HD  IDS C   3       7.035  10.916  94.4710  0.00  0.00     0.000 HD
BRANCH 42 49
ATOM     49   O  IDS C   3       8.435   8.348  94.2690  0.00  0.00     0.000 O
ATOM     50   S  IDS C   3       7.753   7.235  95.1990  0.00  0.00     0.000 S
ATOM     51   O  IDS C   3       6.339   7.494  95.0470  0.00  0.00     0.000 OA
ATOM     52   O  IDS C   3       8.208   7.407  96.5690  0.00  0.00     0.000 OA
ATOM     53   O  IDS C   3       8.155   5.958  94.6500  0.00  0.00     0.000 OA
ENDBRANCH 42 49
BRANCH 45 54
ATOM     54   C  IDS C   3       9.654  11.450  90.9220  0.00  0.00     0.000 C
ATOM     55   O  IDS C   3      10.681  10.926  90.5780  0.00  0.00     0.000 OA
ATOM     56   O  IDS C   3       9.019  12.129  90.1390  0.00  0.00     0.000 OA
ENDBRANCH 45 54
BRANCH 41 57
ATOM     57  O4  SGN C   4       9.850  11.503  95.2050  0.00  0.00     0.000 O
BRANCH 57 61
ATOM     58  C1  SGN C   4      12.707  14.323  96.3950  0.00  0.00     0.000 C
ATOM     59  C2  SGN C   4      12.402  14.240  94.8900  0.00  0.00     0.000 C
ATOM     60  C3  SGN C   4      11.085  13.495  94.6320  0.00  0.00     0.000 C
ATOM     61  C4  SGN C   4      11.128  12.138  95.3140  0.00  0.00     0.000 C
ATOM     62  C5  SGN C   4      11.464  12.294  96.7960  0.00  0.00     0.000 C
ATOM     63  O5  SGN C   4      12.696  13.022  96.9630  0.00  0.00     0.000 O
BRANCH 59 66
ATOM     64   N  SGN C   4      12.514  15.627  94.4270  0.00  0.00     0.000 N
ATOM     66  HD  SGN C   4      12.309  14.789  94.4990  0.00  0.00     0.000 HD
ATOM     66   O  SGN C   4      13.350  17.378  92.9540  0.00  0.00     0.000 OA
ATOM     67   O  SGN C   4      14.850  15.576  93.6920  0.00  0.00     0.000 OA
ATOM     68   S  SGN C   4      13.431  15.972  93.1560  0.00  0.00     0.000 S
ATOM     69   O  SGN C   4      13.077  15.095  92.0980  0.00  0.00     0.000 OA
ENDBRANCH 59 66
BRANCH 62 70
ATOM     70   C  SGN C   4      11.644  10.955  97.4680  0.00  0.00     0.000 C
ATOM     71   S  SGN C   4      12.762   8.662  97.2170  0.00  0.00     0.000 S
ATOM     72   O  SGN C   4      13.199   8.740  98.5970  0.00  0.00     0.000 OA
ATOM     73   O  SGN C   4      11.455   8.055  97.0620  0.00  0.00     0.000 OA
ATOM     74   O  SGN C   4      13.763   8.126  96.3230  0.00  0.00     0.000 OA
ATOM     75   O  SGN C   4      12.610  10.174  96.7540  0.00  0.00     0.000 O
ENDBRANCH 62 70
ENDBRANCH 57 61
ENDBRANCH 41 57
ENDBRANCH 40 44
ENDBRANCH 20 40
ENDBRANCH 19 23
ENDBRANCH 1 19
TORSDOF 14
ENDMDL
MODEL 8
REMARK VINA RESULT:      -0.8     53.297     59.085
ROOT
ATOM      1  C1  IDS C   1      11.026   6.680  88.9050  0.00  0.00     0.000 C
ATOM      2  C2  IDS C   1      12.345   6.085  88.4450  0.00  0.00     0.000 C
ATOM      3  C3  IDS C   1      12.873   5.087  89.4680  0.00  0.00     0.000 C
ATOM      4  C4  IDS C   1      11.804   4.060  89.8420  0.00  0.00     0.000 C
ATOM      5  C5  IDS C   1      10.483   4.771  90.2000  0.00  0.00     0.000 C
ATOM      6  O5  IDS C   1      10.082   5.637  89.1430  0.00  0.00     0.000 O
ATOM      7   O  IDS C   1      13.321   5.787  90.6300  0.00  0.00     0.000 O
ATOM      9  HD  IDS C   1      13.115   5.020  90.9750  0.00  0.00     0.000 HD
ATOM      9   O  IDS C   1      11.586   3.186  88.7240  0.00  0.00     0.000 O
ATOM     11  HD  IDS C   1      11.380   2.419  89.0690  0.00  0.00     0.000 HD
ENDROOT
BRANCH 2 11
ATOM     11   O  IDS C   1      12.161   5.363  87.1660  0.00  0.00     0.000 O
ATOM     12   S  IDS C   1      12.806   5.922  85.8160  0.00  0.00     0.000 S
ATOM     13   O  IDS C   1      13.144   4.706  85.1110  0.00  0.00     0.000 OA
ATOM     14   O  IDS C   1      13.960   6.728  86.1350  0.00  0.00     0.000 OA
ATOM     15   O  IDS C   1      11.745   6.672  85.1900  0.00  0.00     0.000 OA
ENDBRANCH 2 11
BRANCH 5 16
ATOM     16   C  IDS C   1       9.339   3.811  90.4700  0.00  0.00     0.000 C
ATOM     17   O  IDS C   1       8.257   4.264  90.7780  0.00  0.00     0.000 OA
ATOM     18   O  IDS C   1       9.502   2.624  90.3990  0.00  0.00     0.000 OA
ENDBRANCH 5 16
BRANCH 1 19
ATOM     19  O4  SGN C   2      11.039   7.672  89.8010  0.00  0.00     0.000 O
BRANCH 19 23
ATOM     20  C1  SGN C   2       9.082  11.106  91.1430  0.00  0.00     0.000 C
ATOM     21  C2  SGN C   2       8.397   9.767  91.4410  0.00  0.00     0.000 C
ATOM     22  C3  SGN C   2       9.404   8.629  91.2940  0.00  0.00     0.000 C
ATOM     23  C4  SGN C   2      10.012   8.660  89.8960  0.00  0.00     0.000 C
ATOM     24  C5  SGN C   2      10.603  10.044  89.6180  0.00  0.00     0.000 C
ATOM     25  O5  SGN C   2       9.599  11.055  89.8240  0.00  0.00     0.000 O
ATOM     26   O  SGN C   2       8.781   7.376  91.5520  0.00  0.00     0.000 O
ATOM     28  HD  SGN C   2       8.345   6.666  91.7900  0.00  0.00     0.000 HD
BRANCH 21 30
ATOM     28   N  SGN C   2       7.717  10.484  92.5280  0.00  0.00     0.000 N
ATOM     30  HD  SGN C   2       7.705  10.116  93.3120  0.00  0.00     0.000 HD
ATOM     30   S  SGN C   2       6.190  10.178  92.8960  0.00  0.00     0.000 S
ATOM     31   O  SGN C   2       6.130   8.771  93.1090  0.00  0.00     0.000 OA
ATOM     32   O  SGN C   2       5.789  11.067  93.9220  0.00  0.00     0.000 OA
ATOM     33   O  SGN C   2       5.400  10.581  91.6050  0.00  0.00     0.000 OA
ENDBRANCH 21 30
BRANCH 24 34
ATOM     34   C  SGN C   2      11.099  10.219  88.2010  0.00  0.00     0.000 C
ATOM     35   O  SGN C   2      12.533  10.103  88.1900  0.00  0.00     0.000 O
ATOM     36   S  SGN C   2      13.299  10.709  86.9280  0.00  0.00     0.000 S
ATOM     37   O  SGN C   2      12.837  12.080  86.8390  0.00  0.00     0.000 OA
ATOM     38   O  SGN C   2      14.705  10.596  87.2350  0.00  0.00     0.000 OA
ATOM     39   O  SGN C   2      12.875   9.876  85.8300  0.00  0.00     0.000 OA
ENDBRANCH 24 34
BRANCH 20 40
ATOM     40  O4  IDS C   3      10.041  11.505  91.9750  0.00  0.00     0.000 O
BRANCH 40 44
ATOM     41  C1  IDS C   3      12.308  12.698  94.3970  0.00  0.00     0.000 C
ATOM     42  C2  IDS C   3      10.890  12.275  94.7700  0.00  0.00     0.000 C
ATOM     43  C3  IDS C   3       9.872  12.981  93.8770  0.00  0.00     0.000 C
ATOM     44  C4  IDS C   3      10.232  12.855  92.4050  0.00  0.00     0.000 C
ATOM     45  C5  IDS C   3      11.703  13.268  92.1870  0.00  0.00     0.000 C
ATOM     46  O5  IDS C   3      12.551  12.466  93.0120  0.00  0.00     0.000 O
ATOM     47   O  IDS C   3       9.796  14.357  94.2430  0.00  0.00     0.000 O
ATOM     49  HD  IDS C   3       9.628  13.517  94.3740  0.00  0.00     0.000 HD
BRANCH 42 49
ATOM     49   O  IDS C   3      10.734  10.812  94.6020  0.00  0.00     0.000 O
ATOM     50   S  IDS C   3       9.971   9.960  95.7240  0.00  0.00     0.000 S
ATOM     51   O  IDS C   3       8.588  10.347  95.5530  0.00  0.00     0.000 OA
ATOM     52   O  IDS C   3      10.491  10.314  97.0350  0.00  0.00     0.000 OA
ATOM     53   O  IDS C   3      10.212   8.570  95.4010  0.00  0.00     0.000 OA
ENDBRANCH 42 49
BRANCH 45 54
ATOM     54   C  IDS C   3      12.158  13.133  90.7420  0.00  0.00     0.000 C
ATOM     55   O  IDS C   3      13.109  12.444  90.4780  0.00  0.00     0.000 OA
ATOM     56   O  IDS C   3      11.571  13.733  89.8630  0.00  0.00     0.000 OA
ENDBRANCH 45 54
BRANCH 41 57
ATOM     57  O4  SGN C   4      12.515  13.901  94.9460  0.00  0.00     0.000 O
BRANCH 57 61
ATOM     58  C1  SGN C   4      15.702  16.543  95.5720  0.00  0.00     0.000 C
ATOM     59  C2  SGN C   4      15.335  16.237  94.1110  0.00  0.00     0.000 C
ATOM     60  C3  SGN C   4      13.937  15.612  94.0100  0.00  0.00     0.000 C
ATOM     61  C4  SGN C   4      13.857  14.397  94.9190  0.00  0.00     0.000 C
ATOM     62  C5  SGN C   4      14.263  14.767  96.3450  0.00  0.00     0.000 C
ATOM     63  O5  SGN C   4      15.571  15.369  96.3600  0.00  0.00     0.000 O
BRANCH 59 66
ATOM     64   N  SGN C   4      15.579  17.502  93.4100  0.00  0.00     0.000 N
ATOM     66  HD  SGN C   4      15.287  16.717  93.6310  0.00  0.00     0.000 HD
ATOM     66   O  SGN C   4      16.545  18.867  91.6380  0.00  0.00     0.000 OA
ATOM     67   O  SGN C   4      17.868  17.061  92.6550  0.00  0.00     0.000 OA
ATOM     68   S  SGN C   4      16.481  17.516  92.0820  0.00  0.00     0.000 S
ATOM     69   O  SGN C   4      15.995  16.516  91.2010  0.00  0.00     0.000 OA
ENDBRANCH 59 66
BRANCH 62 70
ATOM     70   C  SGN C   4      14.322  13.553  97.2380  0.00  0.00     0.000 C
ATOM     71   S  SGN C   4      15.175  11.139  97.3740  0.00  0.00     0.000 S
ATOM     72   O  SGN C   4      15.668  11.404  98.7110  0.00  0.00     0.000 OA
ATOM     73   O  SGN C   4      13.805  10.666  97.3500  0.00  0.00     0.000 OA
ATOM     74   O  SGN C   4      16.079  10.348  96.5710  0.00  0.00     0.000 OA
ATOM     75   O  SGN C   4      15.170  12.556  96.6560  0.00  0.00     0.000 O
ENDBRANCH 62 70
ENDBRANCH 57 61
ENDBRANCH 41 57
ENDBRANCH 40 44
ENDBRANCH 20 40
ENDBRANCH 19 23
ENDBRANCH 1 19
TORSDOF 14
ENDMDL
MODEL 9
REMARK VINA RESULT:      -0.8     80.908     85.690
ROOT
ATOM      1  C1  IDS C   1      57.990  42.819 104.3460  0.00  0.00     0.000 C
ATOM      2  C2  IDS C   1      58.300  43.827 105.4380  0.00  0.00     0.000 C
ATOM      3  C3  IDS C   1      59.046  43.165 106.5890  0.00  0.00     0.000 C
ATOM      4  C4  IDS C   1      60.256  42.379 106.0840  0.00  0.00     0.000 C
ATOM      5  C5  IDS C   1      59.844  41.458 104.9170  0.00  0.00     0.000 C
ATOM      6  O5  IDS C   1      59.199  42.209 103.8940  0.00  0.00     0.000 O
ATOM      7   O  IDS C   1      58.155  42.307 107.3040  0.00  0.00     0.000 O
ATOM      9  HD  IDS C   1      58.913  41.923 107.4680  0.00  0.00     0.000 HD
ATOM      9   O  IDS C   1      61.257  43.303 105.6310  0.00  0.00     0.000 O
ATOM     11  HD  IDS C   1      62.015  42.919 105.7950  0.00  0.00     0.000 HD
ENDROOT
BRANCH 2 11
ATOM     11   O  IDS C   1      59.161  44.907 104.9060  0.00  0.00     0.000 O
ATOM     12   S  IDS C   1      58.622  46.409 104.8200  0.00  0.00     0.000 S
ATOM     13   O  IDS C   1      59.816  47.179 105.0870  0.00  0.00     0.000 OA
ATOM     14   O  IDS C   1      57.591  46.605 105.8100  0.00  0.00     0.000 OA
ATOM     15   O  IDS C   1      58.142  46.546 103.4670  0.00  0.00     0.000 OA
ENDBRANCH 2 11
BRANCH 5 16
ATOM     16   C  IDS C   1      61.016  40.729 104.2860  0.00  0.00     0.000 C
ATOM     17   O  IDS C   1      60.804  39.967 103.3670  0.00  0.00     0.000 OA
ATOM     18   O  IDS C   1      62.133  40.889 104.6960  0.00  0.00     0.000 OA
ENDBRANCH 5 16
BRANCH 1 19
ATOM     19  O4  SGN C   2      56.944  42.001 104.4960  0.00  0.00     0.000 O
BRANCH 19 23
ATOM     20  C1  SGN C   2      53.904  39.925 102.5280  0.00  0.00     0.000 C
ATOM     21  C2  SGN C   2      55.329  39.392 102.3400  0.00  0.00     0.000 C
ATOM     22  C3  SGN C   2      56.238  39.955 103.4300  0.00  0.00     0.000 C
ATOM     23  C4  SGN C   2      56.190  41.479 103.4000  0.00  0.00     0.000 C
ATOM     24  C5  SGN C   2      54.739  41.955 103.5030  0.00  0.00     0.000 C
ATOM     25  O5  SGN C   2      53.949  41.341 102.4680  0.00  0.00     0.000 O
ATOM     26   O  SGN C   2      57.569  39.482 103.2620  0.00  0.00     0.000 O
ATOM     28  HD  SGN C   2      58.334  39.097 103.1310  0.00  0.00     0.000 HD
BRANCH 21 30
ATOM     28   N  SGN C   2      54.725  38.084 102.0540  0.00  0.00     0.000 N
ATOM     30  HD  SGN C   2      55.082  37.384 102.4180  0.00  0.00     0.000 HD
ATOM     30   S  SGN C   2      55.278  37.155 100.8750  0.00  0.00     0.000 S
ATOM     31   O  SGN C   2      56.673  37.018 101.1260  0.00  0.00     0.000 OA
ATOM     32   O  SGN C   2      54.458  36.004 100.7880  0.00  0.00     0.000 OA
ATOM     33   O  SGN C   2      55.024  37.997  99.5780  0.00  0.00     0.000 OA
ENDBRANCH 21 30
BRANCH 24 34
ATOM     34   C  SGN C   2      54.577  43.448 103.3340  0.00  0.00     0.000 C
ATOM     35   O  SGN C   2      54.405  44.049 104.6290  0.00  0.00     0.000 O
ATOM     36   S  SGN C   2      53.756  45.507 104.6720  0.00  0.00     0.000 S
ATOM     37   O  SGN C   2      52.515  45.380 103.9330  0.00  0.00     0.000 OA
ATOM     38   O  SGN C   2      53.563  45.806 106.0700  0.00  0.00     0.000 OA
ATOM     39   O  SGN C   2      54.738  46.344 104.0270  0.00  0.00     0.000 OA
ENDBRANCH 24 34
BRANCH 20 40
ATOM     40  O4  IDS C   3      53.247  39.554 103.6240  0.00  0.00     0.000 O
BRANCH 40 44
ATOM     41  C1  IDS C   3      51.420  38.244 106.3390  0.00  0.00     0.000 C
ATOM     42  C2  IDS C   3      52.105  37.333 105.3240  0.00  0.00     0.000 C
ATOM     43  C3  IDS C   3      51.701  37.722 103.9040  0.00  0.00     0.000 C
ATOM     44  C4  IDS C   3      51.859  39.215 103.6630  0.00  0.00     0.000 C
ATOM     45  C5  IDS C   3      51.161  40.006 104.7890  0.00  0.00     0.000 C
ATOM     46  O5  IDS C   3      51.700  39.612 106.0530  0.00  0.00     0.000 O
ATOM     47   O  IDS C   3      50.349  37.333 103.6730  0.00  0.00     0.000 O
ATOM     49  HD  IDS C   3      51.192  37.159 103.7660  0.00  0.00     0.000 HD
BRANCH 42 49
ATOM     49   O  IDS C   3      53.576  37.449 105.4470  0.00  0.00     0.000 O
ATOM     50   S  IDS C   3      54.480  36.127 105.4380  0.00  0.00     0.000 S
ATOM     51   O  IDS C   3      54.412  35.686 104.0620  0.00  0.00     0.000 OA
ATOM     52   O  IDS C   3      53.923  35.154 106.3640  0.00  0.00     0.000 OA
ATOM     53   O  IDS C   3      55.808  36.550 105.8280  0.00  0.00     0.000 OA
ENDBRANCH 42 49
BRANCH 45 54
ATOM     54   C  IDS C   3      51.305  41.513 104.6450  0.00  0.00     0.000 C
ATOM     55   O  IDS C   3      50.943  42.053 103.6320  0.00  0.00     0.000 OA
ATOM     56   O  IDS C   3      51.800  42.164 105.5450  0.00  0.00     0.000 OA
ENDBRANCH 45 54
BRANCH 41 57
ATOM     57  O4  SGN C   4      50.162  37.806 106.4730  0.00  0.00     0.000 O
BRANCH 57 61
ATOM     58  C1  SGN C   4      46.848  38.521 108.9280  0.00  0.00     0.000 C
ATOM     59  C2  SGN C   4      47.315  39.686 108.0410  0.00  0.00     0.000 C
ATOM     60  C3  SGN C   4      48.239  39.193 106.9190  0.00  0.00     0.000 C
ATOM     61  C4  SGN C   4      49.384  38.395 107.5190  0.00  0.00     0.000 C
ATOM     62  C5  SGN C   4      48.848  37.275 108.4100  0.00  0.00     0.000 C
ATOM     63  O5  SGN C   4      47.972  37.807 109.4220  0.00  0.00     0.000 O
BRANCH 59 66
ATOM     64   N  SGN C   4      46.055  40.362 107.7140  0.00  0.00     0.000 N
ATOM     66  HD  SGN C   4      46.863  40.052 107.6880  0.00  0.00     0.000 HD
ATOM     66   O  SGN C   4      44.636  42.321 107.4270  0.00  0.00     0.000 OA
ATOM     67   O  SGN C   4      46.208  42.210 109.3140  0.00  0.00     0.000 OA
ATOM     68   S  SGN C   4      45.967  41.963 107.7850  0.00  0.00     0.000 S
ATOM     69   O  SGN C   4      47.054  42.504 107.0520  0.00  0.00     0.000 OA
ENDBRANCH 59 66
BRANCH 62 70
ATOM     70   C  SGN C   4      49.963  36.552 109.1240  0.00  0.00     0.000 C
ATOM     71   S  SGN C   4      52.151  36.907 110.4130  0.00  0.00     0.000 S
ATOM     72   O  SGN C   4      51.703  35.951 111.4060  0.00  0.00     0.000 OA
ATOM     73   O  SGN C   4      52.880  36.298 109.3180  0.00  0.00     0.000 OA
ATOM     74   O  SGN C   4      52.806  38.064 110.9780  0.00  0.00     0.000 OA
ATOM     75   O  SGN C   4      50.815  37.495 109.7860  0.00  0.00     0.000 O
ENDBRANCH 62 70
ENDBRANCH 57 61
ENDBRANCH 41 57
ENDBRANCH 40 44
ENDBRANCH 20 40
ENDBRANCH 19 23
ENDBRANCH 1 19
TORSDOF 14
ENDMDL
MODEL 10
REMARK VINA RESULT:      -0.8     53.404     57.471
ROOT
ATOM      1  C1  IDS C   1      56.882  48.027  46.1640  0.00  0.00     0.000 C
ATOM      2  C2  IDS C   1      56.138  46.705  46.2300  0.00  0.00     0.000 C
ATOM      3  C3  IDS C   1      56.969  45.653  46.9540  0.00  0.00     0.000 C
ATOM      4  C4  IDS C   1      57.467  46.175  48.3020  0.00  0.00     0.000 C
ATOM      5  C5  IDS C   1      58.120  47.561  48.1290  0.00  0.00     0.000 C
ATOM      6  O5  IDS C   1      57.223  48.457  47.4810  0.00  0.00     0.000 O
ATOM      7   O  IDS C   1      58.070  45.266  46.1300  0.00  0.00     0.000 O
ATOM      9  HD  IDS C   1      58.394  45.103  46.9170  0.00  0.00     0.000 HD
ATOM      9   O  IDS C   1      56.353  46.281  49.2020  0.00  0.00     0.000 O
ATOM     11  HD  IDS C   1      56.677  46.119  49.9880  0.00  0.00     0.000 HD
ENDROOT
BRANCH 2 11
ATOM     11   O  IDS C   1      54.871  46.869  46.9770  0.00  0.00     0.000 O
ATOM     12   S  IDS C   1      53.465  46.797  46.2200  0.00  0.00     0.000 S
ATOM     13   O  IDS C   1      52.614  46.178  47.2120  0.00  0.00     0.000 OA
ATOM     14   O  IDS C   1      53.606  46.003  45.0240  0.00  0.00     0.000 OA
ATOM     15   O  IDS C   1      53.127  48.173  45.9510  0.00  0.00     0.000 OA
ENDBRANCH 2 11
BRANCH 5 16
ATOM     16   C  IDS C   1      58.536  48.196  49.4440  0.00  0.00     0.000 C
ATOM     17   O  IDS C   1      59.105  49.267  49.4220  0.00  0.00     0.000 OA
ATOM     18   O  IDS C   1      58.324  47.644  50.4880  0.00  0.00     0.000 OA
ENDBRANCH 5 16
BRANCH 1 19
ATOM     19  O4  SGN C   2      57.826  48.195  45.2320  0.00  0.00     0.000 O
BRANCH 19 23
ATOM     20  C1  SGN C   2      59.784  50.961  42.7960  0.00  0.00     0.000 C
ATOM     21  C2  SGN C   2      60.131  50.998  44.2890  0.00  0.00     0.000 C
ATOM     22  C3  SGN C   2      59.695  49.693  44.9510  0.00  0.00     0.000 C
ATOM     23  C4  SGN C   2      58.205  49.472  44.7170  0.00  0.00     0.000 C
ATOM     24  C5  SGN C   2      57.900  49.532  43.2180  0.00  0.00     0.000 C
ATOM     25  O5  SGN C   2      58.384  50.772  42.6710  0.00  0.00     0.000 O
ATOM     26   O  SGN C   2      59.995  49.716  46.3420  0.00  0.00     0.000 O
ATOM     28  HD  SGN C   2      60.273  49.782  47.1600  0.00  0.00     0.000 HD
BRANCH 21 30
ATOM     28   N  SGN C   2      61.477  51.508  43.9970  0.00  0.00     0.000 N
ATOM     30  HD  SGN C   2      62.127  51.255  44.5100  0.00  0.00     0.000 HD
ATOM     30   S  SGN C   2      62.048  52.809  44.7330  0.00  0.00     0.000 S
ATOM     31   O  SGN C   2      61.902  52.548  46.1260  0.00  0.00     0.000 OA
ATOM     32   O  SGN C   2      63.326  53.102  44.1990  0.00  0.00     0.000 OA
ATOM     33   O  SGN C   2      61.086  53.957  44.2770  0.00  0.00     0.000 OA
ENDBRANCH 21 30
BRANCH 24 34
ATOM     34   C  SGN C   2      56.426  49.471  42.8950  0.00  0.00     0.000 C
ATOM     35   O  SGN C   2      56.107  48.153  42.4130  0.00  0.00     0.000 O
ATOM     36   S  SGN C   2      54.754  47.993  41.5820  0.00  0.00     0.000 S
ATOM     37   O  SGN C   2      54.851  48.980  40.5240  0.00  0.00     0.000 OA
ATOM     38   O  SGN C   2      54.752  46.633  41.1000  0.00  0.00     0.000 OA
ATOM     39   O  SGN C   2      53.718  48.270  42.5460  0.00  0.00     0.000 OA
ENDBRANCH 24 34
BRANCH 20 40
ATOM     40  O4  IDS C   3      60.416  50.067  42.0390  0.00  0.00     0.000 O
BRANCH 40 44
ATOM     41  C1  IDS C   3      62.371  47.948  40.0110  0.00  0.00     0.000 C
ATOM     42  C2  IDS C   3      63.010  48.970  40.9460  0.00  0.00     0.000 C
ATOM     43  C3  IDS C   3      62.411  50.354  40.7100  0.00  0.00     0.000 C
ATOM     44  C4  IDS C   3      60.890  50.317  40.7140  0.00  0.00     0.000 C
ATOM     45  C5  IDS C   3      60.390  49.208  39.7640  0.00  0.00     0.000 C
ATOM     46  O5  IDS C   3      60.953  47.955  40.1560  0.00  0.00     0.000 O
ATOM     47   O  IDS C   3      62.881  50.868  39.4670  0.00  0.00     0.000 O
ATOM     49  HD  IDS C   3      62.985  50.666  40.3020  0.00  0.00     0.000 HD
BRANCH 42 49
ATOM     49   O  IDS C   3      62.775  48.586  42.3580  0.00  0.00     0.000 O
ATOM     50   S  IDS C   3      63.992  48.607  43.3990  0.00  0.00     0.000 S
ATOM     51   O  IDS C   3      64.238  50.019  43.5970  0.00  0.00     0.000 OA
ATOM     52   O  IDS C   3      65.134  47.918  42.8220  0.00  0.00     0.000 OA
ATOM     53   O  IDS C   3      63.506  47.948  44.5930  0.00  0.00     0.000 OA
ENDBRANCH 42 49
BRANCH 45 54
ATOM     54   C  IDS C   3      58.875  49.077  39.7380  0.00  0.00     0.000 C
ATOM     55   O  IDS C   3      58.363  48.026  40.0270  0.00  0.00     0.000 OA
ATOM     56   O  IDS C   3      58.189  50.025  39.4090  0.00  0.00     0.000 OA
ENDBRANCH 45 54
BRANCH 41 57
ATOM     57  O4  SGN C   4      62.946  48.099  38.8120  0.00  0.00     0.000 O
BRANCH 57 61
ATOM     58  C1  SGN C   4      63.002  46.158  35.1040  0.00  0.00     0.000 C
ATOM     59  C2  SGN C   4      61.659  46.758  35.5490  0.00  0.00     0.000 C
ATOM     60  C3  SGN C   4      61.855  47.771  36.6860  0.00  0.00     0.000 C
ATOM     61  C4  SGN C   4      62.630  47.120  37.8190  0.00  0.00     0.000 C
ATOM     62  C5  SGN C   4      63.935  46.520  37.2990  0.00  0.00     0.000 C
ATOM     63  O5  SGN C   4      63.678  45.600  36.2210  0.00  0.00     0.000 O
BRANCH 59 66
ATOM     64   N  SGN C   4      61.044  47.235  34.3060  0.00  0.00     0.000 N
ATOM     66  HD  SGN C   4      61.253  47.117  35.1380  0.00  0.00     0.000 HD
ATOM     66   O  SGN C   4      59.233  47.393  32.6850  0.00  0.00     0.000 OA
ATOM     67   O  SGN C   4      59.728  45.241  33.7650  0.00  0.00     0.000 OA
ATOM     68   S  SGN C   4      59.548  46.789  33.9340  0.00  0.00     0.000 S
ATOM     69   O  SGN C   4      58.716  47.037  35.0560  0.00  0.00     0.000 OA
ENDBRANCH 59 66
BRANCH 62 70
ATOM     70   C  SGN C   4      64.659  45.751  38.3760  0.00  0.00     0.000 C
ATOM     71   S  SGN C   4      64.346  43.980  40.2030  0.00  0.00     0.000 S
ATOM     72   O  SGN C   4      65.560  43.326  39.7570  0.00  0.00     0.000 OA
ATOM     73   O  SGN C   4      64.578  44.995  41.2110  0.00  0.00     0.000 OA
ATOM     74   O  SGN C   4      63.283  43.060  40.5370  0.00  0.00     0.000 OA
ATOM     75   O  SGN C   4      63.801  44.741  38.9200  0.00  0.00     0.000 O
ENDBRANCH 62 70
ENDBRANCH 57 61
ENDBRANCH 41 57
ENDBRANCH 40 44
ENDBRANCH 20 40
ENDBRANCH 19 23
ENDBRANCH 1 19
TORSDOF 14
ENDMDL
MODEL 11
REMARK VINA RESULT:      -0.8    114.421    118.144
ROOT
ATOM      1  C1  IDS C   1     100.019  77.538  73.9180  0.00  0.00     0.000 C
ATOM      2  C2  IDS C   1      99.602  76.227  74.5600  0.00  0.00     0.000 C
ATOM      3  C3  IDS C   1      98.367  76.420  75.4310  0.00  0.00     0.000 C
ATOM      4  C4  IDS C   1      97.257  77.138  74.6650  0.00  0.00     0.000 C
ATOM      5  C5  IDS C   1      97.813  78.402  73.9780  0.00  0.00     0.000 C
ATOM      6  O5  IDS C   1      98.933  78.073  73.1630  0.00  0.00     0.000 O
ATOM      7   O  IDS C   1      98.722  77.156  76.6030  0.00  0.00     0.000 O
ATOM      9  HD  IDS C   1      97.885  77.366  76.5300  0.00  0.00     0.000 HD
ATOM      9   O  IDS C   1      96.727  76.249  73.6690  0.00  0.00     0.000 O
ATOM     11  HD  IDS C   1      95.890  76.459  73.5950  0.00  0.00     0.000 HD
ENDROOT
BRANCH 2 11
ATOM     11   O  IDS C   1      99.265  75.232  73.5170  0.00  0.00     0.000 O
ATOM     12   S  IDS C   1     100.235  73.997  73.2260  0.00  0.00     0.000 S
ATOM     13   O  IDS C   1      99.301  72.948  72.8810  0.00  0.00     0.000 OA
ATOM     14   O  IDS C   1     101.002  73.701  74.4120  0.00  0.00     0.000 OA
ATOM     15   O  IDS C   1     101.049  74.428  72.1170  0.00  0.00     0.000 OA
ENDBRANCH 2 11
BRANCH 5 16
ATOM     16   C  IDS C   1      96.794  79.106  73.1020  0.00  0.00     0.000 C
ATOM     17   O  IDS C   1      97.112  80.139  72.5500  0.00  0.00     0.000 OA
ATOM     18   O  IDS C   1      95.687  78.663  72.9670  0.00  0.00     0.000 OA
ENDBRANCH 5 16
BRANCH 1 19
ATOM     19  O4  SGN C   2     100.719  78.419  74.6390  0.00  0.00     0.000 O
BRANCH 19 23
ATOM     20  C1  SGN C   2     103.515  81.516  74.4960  0.00  0.00     0.000 C
ATOM     21  C2  SGN C   2     102.114  81.833  73.9610  0.00  0.00     0.000 C
ATOM     22  C3  SGN C   2     101.120  80.792  74.4690  0.00  0.00     0.000 C
ATOM     23  C4  SGN C   2     101.584  79.398  74.0600  0.00  0.00     0.000 C
ATOM     24  C5  SGN C   2     103.018  79.166  74.5430  0.00  0.00     0.000 C
ATOM     25  O5  SGN C   2     103.873  80.216  74.0560  0.00  0.00     0.000 O
ATOM     26   O  SGN C   2      99.815  81.062  73.9680  0.00  0.00     0.000 O
ATOM     28  HD  SGN C   2      99.046  81.335  73.6790  0.00  0.00     0.000 HD
BRANCH 21 30
ATOM     28   N  SGN C   2     102.399  83.243  74.2610  0.00  0.00     0.000 N
ATOM     30  HD  SGN C   2     101.779  83.710  74.6440  0.00  0.00     0.000 HD
ATOM     30   S  SGN C   2     101.974  84.408  73.2490  0.00  0.00     0.000 S
ATOM     31   O  SGN C   2     100.582  84.217  73.0190  0.00  0.00     0.000 OA
ATOM     32   O  SGN C   2     102.443  85.641  73.7630  0.00  0.00     0.000 OA
ATOM     33   O  SGN C   2     102.801  84.107  71.9530  0.00  0.00     0.000 OA
ENDBRANCH 21 30
BRANCH 24 34
ATOM     34   C  SGN C   2     103.619  77.868  74.0590  0.00  0.00     0.000 C
ATOM     35   O  SGN C   2     103.540  76.893  75.1140  0.00  0.00     0.000 O
ATOM     36   S  SGN C   2     104.511  75.631  75.0100  0.00  0.00     0.000 S
ATOM     37   O  SGN C   2     105.837  76.197  74.8550  0.00  0.00     0.000 OA
ATOM     38   O  SGN C   2     104.338  74.904  76.2450  0.00  0.00     0.000 OA
ATOM     39   O  SGN C   2     104.038  74.922  73.8460  0.00  0.00     0.000 OA
ENDBRANCH 24 34
BRANCH 20 40
ATOM     40  O4  IDS C   3     103.706  81.601  75.8110  0.00  0.00     0.000 O
BRANCH 40 44
ATOM     41  C1  IDS C   3     104.257  82.207  79.2390  0.00  0.00     0.000 C
ATOM     42  C2  IDS C   3     103.671  83.278  78.3240  0.00  0.00     0.000 C
ATOM     43  C3  IDS C   3     104.553  83.463  77.0910  0.00  0.00     0.000 C
ATOM     44  C4  IDS C   3     104.880  82.135  76.4280  0.00  0.00     0.000 C
ATOM     45  C5  IDS C   3     105.413  81.139  77.4790  0.00  0.00     0.000 C
ATOM     46  O5  IDS C   3     104.451  80.989  78.5250  0.00  0.00     0.000 O
ATOM     47   O  IDS C   3     105.757  84.128  77.4660  0.00  0.00     0.000 O
ATOM     49  HD  IDS C   3     104.908  84.116  77.2950  0.00  0.00     0.000 HD
BRANCH 42 49
ATOM     49   O  IDS C   3     102.314  82.883  77.8800  0.00  0.00     0.000 O
ATOM     50   S  IDS C   3     101.127  83.958  77.9020  0.00  0.00     0.000 S
ATOM     51   O  IDS C   3     101.461  84.846  76.8100  0.00  0.00     0.000 OA
ATOM     52   O  IDS C   3     101.113  84.636  79.1880  0.00  0.00     0.000 OA
ATOM     53   O  IDS C   3      99.909  83.212  77.6680  0.00  0.00     0.000 OA
ENDBRANCH 42 49
BRANCH 45 54
ATOM     54   C  IDS C   3     105.728  79.767  76.9050  0.00  0.00     0.000 C
ATOM     55   O  IDS C   3     105.190  78.792  77.3600  0.00  0.00     0.000 OA
ATOM     56   O  IDS C   3     106.534  79.658  76.0010  0.00  0.00     0.000 OA
ENDBRANCH 45 54
BRANCH 41 57
ATOM     57  O4  SGN C   4     105.257  82.779  79.9210  0.00  0.00     0.000 O
BRANCH 57 61
ATOM     58  C1  SGN C   4     107.668  81.923  83.2350  0.00  0.00     0.000 C
ATOM     59  C2  SGN C   4     107.873  81.049  81.9870  0.00  0.00     0.000 C
ATOM     60  C3  SGN C   4     107.254  81.703  80.7440  0.00  0.00     0.000 C
ATOM     61  C4  SGN C   4     105.796  82.033  81.0170  0.00  0.00     0.000 C
ATOM     62  C5  SGN C   4     105.665  82.877  82.2840  0.00  0.00     0.000 C
ATOM     63  O5  SGN C   4     106.288  82.214  83.4010  0.00  0.00     0.000 O
BRANCH 59 66
ATOM     64   N  SGN C   4     109.312  80.769  82.0020  0.00  0.00     0.000 N
ATOM     66  HD  SGN C   4     108.493  80.897  81.7530  0.00  0.00     0.000 HD
ATOM     66   O  SGN C   4     111.255  79.306  81.8700  0.00  0.00     0.000 OA
ATOM     67   O  SGN C   4     109.242  78.566  83.0710  0.00  0.00     0.000 OA
ATOM     68   S  SGN C   4     109.834  79.266  81.7990  0.00  0.00     0.000 S
ATOM     69   O  SGN C   4     109.210  78.728  80.6440  0.00  0.00     0.000 OA
ENDBRANCH 59 66
BRANCH 62 70
ATOM     70   C  SGN C   4     104.221  83.105  82.6520  0.00  0.00     0.000 C
ATOM     71   S  SGN C   4     101.969  81.924  82.9760  0.00  0.00     0.000 S
ATOM     72   O  SGN C   4     101.775  82.662  84.2090  0.00  0.00     0.000 OA
ATOM     73   O  SGN C   4     101.454  82.610  81.8090  0.00  0.00     0.000 OA
ATOM     74   O  SGN C   4     101.566  80.539  83.0630  0.00  0.00     0.000 OA
ATOM     75   O  SGN C   4     103.544  81.850  82.7910  0.00  0.00     0.000 O
ENDBRANCH 62 70
ENDBRANCH 57 61
ENDBRANCH 41 57
ENDBRANCH 40 44
ENDBRANCH 20 40
ENDBRANCH 19 23
ENDBRANCH 1 19
TORSDOF 14
ENDMDL
MODEL 12
REMARK VINA RESULT:      -0.8     96.213    100.177
ROOT
ATOM      1  C1  IDS C   1      23.104  85.839  92.2270  0.00  0.00     0.000 C
ATOM      2  C2  IDS C   1      23.461  84.403  91.8850  0.00  0.00     0.000 C
ATOM      3  C3  IDS C   1      23.007  84.054  90.4730  0.00  0.00     0.000 C
ATOM      4  C4  IDS C   1      23.497  85.092  89.4640  0.00  0.00     0.000 C
ATOM      5  C5  IDS C   1      23.164  86.515  89.9560  0.00  0.00     0.000 C
ATOM      6  O5  IDS C   1      23.682  86.722  91.2670  0.00  0.00     0.000 O
ATOM      7   O  IDS C   1      21.582  83.959  90.4410  0.00  0.00     0.000 O
ATOM      9  HD  IDS C   1      21.747  84.177  89.6190  0.00  0.00     0.000 HD
ATOM      9   O  IDS C   1      24.919  84.961  89.3120  0.00  0.00     0.000 O
ATOM     11  HD  IDS C   1      25.084  85.179  88.4910  0.00  0.00     0.000 HD
ENDROOT
BRANCH 2 11
ATOM     11   O  IDS C   1      24.928  84.214  91.9460  0.00  0.00     0.000 O
ATOM     12   S  IDS C   1      25.583  83.290  93.0740  0.00  0.00     0.000 S
ATOM     13   O  IDS C   1      26.707  82.706  92.3770  0.00  0.00     0.000 OA
ATOM     14   O  IDS C   1      24.618  82.309  93.5090  0.00  0.00     0.000 OA
ATOM     15   O  IDS C   1      25.968  84.209  94.1160  0.00  0.00     0.000 OA
ENDBRANCH 2 11
BRANCH 5 16
ATOM     16   C  IDS C   1      23.723  87.606  89.0610  0.00  0.00     0.000 C
ATOM     17   O  IDS C   1      23.529  88.765  89.3610  0.00  0.00     0.000 OA
ATOM     18   O  IDS C   1      24.332  87.332  88.0640  0.00  0.00     0.000 OA
ENDBRANCH 5 16
BRANCH 1 19
ATOM     19  O4  SGN C   2      21.854  86.124  92.6050  0.00  0.00     0.000 O
BRANCH 19 23
ATOM     20  C1  SGN C   2      19.467  88.615  94.9550  0.00  0.00     0.000 C
ATOM     21  C2  SGN C   2      20.100  89.249  93.7100  0.00  0.00     0.000 C
ATOM     22  C3  SGN C   2      20.558  88.154  92.7500  0.00  0.00     0.000 C
ATOM     23  C4  SGN C   2      21.522  87.215  93.4660  0.00  0.00     0.000 C
ATOM     24  C5  SGN C   2      20.873  86.679  94.7450  0.00  0.00     0.000 C
ATOM     25  O5  SGN C   2      20.433  87.776  95.5660  0.00  0.00     0.000 O
ATOM     26   O  SGN C   2      21.163  88.724  91.5960  0.00  0.00     0.000 O
ATOM     28  HD  SGN C   2      21.453  89.151  90.9000  0.00  0.00     0.000 HD
BRANCH 21 30
ATOM     28   N  SGN C   2      19.013  90.233  93.7890  0.00  0.00     0.000 N
ATOM     30  HD  SGN C   2      18.580  90.419  93.0630  0.00  0.00     0.000 HD
ATOM     30   S  SGN C   2      19.267  91.777  93.4540  0.00  0.00     0.000 S
ATOM     31   O  SGN C   2      19.860  91.788  92.1590  0.00  0.00     0.000 OA
ATOM     32   O  SGN C   2      18.067  92.491  93.6880  0.00  0.00     0.000 OA
ATOM     33   O  SGN C   2      20.295  92.239  94.5420  0.00  0.00     0.000 OA
ENDBRANCH 21 30
BRANCH 24 34
ATOM     34   C  SGN C   2      21.806  85.854  95.6000  0.00  0.00     0.000 C
ATOM     35   O  SGN C   2      21.510  84.460  95.4050  0.00  0.00     0.000 O
ATOM     36   S  SGN C   2      22.023  83.446  96.5260  0.00  0.00     0.000 S
ATOM     37   O  SGN C   2      21.495  83.972  97.7690  0.00  0.00     0.000 OA
ATOM     38   O  SGN C   2      21.474  82.160  96.1680  0.00  0.00     0.000 OA
ATOM     39   O  SGN C   2      23.460  83.513  96.4250  0.00  0.00     0.000 OA
ENDBRANCH 24 34
BRANCH 20 40
ATOM     40  O4  IDS C   3      18.336  87.931  94.7890  0.00  0.00     0.000 O
BRANCH 40 44
ATOM     41  C1  IDS C   3      15.151  86.485  94.3600  0.00  0.00     0.000 C
ATOM     42  C2  IDS C   3      15.438  87.922  93.9350  0.00  0.00     0.000 C
ATOM     43  C3  IDS C   3      16.068  88.701  95.0870  0.00  0.00     0.000 C
ATOM     44  C4  IDS C   3      17.237  87.948  95.7030  0.00  0.00     0.000 C
ATOM     45  C5  IDS C   3      16.814  86.501  96.0350  0.00  0.00     0.000 C
ATOM     46  O5  IDS C   3      16.335  85.861  94.8510  0.00  0.00     0.000 O
ATOM     47   O  IDS C   3      15.078  88.958  96.0810  0.00  0.00     0.000 O
ATOM     49  HD  IDS C   3      15.450  89.103  95.3120  0.00  0.00     0.000 HD
BRANCH 42 49
ATOM     49   O  IDS C   3      16.374  87.936  92.7870  0.00  0.00     0.000 O
ATOM     50   S  IDS C   3      16.078  88.889  91.5340  0.00  0.00     0.000 S
ATOM     51   O  IDS C   3      16.350  90.213  92.0510  0.00  0.00     0.000 OA
ATOM     52   O  IDS C   3      14.695  88.726  91.1180  0.00  0.00     0.000 OA
ATOM     53   O  IDS C   3      17.007  88.487  90.4990  0.00  0.00     0.000 OA
ENDBRANCH 42 49
BRANCH 45 54
ATOM     54   C  IDS C   3      17.941  85.664  96.6210  0.00  0.00     0.000 C
ATOM     55   O  IDS C   3      18.257  84.633  96.0860  0.00  0.00     0.000 OA
ATOM     56   O  IDS C   3      18.505  86.030  97.6340  0.00  0.00     0.000 OA
ENDBRANCH 45 54
BRANCH 41 57
ATOM     57  O4  SGN C   4      14.027  86.509  95.0870  0.00  0.00     0.000 O
BRANCH 57 61
ATOM     58  C1  SGN C   4      11.317  83.780  96.7410  0.00  0.00     0.000 C
ATOM     59  C2  SGN C   4      12.744  83.770  97.3140  0.00  0.00     0.000 C
ATOM     60  C3  SGN C   4      13.501  85.051  96.9360  0.00  0.00     0.000 C
ATOM     61  C4  SGN C   4      13.456  85.242  95.4290  0.00  0.00     0.000 C
ATOM     62  C5  SGN C   4      12.013  85.211  94.9280  0.00  0.00     0.000 C
ATOM     63  O5  SGN C   4      11.359  83.995  95.3390  0.00  0.00     0.000 O
BRANCH 59 66
ATOM     64   N  SGN C   4      12.553  83.470  98.7370  0.00  0.00     0.000 N
ATOM     66  HD  SGN C   4      12.875  83.744  97.9800  0.00  0.00     0.000 HD
ATOM     66   O  SGN C   4      12.997  82.234 100.7880  0.00  0.00     0.000 OA
ATOM     67   O  SGN C   4      12.865  81.043  98.6410  0.00  0.00     0.000 OA
ATOM     68   S  SGN C   4      13.399  82.292  99.4240  0.00  0.00     0.000 S
ATOM     69   O  SGN C   4      14.769  82.483  99.1090  0.00  0.00     0.000 OA
ENDBRANCH 59 66
BRANCH 62 70
ATOM     70   C  SGN C   4      11.949  85.264  93.4220  0.00  0.00     0.000 C
ATOM     71   S  SGN C   4      12.982  84.299  91.2840  0.00  0.00     0.000 S
ATOM     72   O  SGN C   4      11.652  84.124  90.7360  0.00  0.00     0.000 OA
ATOM     73   O  SGN C   4      13.558  85.596  90.9910  0.00  0.00     0.000 OA
ATOM     74   O  SGN C   4      13.870  83.192  91.0090  0.00  0.00     0.000 OA
ATOM     75   O  SGN C   4      12.783  84.245  92.8580  0.00  0.00     0.000 O
ENDBRANCH 62 70
ENDBRANCH 57 61
ENDBRANCH 41 57
ENDBRANCH 40 44
ENDBRANCH 20 40
ENDBRANCH 19 23
ENDBRANCH 1 19
TORSDOF 14
ENDMDL
MODEL 13
REMARK VINA RESULT:      -0.8     95.607     99.882
ROOT
ATOM      1  C1  IDS C   1      62.139  83.311  81.1110  0.00  0.00     0.000 C
ATOM      2  C2  IDS C   1      62.181  84.221  82.3260  0.00  0.00     0.000 C
ATOM      3  C3  IDS C   1      61.773  85.641  81.9530  0.00  0.00     0.000 C
ATOM      4  C4  IDS C   1      60.448  85.652  81.1910  0.00  0.00     0.000 C
ATOM      5  C5  IDS C   1      60.485  84.627  80.0400  0.00  0.00     0.000 C
ATOM      6  O5  IDS C   1      60.836  83.338  80.5320  0.00  0.00     0.000 O
ATOM      7   O  IDS C   1      62.806  86.243  81.1700  0.00  0.00     0.000 O
ATOM      9  HD  IDS C   1      62.114  86.681  80.8870  0.00  0.00     0.000 HD
ATOM      9   O  IDS C   1      59.386  85.314  82.0970  0.00  0.00     0.000 O
ATOM     11  HD  IDS C   1      58.695  85.752  81.8140  0.00  0.00     0.000 HD
ENDROOT
BRANCH 2 11
ATOM     11   O  IDS C   1      61.236  83.738  83.3580  0.00  0.00     0.000 O
ATOM     12   S  IDS C   1      61.774  83.167  84.7500  0.00  0.00     0.000 S
ATOM     13   O  IDS C   1      60.747  83.595  85.6740  0.00  0.00     0.000 OA
ATOM     14   O  IDS C   1      63.066  83.744  85.0370  0.00  0.00     0.000 OA
ATOM     15   O  IDS C   1      61.819  81.739  84.5630  0.00  0.00     0.000 OA
ENDBRANCH 2 11
BRANCH 5 16
ATOM     16   C  IDS C   1      59.162  84.499  79.3080  0.00  0.00     0.000 C
ATOM     17   O  IDS C   1      59.093  83.757  78.3510  0.00  0.00     0.000 OA
ATOM     18   O  IDS C   1      58.202  85.129  79.6570  0.00  0.00     0.000 OA
ENDBRANCH 5 16
BRANCH 1 19
ATOM     19  O4  SGN C   2      63.161  83.332  80.2500  0.00  0.00     0.000 O
BRANCH 19 23
ATOM     20  C1  SGN C   2      65.438  81.074  77.5770  0.00  0.00     0.000 C
ATOM     21  C2  SGN C   2      64.011  81.421  77.1370  0.00  0.00     0.000 C
ATOM     22  C3  SGN C   2      63.478  82.577  77.9810  0.00  0.00     0.000 C
ATOM     23  C4  SGN C   2      63.545  82.206  79.4580  0.00  0.00     0.000 C
ATOM     24  C5  SGN C   2      64.971  81.784  79.8240  0.00  0.00     0.000 C
ATOM     25  O5  SGN C   2      65.405  80.725  78.9510  0.00  0.00     0.000 O
ATOM     26   O  SGN C   2      62.147  82.902  77.5960  0.00  0.00     0.000 O
ATOM     28  HD  SGN C   2      61.371  83.081  77.2570  0.00  0.00     0.000 HD
BRANCH 21 30
ATOM     28   N  SGN C   2      64.389  81.402  75.7180  0.00  0.00     0.000 N
ATOM     30  HD  SGN C   2      63.981  81.947  75.1820  0.00  0.00     0.000 HD
ATOM     30   S  SGN C   2      63.580  80.521  74.6560  0.00  0.00     0.000 S
ATOM     31   O  SGN C   2      62.217  80.908  74.8060  0.00  0.00     0.000 OA
ATOM     32   O  SGN C   2      64.214  80.641  73.3960  0.00  0.00     0.000 OA
ATOM     33   O  SGN C   2      63.797  79.047  75.1400  0.00  0.00     0.000 OA
ENDBRANCH 21 30
BRANCH 24 34
ATOM     34   C  SGN C   2      65.106  81.258  81.2330  0.00  0.00     0.000 C
ATOM     35   O  SGN C   2      65.689  82.281  82.0600  0.00  0.00     0.000 O
ATOM     36   S  SGN C   2      66.351  81.811  83.4350  0.00  0.00     0.000 S
ATOM     37   O  SGN C   2      67.295  80.778  83.0550  0.00  0.00     0.000 OA
ATOM     38   O  SGN C   2      66.980  82.988  83.9850  0.00  0.00     0.000 OA
ATOM     39   O  SGN C   2      65.236  81.329  84.2120  0.00  0.00     0.000 OA
ENDBRANCH 24 34
BRANCH 20 40
ATOM     40  O4  IDS C   3      66.383  81.990  77.3800  0.00  0.00     0.000 O
BRANCH 40 44
ATOM     41  C1  IDS C   3      68.904  84.283  76.4790  0.00  0.00     0.000 C
ATOM     42  C2  IDS C   3      67.938  83.712  75.4450  0.00  0.00     0.000 C
ATOM     43  C3  IDS C   3      67.914  82.188  75.5250  0.00  0.00     0.000 C
ATOM     44  C4  IDS C   3      67.716  81.702  76.9520  0.00  0.00     0.000 C
ATOM     45  C5  IDS C   3      68.726  82.398  77.8890  0.00  0.00     0.000 C
ATOM     46  O5  IDS C   3      68.574  83.815  77.7840  0.00  0.00     0.000 O
ATOM     47   O  IDS C   3      69.133  81.667  74.9990  0.00  0.00     0.000 O
ATOM     49  HD  IDS C   3      68.351  82.028  74.9100  0.00  0.00     0.000 HD
BRANCH 42 49
ATOM     49   O  IDS C   3      66.568  84.221  75.6910  0.00  0.00     0.000 O
ATOM     50   S  IDS C   3      65.710  84.811  74.4740  0.00  0.00     0.000 S
ATOM     51   O  IDS C   3      65.369  83.634  73.7060  0.00  0.00     0.000 OA
ATOM     52   O  IDS C   3      66.522  85.752  73.7220  0.00  0.00     0.000 OA
ATOM     53   O  IDS C   3      64.556  85.447  75.0730  0.00  0.00     0.000 OA
ENDBRANCH 42 49
BRANCH 45 54
ATOM     54   C  IDS C   3      68.569  81.997  79.3470  0.00  0.00     0.000 C
ATOM     55   O  IDS C   3      68.383  82.844  80.1820  0.00  0.00     0.000 OA
ATOM     56   O  IDS C   3      68.650  80.827  79.6670  0.00  0.00     0.000 OA
ENDBRANCH 45 54
BRANCH 41 57
ATOM     57  O4  SGN C   4      70.138  84.141  75.9810  0.00  0.00     0.000 O
BRANCH 57 61
ATOM     58  C1  SGN C   4      74.044  85.315  76.9310  0.00  0.00     0.000 C
ATOM     59  C2  SGN C   4      73.344  84.374  77.9250  0.00  0.00     0.000 C
ATOM     60  C3  SGN C   4      72.121  83.702  77.2850  0.00  0.00     0.000 C
ATOM     61  C4  SGN C   4      71.200  84.765  76.7100  0.00  0.00     0.000 C
ATOM     62  C5  SGN C   4      71.967  85.680  75.7560  0.00  0.00     0.000 C
ATOM     63  O5  SGN C   4      73.112  86.254  76.4150  0.00  0.00     0.000 O
BRANCH 59 66
ATOM     64   N  SGN C   4      74.421  83.513  78.4230  0.00  0.00     0.000 N
ATOM     66  HD  SGN C   4      73.647  83.832  78.2030  0.00  0.00     0.000 HD
ATOM     66   O  SGN C   4      75.742  82.459  80.1780  0.00  0.00     0.000 OA
ATOM     67   O  SGN C   4      75.011  84.793  80.4260  0.00  0.00     0.000 OA
ATOM     68   S  SGN C   4      74.631  83.332  80.0040  0.00  0.00     0.000 S
ATOM     69   O  SGN C   4      73.382  82.994  80.5850  0.00  0.00     0.000 OA
ENDBRANCH 59 66
BRANCH 62 70
ATOM     70   C  SGN C   4      71.110  86.824  75.2760  0.00  0.00     0.000 C
ATOM     71   S  SGN C   4      69.469  88.633  76.0540  0.00  0.00     0.000 S
ATOM     72   O  SGN C   4      70.170  89.601  75.2350  0.00  0.00     0.000 OA
ATOM     73   O  SGN C   4      68.402  87.950  75.3510  0.00  0.00     0.000 OA
ATOM     74   O  SGN C   4      69.079  89.145  77.3480  0.00  0.00     0.000 OA
ATOM     75   O  SGN C   4      70.557  87.527  76.3950  0.00  0.00     0.000 O
ENDBRANCH 62 70
ENDBRANCH 57 61
ENDBRANCH 41 57
ENDBRANCH 40 44
ENDBRANCH 20 40
ENDBRANCH 19 23
ENDBRANCH 1 19
TORSDOF 14
ENDMDL
MODEL 14
REMARK VINA RESULT:      -0.8     68.930     73.749
ROOT
ATOM      1  C1  IDS C   1      55.777  56.410  67.3750  0.00  0.00     0.000 C
ATOM      2  C2  IDS C   1      57.122  55.752  67.1240  0.00  0.00     0.000 C
ATOM      3  C3  IDS C   1      57.225  54.429  67.8740  0.00  0.00     0.000 C
ATOM      4  C4  IDS C   1      56.015  53.539  67.5910  0.00  0.00     0.000 C
ATOM      5  C5  IDS C   1      54.709  54.335  67.7860  0.00  0.00     0.000 C
ATOM      6  O5  IDS C   1      54.726  55.521  66.9990  0.00  0.00     0.000 O
ATOM      7   O  IDS C   1      57.342  54.684  69.2750  0.00  0.00     0.000 O
ATOM      9  HD  IDS C   1      56.979  53.898  69.2850  0.00  0.00     0.000 HD
ATOM      9   O  IDS C   1      56.088  53.069  66.2360  0.00  0.00     0.000 O
ATOM     11  HD  IDS C   1      55.726  52.282  66.2460  0.00  0.00     0.000 HD
ENDROOT
BRANCH 2 11
ATOM     11   O  IDS C   1      57.289  55.466  65.6820  0.00  0.00     0.000 O
ATOM     12   S  IDS C   1      58.359  56.272  64.8110  0.00  0.00     0.000 S
ATOM     13   O  IDS C   1      58.808  55.269  63.8710  0.00  0.00     0.000 OA
ATOM     14   O  IDS C   1      59.414  56.751  65.6720  0.00  0.00     0.000 OA
ATOM     15   O  IDS C   1      57.601  57.334  64.1980  0.00  0.00     0.000 OA
ENDBRANCH 2 11
BRANCH 5 16
ATOM     16   C  IDS C   1      53.466  53.549  67.4120  0.00  0.00     0.000 C
ATOM     17   O  IDS C   1      52.381  54.078  67.5320  0.00  0.00     0.000 OA
ATOM     18   O  IDS C   1      53.548  52.418  67.0180  0.00  0.00     0.000 OA
ENDBRANCH 5 16
BRANCH 1 19
ATOM     19  O4  SGN C   2      55.588  57.089  68.5110  0.00  0.00     0.000 O
BRANCH 19 23
ATOM     20  C1  SGN C   2      53.590  60.286  70.3030  0.00  0.00     0.000 C
ATOM     21  C2  SGN C   2      52.741  59.058  69.9520  0.00  0.00     0.000 C
ATOM     22  C3  SGN C   2      53.649  57.852  69.7250  0.00  0.00     0.000 C
ATOM     23  C4  SGN C   2      54.666  58.172  68.6360  0.00  0.00     0.000 C
ATOM     24  C5  SGN C   2      55.424  59.454  68.9940  0.00  0.00     0.000 C
ATOM     25  O5  SGN C   2      54.490  60.523  69.2330  0.00  0.00     0.000 O
ATOM     26   O  SGN C   2      52.878  56.706  69.3830  0.00  0.00     0.000 O
ATOM     28  HD  SGN C   2      52.334  56.045  69.2500  0.00  0.00     0.000 HD
BRANCH 21 30
ATOM     28   N  SGN C   2      51.799  59.254  71.0620  0.00  0.00     0.000 N
ATOM     30  HD  SGN C   2      51.405  58.555  71.3880  0.00  0.00     0.000 HD
ATOM     30   S  SGN C   2      50.230  59.417  70.7990  0.00  0.00     0.000 S
ATOM     31   O  SGN C   2      49.859  58.283  70.0210  0.00  0.00     0.000 OA
ATOM     32   O  SGN C   2      49.590  59.666  72.0370  0.00  0.00     0.000 OA
ATOM     33   O  SGN C   2      50.120  60.733  69.9550  0.00  0.00     0.000 OA
ENDBRANCH 21 30
BRANCH 24 34
ATOM     34   C  SGN C   2      56.352  59.934  67.9030  0.00  0.00     0.000 C
ATOM     35   O  SGN C   2      57.706  59.618  68.2690  0.00  0.00     0.000 O
ATOM     36   S  SGN C   2      58.866  60.427  67.5270  0.00  0.00     0.000 S
ATOM     37   O  SGN C   2      58.530  61.823  67.7310  0.00  0.00     0.000 OA
ATOM     38   O  SGN C   2      60.093  60.031  68.1750  0.00  0.00     0.000 OA
ATOM     39   O  SGN C   2      58.767  59.997  66.1540  0.00  0.00     0.000 OA
ENDBRANCH 24 34
BRANCH 20 40
ATOM     40  O4  IDS C   3      54.268  60.259  71.4470  0.00  0.00     0.000 O
BRANCH 40 44
ATOM     41  C1  IDS C   3      55.736  60.296  74.6520  0.00  0.00     0.000 C
ATOM     42  C2  IDS C   3      54.244  60.036  74.4610  0.00  0.00     0.000 C
ATOM     43  C3  IDS C   3      53.620  61.133  73.6020  0.00  0.00     0.000 C
ATOM     44  C4  IDS C   3      54.417  61.374  72.3300  0.00  0.00     0.000 C
ATOM     45  C5  IDS C   3      55.908  61.571  72.6730  0.00  0.00     0.000 C
ATOM     46  O5  IDS C   3      56.386  60.432  73.3920  0.00  0.00     0.000 O
ATOM     47   O  IDS C   3      53.539  62.338  74.3600  0.00  0.00     0.000 O
ATOM     49  HD  IDS C   3      53.273  61.538  74.1590  0.00  0.00     0.000 HD
BRANCH 42 49
ATOM     49   O  IDS C   3      54.037  58.732  73.7880  0.00  0.00     0.000 O
ATOM     50   S  IDS C   3      52.990  57.683  74.3970  0.00  0.00     0.000 S
ATOM     51   O  IDS C   3      51.708  58.284  74.1050  0.00  0.00     0.000 OA
ATOM     52   O  IDS C   3      53.226  57.538  75.8240  0.00  0.00     0.000 OA
ATOM     53   O  IDS C   3      53.208  56.444  73.6810  0.00  0.00     0.000 OA
ENDBRANCH 42 49
BRANCH 45 54
ATOM     54   C  IDS C   3      56.786  61.779  71.4490  0.00  0.00     0.000 C
ATOM     55   O  IDS C   3      57.726  61.051  71.2570  0.00  0.00     0.000 OA
ATOM     56   O  IDS C   3      56.546  62.688  70.6780  0.00  0.00     0.000 OA
ENDBRANCH 45 54
BRANCH 41 57
ATOM     57  O4  SGN C   4      55.851  61.236  75.5980  0.00  0.00     0.000 O
BRANCH 57 61
ATOM     58  C1  SGN C   4      58.868  62.982  77.9170  0.00  0.00     0.000 C
ATOM     59  C2  SGN C   4      58.927  63.234  76.4020  0.00  0.00     0.000 C
ATOM     60  C3  SGN C   4      57.585  62.908  75.7330  0.00  0.00     0.000 C
ATOM     61  C4  SGN C   4      57.169  61.492  76.0930  0.00  0.00     0.000 C
ATOM     62  C5  SGN C   4      57.160  61.305  77.6090  0.00  0.00     0.000 C
ATOM     63  O5  SGN C   4      58.440  61.652  78.1700  0.00  0.00     0.000 O
BRANCH 59 66
ATOM     64   N  SGN C   4      59.444  64.602  76.2890  0.00  0.00     0.000 N
ATOM     66  HD  SGN C   4      59.052  63.846  76.1320  0.00  0.00     0.000 HD
ATOM     66   O  SGN C   4      60.966  66.300  75.4330  0.00  0.00     0.000 OA
ATOM     67   O  SGN C   4      61.821  64.073  76.0270  0.00  0.00     0.000 OA
ATOM     68   S  SGN C   4      60.692  64.907  75.3280  0.00  0.00     0.000 S
ATOM     69   O  SGN C   4      60.423  64.344  74.0540  0.00  0.00     0.000 OA
ENDBRANCH 59 66
BRANCH 62 70
ATOM     70   C  SGN C   4      56.882  59.872  77.9890  0.00  0.00     0.000 C
ATOM     71   S  SGN C   4      57.628  57.454  77.5840  0.00  0.00     0.000 S
ATOM     72   O  SGN C   4      57.578  57.214  79.0130  0.00  0.00     0.000 OA
ATOM     73   O  SGN C   4      56.371  57.190  76.9130  0.00  0.00     0.000 OA
ATOM     74   O  SGN C   4      58.771  56.851  76.9370  0.00  0.00     0.000 OA
ATOM     75   O  SGN C   4      57.890  59.013  77.4440  0.00  0.00     0.000 O
ENDBRANCH 62 70
ENDBRANCH 57 61
ENDBRANCH 41 57
ENDBRANCH 40 44
ENDBRANCH 20 40
ENDBRANCH 19 23
ENDBRANCH 1 19
TORSDOF 14
ENDMDL
MODEL 15
REMARK VINA RESULT:      -0.8     91.139     96.750
ROOT
ATOM      1  C1  IDS C   1      49.127  68.492 108.0850  0.00  0.00     0.000 C
ATOM      2  C2  IDS C   1      50.475  68.055 107.5390  0.00  0.00     0.000 C
ATOM      3  C3  IDS C   1      51.088  69.149 106.6730  0.00  0.00     0.000 C
ATOM      4  C4  IDS C   1      51.098  70.491 107.4040  0.00  0.00     0.000 C
ATOM      5  C5  IDS C   1      49.705  70.788 107.9960  0.00  0.00     0.000 C
ATOM      6  O5  IDS C   1      49.273  69.708 108.8160  0.00  0.00     0.000 O
ATOM      7   O  IDS C   1      50.357  69.252 105.4490  0.00  0.00     0.000 O
ATOM      9  HD  IDS C   1      50.666  70.058 105.5190  0.00  0.00     0.000 HD
ATOM      9   O  IDS C   1      52.065  70.437 108.4640  0.00  0.00     0.000 O
ATOM     11  HD  IDS C   1      52.374  71.243 108.5350  0.00  0.00     0.000 HD
ENDROOT
BRANCH 2 11
ATOM     11   O  IDS C   1      51.413  67.785 108.6510  0.00  0.00     0.000 O
ATOM     12   S  IDS C   1      51.926  66.299 108.9400  0.00  0.00     0.000 S
ATOM     13   O  IDS C   1      53.279  66.526 109.3990  0.00  0.00     0.000 OA
ATOM     14   O  IDS C   1      51.865  65.527 107.7230  0.00  0.00     0.000 OA
ATOM     15   O  IDS C   1      51.046  65.806 109.9710  0.00  0.00     0.000 OA
ENDBRANCH 2 11
BRANCH 5 16
ATOM     16   C  IDS C   1      49.667  72.051 108.8360  0.00  0.00     0.000 C
ATOM     17   O  IDS C   1      48.624  72.370 109.3650  0.00  0.00     0.000 OA
ATOM     18   O  IDS C   1      50.645  72.735 108.9640  0.00  0.00     0.000 OA
ENDBRANCH 5 16
BRANCH 1 19
ATOM     19  O4  SGN C   2      48.051  68.410 107.2970  0.00  0.00     0.000 O
BRANCH 19 23
ATOM     20  C1  SGN C   2      43.924  67.791 107.1830  0.00  0.00     0.000 C
ATOM     21  C2  SGN C   2      44.400  69.130 107.7570  0.00  0.00     0.000 C
ATOM     22  C3  SGN C   2      45.846  69.386 107.3390  0.00  0.00     0.000 C
ATOM     23  C4  SGN C   2      46.724  68.226 107.7940  0.00  0.00     0.000 C
ATOM     24  C5  SGN C   2      46.156  66.906 107.2660  0.00  0.00     0.000 C
ATOM     25  O5  SGN C   2      44.781  66.771 107.6700  0.00  0.00     0.000 O
ATOM     26   O  SGN C   2      46.309  70.620 107.8770  0.00  0.00     0.000 O
ATOM     28  HD  SGN C   2      46.489  71.410 108.1830  0.00  0.00     0.000 HD
BRANCH 21 30
ATOM     28   N  SGN C   2      43.222  69.885 107.3100  0.00  0.00     0.000 N
ATOM     30  HD  SGN C   2      43.315  70.733 107.1610  0.00  0.00     0.000 HD
ATOM     30   S  SGN C   2      42.292  70.665 108.3520  0.00  0.00     0.000 S
ATOM     31   O  SGN C   2      43.175  71.505 109.0890  0.00  0.00     0.000 OA
ATOM     32   O  SGN C   2      41.202  71.230 107.6470  0.00  0.00     0.000 OA
ATOM     33   O  SGN C   2      41.709  69.532 109.2640  0.00  0.00     0.000 OA
ENDBRANCH 21 30
BRANCH 24 34
ATOM     34   C  SGN C   2      46.875  65.684 107.7870  0.00  0.00     0.000 C
ATOM     35   O  SGN C   2      47.744  65.179 106.7580  0.00  0.00     0.000 O
ATOM     36   S  SGN C   2      48.232  63.666 106.8990  0.00  0.00     0.000 S
ATOM     37   O  SGN C   2      47.011  62.897 107.0430  0.00  0.00     0.000 OA
ATOM     38   O  SGN C   2      48.954  63.375 105.6840  0.00  0.00     0.000 OA
ATOM     39   O  SGN C   2      49.061  63.675 108.0800  0.00  0.00     0.000 OA
ENDBRANCH 24 34
BRANCH 20 40
ATOM     40  O4  IDS C   3      43.829  67.688 105.8600  0.00  0.00     0.000 O
BRANCH 40 44
ATOM     41  C1  IDS C   3      43.254  67.546 102.3840  0.00  0.00     0.000 C
ATOM     42  C2  IDS C   3      42.622  68.628 103.2540  0.00  0.00     0.000 C
ATOM     43  C3  IDS C   3      41.899  67.999 104.4430  0.00  0.00     0.000 C
ATOM     44  C4  IDS C   3      42.781  66.998 105.1730  0.00  0.00     0.000 C
ATOM     45  C5  IDS C   3      43.389  66.001 104.1640  0.00  0.00     0.000 C
ATOM     46  O5  IDS C   3      44.114  66.717 103.1630  0.00  0.00     0.000 O
ATOM     47   O  IDS C   3      40.710  67.358 103.9890  0.00  0.00     0.000 O
ATOM     49  HD  IDS C   3      41.174  68.061 104.1890  0.00  0.00     0.000 HD
BRANCH 42 49
ATOM     49   O  IDS C   3      43.666  69.546 103.7660  0.00  0.00     0.000 O
ATOM     50   S  IDS C   3      43.429  71.129 103.7070  0.00  0.00     0.000 S
ATOM     51   O  IDS C   3      42.426  71.354 104.7250  0.00  0.00     0.000 OA
ATOM     52   O  IDS C   3      42.970  71.500 102.3790  0.00  0.00     0.000 OA
ATOM     53   O  IDS C   3      44.704  71.734 104.0300  0.00  0.00     0.000 OA
ENDBRANCH 42 49
BRANCH 45 54
ATOM     54   C  IDS C   3      44.319  64.985 104.8090  0.00  0.00     0.000 C
ATOM     55   O  IDS C   3      43.916  64.290 105.7050  0.00  0.00     0.000 OA
ATOM     56   O  IDS C   3      45.470  64.890 104.4290  0.00  0.00     0.000 OA
ENDBRANCH 45 54
BRANCH 41 57
ATOM     57  O4  SGN C   4      42.275  67.022 101.6370  0.00  0.00     0.000 O
BRANCH 57 61
ATOM     58  C1  SGN C   4      41.884  64.442  98.3620  0.00  0.00     0.000 C
ATOM     59  C2  SGN C   4      42.419  63.828  99.6660  0.00  0.00     0.000 C
ATOM     60  C3  SGN C   4      42.132  64.740 100.8670  0.00  0.00     0.000 C
ATOM     61  C4  SGN C   4      42.673  66.132 100.5890  0.00  0.00     0.000 C
ATOM     62  C5  SGN C   4      42.124  66.667  99.2680  0.00  0.00     0.000 C
ATOM     63  O5  SGN C   4      42.408  65.751  98.1930  0.00  0.00     0.000 O
BRANCH 59 66
ATOM     64   N  SGN C   4      41.861  62.472  99.6780  0.00  0.00     0.000 N
ATOM     66  HD  SGN C   4      42.204  63.232  99.9130  0.00  0.00     0.000 HD
ATOM     66   O  SGN C   4      42.011  60.048  99.8660  0.00  0.00     0.000 OA
ATOM     67   O  SGN C   4      43.745  61.294  98.6470  0.00  0.00     0.000 OA
ATOM     68   S  SGN C   4      42.827  61.214  99.9160  0.00  0.00     0.000 S
ATOM     69   O  SGN C   4      43.613  61.465 101.0700  0.00  0.00     0.000 OA
ENDBRANCH 59 66
BRANCH 62 70
ATOM     70   C  SGN C   4      42.749  67.989  98.9020  0.00  0.00     0.000 C
ATOM     71   S  SGN C   4      44.988  69.222  98.7030  0.00  0.00     0.000 S
ATOM     72   O  SGN C   4      44.570  69.746  97.4180  0.00  0.00     0.000 OA
ATOM     73   O  SGN C   4      44.609  70.066  99.8180  0.00  0.00     0.000 OA
ATOM     74   O  SGN C   4      46.371  68.802  98.7340  0.00  0.00     0.000 OA
ATOM     75   O  SGN C   4      44.176  67.868  98.8730  0.00  0.00     0.000 O
ENDBRANCH 62 70
ENDBRANCH 57 61
ENDBRANCH 41 57
ENDBRANCH 40 44
ENDBRANCH 20 40
ENDBRANCH 19 23
ENDBRANCH 1 19
TORSDOF 14
ENDMDL
MODEL 16
REMARK VINA RESULT:      -0.8     86.195     89.292
ROOT
ATOM      1  C1  IDS C   1      89.488  11.330  89.0220  0.00  0.00     0.000 C
ATOM      2  C2  IDS C   1      88.883  12.195  87.9310  0.00  0.00     0.000 C
ATOM      3  C3  IDS C   1      87.924  11.385  87.0680  0.00  0.00     0.000 C
ATOM      4  C4  IDS C   1      86.906  10.636  87.9270  0.00  0.00     0.000 C
ATOM      5  C5  IDS C   1      87.623   9.869  89.0570  0.00  0.00     0.000 C
ATOM      6  O5  IDS C   1      88.450  10.750  89.8100  0.00  0.00     0.000 O
ATOM      7   O  IDS C   1      88.667  10.469  86.2610  0.00  0.00     0.000 O
ATOM      9  HD  IDS C   1      87.912  10.051  86.3230  0.00  0.00     0.000 HD
ATOM      9   O  IDS C   1      85.992  11.584  88.5000  0.00  0.00     0.000 O
ATOM     11  HD  IDS C   1      85.237  11.165  88.5630  0.00  0.00     0.000 HD
ENDROOT
BRANCH 2 11
ATOM     11   O  IDS C   1      88.116  13.310  88.5300  0.00  0.00     0.000 O
ATOM     12   S  IDS C   1      88.612  14.820  88.3640  0.00  0.00     0.000 S
ATOM     13   O  IDS C   1      87.363  15.545  88.2820  0.00  0.00     0.000 OA
ATOM     14   O  IDS C   1      89.409  14.933  87.1650  0.00  0.00     0.000 OA
ATOM     15   O  IDS C   1      89.357  15.092  89.5680  0.00  0.00     0.000 OA
ENDBRANCH 2 11
BRANCH 5 16
ATOM     16   C  IDS C   1      86.667   9.193  90.0230  0.00  0.00     0.000 C
ATOM     17   O  IDS C   1      87.124   8.573  90.9600  0.00  0.00     0.000 OA
ATOM     18   O  IDS C   1      85.480   9.253  89.8580  0.00  0.00     0.000 OA
ENDBRANCH 5 16
BRANCH 1 19
ATOM     19  O4  SGN C   2      90.510  10.524  88.7200  0.00  0.00     0.000 O
BRANCH 19 23
ATOM     20  C1  SGN C   2      93.997   8.726  90.1470  0.00  0.00     0.000 C
ATOM     21  C2  SGN C   2      92.672   8.166  90.6760  0.00  0.00     0.000 C
ATOM     22  C3  SGN C   2      91.527   8.603  89.7660  0.00  0.00     0.000 C
ATOM     23  C4  SGN C   2      91.504  10.124  89.6650  0.00  0.00     0.000 C
ATOM     24  C5  SGN C   2      92.875  10.635  89.2170  0.00  0.00     0.000 C
ATOM     25  O5  SGN C   2      93.895  10.140  90.1030  0.00  0.00     0.000 O
ATOM     26   O  SGN C   2      90.286   8.104  90.2520  0.00  0.00     0.000 O
ATOM     28  HD  SGN C   2      89.587   7.708  90.5750  0.00  0.00     0.000 HD
BRANCH 21 30
ATOM     28   N  SGN C   2      93.382   6.905  90.9250  0.00  0.00     0.000 N
ATOM     30  HD  SGN C   2      92.986   6.166  90.7070  0.00  0.00     0.000 HD
ATOM     30   S  SGN C   2      93.142   6.069  92.2680  0.00  0.00     0.000 S
ATOM     31   O  SGN C   2      91.734   5.874  92.3440  0.00  0.00     0.000 OA
ATOM     32   O  SGN C   2      94.012   4.951  92.2630  0.00  0.00     0.000 OA
ATOM     33   O  SGN C   2      93.635   7.027  93.4060  0.00  0.00     0.000 OA
ENDBRANCH 21 30
BRANCH 24 34
ATOM     34   C  SGN C   2      92.995  12.141  89.2290  0.00  0.00     0.000 C
ATOM     35   O  SGN C   2      92.840  12.634  87.8870  0.00  0.00     0.000 O
ATOM     36   S  SGN C   2      93.388  14.103  87.5850  0.00  0.00     0.000 S
ATOM     37   O  SGN C   2      94.768  14.080  88.0290  0.00  0.00     0.000 OA
ATOM     38   O  SGN C   2      93.246  14.286  86.1610  0.00  0.00     0.000 OA
ATOM     39   O  SGN C   2      92.535  14.961  88.3700  0.00  0.00     0.000 OA
ENDBRANCH 24 34
BRANCH 20 40
ATOM     40  O4  IDS C   3      94.425   8.282  88.9670  0.00  0.00     0.000 O
BRANCH 40 44
ATOM     41  C1  IDS C   3      95.706   6.800  86.0370  0.00  0.00     0.000 C
ATOM     42  C2  IDS C   3      95.317   5.961  87.2500  0.00  0.00     0.000 C
ATOM     43  C3  IDS C   3      95.990   6.502  88.5090  0.00  0.00     0.000 C
ATOM     44  C4  IDS C   3      95.792   8.003  88.6530  0.00  0.00     0.000 C
ATOM     45  C5  IDS C   3      96.178   8.712  87.3380  0.00  0.00     0.000 C
ATOM     46  O5  IDS C   3      95.407   8.175  86.2620  0.00  0.00     0.000 O
ATOM     47   O  IDS C   3      97.383   6.198  88.4680  0.00  0.00     0.000 O
ATOM     49  HD  IDS C   3      96.552   5.979  88.5790  0.00  0.00     0.000 HD
BRANCH 42 49
ATOM     49   O  IDS C   3      93.849   5.998  87.4450  0.00  0.00     0.000 O
ATOM     50   S  IDS C   3      93.052   4.640  87.7420  0.00  0.00     0.000 S
ATOM     51   O  IDS C   3      93.442   4.314  89.0960  0.00  0.00     0.000 OA
ATOM     52   O  IDS C   3      93.457   3.624  86.7850  0.00  0.00     0.000 OA
ATOM     53   O  IDS C   3      91.648   4.969  87.6240  0.00  0.00     0.000 OA
ENDBRANCH 42 49
BRANCH 45 54
ATOM     54   C  IDS C   3      95.971  10.218  87.3830  0.00  0.00     0.000 C
ATOM     55   O  IDS C   3      95.271  10.749  86.5590  0.00  0.00     0.000 OA
ATOM     56   O  IDS C   3      96.525  10.882  88.2370  0.00  0.00     0.000 OA
ENDBRANCH 45 54
BRANCH 41 57
ATOM     57  O4  SGN C   4      96.932   6.408  85.6670  0.00  0.00     0.000 O
BRANCH 57 61
ATOM     58  C1  SGN C   4      99.563   6.987  82.4620  0.00  0.00     0.000 C
ATOM     59  C2  SGN C   4      99.169   8.236  83.2670  0.00  0.00     0.000 C
ATOM     60  C3  SGN C   4      98.558   7.852  84.6220  0.00  0.00     0.000 C
ATOM     61  C4  SGN C   4      97.405   6.886  84.4040  0.00  0.00     0.000 C
ATOM     62  C5  SGN C   4      97.861   5.687  83.5740  0.00  0.00     0.000 C
ATOM     63  O5  SGN C   4      98.444   6.123  82.3310  0.00  0.00     0.000 O
BRANCH 59 66
ATOM     64   N  SGN C   4     100.374   9.071  83.2990  0.00  0.00     0.000 N
ATOM     66  HD  SGN C   4      99.599   8.722  83.4690  0.00  0.00     0.000 HD
ATOM     66   O  SGN C   4     101.617  11.130  82.9120  0.00  0.00     0.000 OA
ATOM     67   O  SGN C   4      99.982  10.353  81.2490  0.00  0.00     0.000 OA
ATOM     68   S  SGN C   4     100.311  10.583  82.7650  0.00  0.00     0.000 S
ATOM     69   O  SGN C   4      99.211  11.230  83.3830  0.00  0.00     0.000 OA
ENDBRANCH 59 66
BRANCH 62 70
ATOM     70   C  SGN C   4      96.705   4.781  83.2290  0.00  0.00     0.000 C
ATOM     71   S  SGN C   4      94.326   4.753  82.2760  0.00  0.00     0.000 S
ATOM     72   O  SGN C   4      94.684   3.615  81.4530  0.00  0.00     0.000 OA
ATOM     73   O  SGN C   4      93.820   4.380  83.5820  0.00  0.00     0.000 OA
ATOM     74   O  SGN C   4      93.508   5.727  81.5900  0.00  0.00     0.000 OA
ATOM     75   O  SGN C   4      95.695   5.516  82.5300  0.00  0.00     0.000 O
ENDBRANCH 62 70
ENDBRANCH 57 61
ENDBRANCH 41 57
ENDBRANCH 40 44
ENDBRANCH 20 40
ENDBRANCH 19 23
ENDBRANCH 1 19
TORSDOF 14
ENDMDL
MODEL 17
REMARK VINA RESULT:      -0.8     80.069     83.387
ROOT
ATOM      1  C1  IDS C   1      91.869  35.653  60.5280  0.00  0.00     0.000 C
ATOM      2  C2  IDS C   1      92.765  34.760  61.3680  0.00  0.00     0.000 C
ATOM      3  C3  IDS C   1      93.231  35.489  62.6220  0.00  0.00     0.000 C
ATOM      4  C4  IDS C   1      92.051  36.101  63.3760  0.00  0.00     0.000 C
ATOM      5  C5  IDS C   1      91.159  36.906  62.4090  0.00  0.00     0.000 C
ATOM      6  O5  IDS C   1      90.760  36.096  61.3090  0.00  0.00     0.000 O
ATOM      7   O  IDS C   1      94.173  36.501  62.2620  0.00  0.00     0.000 O
ATOM      9  HD  IDS C   1      93.851  36.835  62.9930  0.00  0.00     0.000 HD
ATOM      9   O  IDS C   1      91.278  35.045  63.9690  0.00  0.00     0.000 O
ATOM     11  HD  IDS C   1      90.956  35.379  64.7000  0.00  0.00     0.000 HD
ENDROOT
BRANCH 2 11
ATOM     11   O  IDS C   1      92.024  33.553  61.7980  0.00  0.00     0.000 O
ATOM     12   S  IDS C   1      92.406  32.114  61.2170  0.00  0.00     0.000 S
ATOM     13   O  IDS C   1      92.153  31.250  62.3490  0.00  0.00     0.000 OA
ATOM     14   O  IDS C   1      93.789  32.115  60.8070  0.00  0.00     0.000 OA
ATOM     15   O  IDS C   1      91.489  31.910  60.1230  0.00  0.00     0.000 OA
ENDBRANCH 2 11
BRANCH 5 16
ATOM     16   C  IDS C   1      89.902  37.449  63.0640  0.00  0.00     0.000 C
ATOM     17   O  IDS C   1      89.122  38.089  62.3910  0.00  0.00     0.000 OA
ATOM     18   O  IDS C   1      89.688  37.266  64.2310  0.00  0.00     0.000 OA
ENDBRANCH 5 16
BRANCH 1 19
ATOM     19  O4  SGN C   2      92.428  36.571  59.7340  0.00  0.00     0.000 O
BRANCH 19 23
ATOM     20  C1  SGN C   2      92.070  38.681  56.1500  0.00  0.00     0.000 C
ATOM     21  C2  SGN C   2      91.098  39.066  57.2710  0.00  0.00     0.000 C
ATOM     22  C3  SGN C   2      91.619  38.545  58.6080  0.00  0.00     0.000 C
ATOM     23  C4  SGN C   2      91.826  37.037  58.5250  0.00  0.00     0.000 C
ATOM     24  C5  SGN C   2      92.733  36.701  57.3370  0.00  0.00     0.000 C
ATOM     25  O5  SGN C   2      92.188  37.268  56.1320  0.00  0.00     0.000 O
ATOM     26   O  SGN C   2      90.720  38.880  59.6580  0.00  0.00     0.000 O
ATOM     28  HD  SGN C   2      90.159  39.181  60.2450  0.00  0.00     0.000 HD
BRANCH 21 30
ATOM     28   N  SGN C   2      90.955  40.303  56.4930  0.00  0.00     0.000 N
ATOM     30  HD  SGN C   2      91.103  41.056  56.8960  0.00  0.00     0.000 HD
ATOM     30   S  SGN C   2      89.585  41.130  56.4940  0.00  0.00     0.000 S
ATOM     31   O  SGN C   2      89.288  41.364  57.8660  0.00  0.00     0.000 OA
ATOM     32   O  SGN C   2      89.719  42.222  55.6030  0.00  0.00     0.000 OA
ATOM     33   O  SGN C   2      88.546  40.145  55.8580  0.00  0.00     0.000 OA
ENDBRANCH 21 30
BRANCH 24 34
ATOM     34   C  SGN C   2      92.878  35.219  57.0840  0.00  0.00     0.000 C
ATOM     35   O  SGN C   2      94.180  34.795  57.5240  0.00  0.00     0.000 O
ATOM     36   S  SGN C   2      94.729  33.414  56.9400  0.00  0.00     0.000 S
ATOM     37   O  SGN C   2      94.632  33.559  55.5010  0.00  0.00     0.000 OA
ATOM     38   O  SGN C   2      96.087  33.303  57.4160  0.00  0.00     0.000 OA
ATOM     39   O  SGN C   2      93.836  32.424  57.4900  0.00  0.00     0.000 OA
ENDBRANCH 24 34
BRANCH 20 40
ATOM     40  O4  IDS C   3      93.286  39.222  56.1770  0.00  0.00     0.000 O
BRANCH 40 44
ATOM     41  C1  IDS C   3      96.343  40.975  56.0810  0.00  0.00     0.000 C
ATOM     42  C2  IDS C   3      95.005  41.707  56.1400  0.00  0.00     0.000 C
ATOM     43  C3  IDS C   3      94.074  41.200  55.0410  0.00  0.00     0.000 C
ATOM     44  C4  IDS C   3      93.996  39.682  55.0240  0.00  0.00     0.000 C
ATOM     45  C5  IDS C   3      95.418  39.083  55.0150  0.00  0.00     0.000 C
ATOM     46  O5  IDS C   3      96.145  39.565  56.1460  0.00  0.00     0.000 O
ATOM     47   O  IDS C   3      94.531  41.677  53.7770  0.00  0.00     0.000 O
ATOM     49  HD  IDS C   3      94.144  41.786  54.5450  0.00  0.00     0.000 HD
BRANCH 42 49
ATOM     49   O  IDS C   3      94.356  41.478  57.4520  0.00  0.00     0.000 O
ATOM     50   S  IDS C   3      93.645  42.698  58.2090  0.00  0.00     0.000 S
ATOM     51   O  IDS C   3      92.457  42.933  57.4190  0.00  0.00     0.000 OA
ATOM     52   O  IDS C   3      94.539  43.844  58.2260  0.00  0.00     0.000 OA
ATOM     53   O  IDS C   3      93.349  42.220  59.5430  0.00  0.00     0.000 OA
ENDBRANCH 42 49
BRANCH 45 54
ATOM     54   C  IDS C   3      95.431  37.562  55.0390  0.00  0.00     0.000 C
ATOM     55   O  IDS C   3      94.851  36.947  54.1810  0.00  0.00     0.000 OA
ATOM     56   O  IDS C   3      96.010  36.974  55.9310  0.00  0.00     0.000 OA
ENDBRANCH 45 54
BRANCH 41 57
ATOM     57  O4  SGN C   4      97.050  41.532  55.0910  0.00  0.00     0.000 O
BRANCH 57 61
ATOM     58  C1  SGN C   4     100.977  41.474  53.6400  0.00  0.00     0.000 C
ATOM     59  C2  SGN C   4     100.203  40.147  53.5930  0.00  0.00     0.000 C
ATOM     60  C3  SGN C   4      98.694  40.379  53.7530  0.00  0.00     0.000 C
ATOM     61  C4  SGN C   4      98.436  41.183  55.0170  0.00  0.00     0.000 C
ATOM     62  C5  SGN C   4      99.258  42.471  55.0090  0.00  0.00     0.000 C
ATOM     63  O5  SGN C   4     100.657  42.179  54.8310  0.00  0.00     0.000 O
BRANCH 59 66
ATOM     64   N  SGN C   4     100.675  39.501  52.3640  0.00  0.00     0.000 N
ATOM     66  HD  SGN C   4     100.205  39.734  53.0530  0.00  0.00     0.000 HD
ATOM     66   O  SGN C   4     101.598  37.642  51.0880  0.00  0.00     0.000 OA
ATOM     67   O  SGN C   4     102.463  38.136  53.3350  0.00  0.00     0.000 OA
ATOM     68   S  SGN C   4     101.204  37.987  52.4120  0.00  0.00     0.000 S
ATOM     69   O  SGN C   4     100.234  37.194  53.0780  0.00  0.00     0.000 OA
ENDBRANCH 59 66
BRANCH 62 70
ATOM     70   C  SGN C   4      99.123  43.222  56.3100  0.00  0.00     0.000 C
ATOM     71   S  SGN C   4      99.164  42.947  58.8580  0.00  0.00     0.000 S
ATOM     72   O  SGN C   4     100.003  44.125  58.9580  0.00  0.00     0.000 OA
ATOM     73   O  SGN C   4      97.747  43.246  58.9020  0.00  0.00     0.000 OA
ATOM     74   O  SGN C   4      99.561  41.878  59.7460  0.00  0.00     0.000 OA
ATOM     75   O  SGN C   4      99.453  42.365  57.4090  0.00  0.00     0.000 O
ENDBRANCH 62 70
ENDBRANCH 57 61
ENDBRANCH 41 57
ENDBRANCH 40 44
ENDBRANCH 20 40
ENDBRANCH 19 23
ENDBRANCH 1 19
TORSDOF 14
ENDMDL
MODEL 18
REMARK VINA RESULT:      -0.8    113.784    117.777
ROOT
ATOM      1  C1  IDS C   1     103.533  58.395 104.1130  0.00  0.00     0.000 C
ATOM      2  C2  IDS C   1     104.326  59.359 104.9780  0.00  0.00     0.000 C
ATOM      3  C3  IDS C   1     103.469  60.554 105.3800  0.00  0.00     0.000 C
ATOM      4  C4  IDS C   1     102.138  60.102 105.9810  0.00  0.00     0.000 C
ATOM      5  C5  IDS C   1     101.467  59.057 105.0660  0.00  0.00     0.000 C
ATOM      6  O5  IDS C   1     102.359  57.977 104.8060  0.00  0.00     0.000 O
ATOM      7   O  IDS C   1     103.247  61.386 104.2400  0.00  0.00     0.000 O
ATOM      9  HD  IDS C   1     102.543  61.568 104.7110  0.00  0.00     0.000 HD
ATOM      9   O  IDS C   1     102.382  59.519 107.2700  0.00  0.00     0.000 O
ATOM     11  HD  IDS C   1     101.678  59.702 107.7410  0.00  0.00     0.000 HD
ENDROOT
BRANCH 2 11
ATOM     11   O  IDS C   1     104.768  58.686 106.2190  0.00  0.00     0.000 O
ATOM     12   S  IDS C   1     106.311  58.340 106.4520  0.00  0.00     0.000 S
ATOM     13   O  IDS C   1     106.453  58.515 107.8800  0.00  0.00     0.000 OA
ATOM     14   O  IDS C   1     107.126  59.253 105.6880  0.00  0.00     0.000 OA
ATOM     15   O  IDS C   1     106.443  56.968 106.0260  0.00  0.00     0.000 OA
ENDBRANCH 2 11
BRANCH 5 16
ATOM     16   C  IDS C   1     100.195  58.475 105.6530  0.00  0.00     0.000 C
ATOM     17   O  IDS C   1      99.591  57.633 105.0210  0.00  0.00     0.000 OA
ATOM     18   O  IDS C   1      99.780  58.849 106.7150  0.00  0.00     0.000 OA
ENDBRANCH 5 16
BRANCH 1 19
ATOM     19  O4  SGN C   2     103.379  58.667 102.8130  0.00  0.00     0.000 O
BRANCH 19 23
ATOM     20  C1  SGN C   2     102.872  57.033  99.0060  0.00  0.00     0.000 C
ATOM     21  C2  SGN C   2     101.674  56.936  99.9580  0.00  0.00     0.000 C
ATOM     22  C3  SGN C   2     101.845  57.928 101.1050  0.00  0.00     0.000 C
ATOM     23  C4  SGN C   2     103.165  57.663 101.8200  0.00  0.00     0.000 C
ATOM     24  C5  SGN C   2     104.316  57.685 100.8110  0.00  0.00     0.000 C
ATOM     25  O5  SGN C   2     104.049  56.755  99.7460  0.00  0.00     0.000 O
ATOM     26   O  SGN C   2     100.749  57.840 102.0080  0.00  0.00     0.000 O
ATOM     28  HD  SGN C   2     100.017  57.772 102.4660  0.00  0.00     0.000 HD
BRANCH 21 30
ATOM     28   N  SGN C   2     100.699  56.976  98.8590  0.00  0.00     0.000 N
ATOM     30  HD  SGN C   2      99.927  57.335  99.0160  0.00  0.00     0.000 HD
ATOM     30   S  SGN C   2      99.592  55.833  98.6900  0.00  0.00     0.000 S
ATOM     31   O  SGN C   2      98.927  55.765  99.9480  0.00  0.00     0.000 OA
ATOM     32   O  SGN C   2      98.852  56.096  97.5120  0.00  0.00     0.000 OA
ATOM     33   O  SGN C   2     100.425  54.533  98.4280  0.00  0.00     0.000 OA
ENDBRANCH 21 30
BRANCH 24 34
ATOM     34   C  SGN C   2     105.648  57.286 101.4010  0.00  0.00     0.000 C
ATOM     35   O  SGN C   2     106.428  58.472 101.6380  0.00  0.00     0.000 O
ATOM     36   S  SGN C   2     108.004  58.282 101.8040  0.00  0.00     0.000 S
ATOM     37   O  SGN C   2     108.415  57.557 100.6180  0.00  0.00     0.000 OA
ATOM     38   O  SGN C   2     108.551  59.615 101.8810  0.00  0.00     0.000 OA
ATOM     39   O  SGN C   2     108.138  57.528 103.0270  0.00  0.00     0.000 OA
ENDBRANCH 24 34
BRANCH 20 40
ATOM     40  O4  IDS C   3     103.034  58.171  98.3360  0.00  0.00     0.000 O
BRANCH 40 44
ATOM     41  C1  IDS C   3     103.203  61.049  96.3070  0.00  0.00     0.000 C
ATOM     42  C2  IDS C   3     101.945  60.189  96.3680  0.00  0.00     0.000 C
ATOM     43  C3  IDS C   3     102.289  58.725  96.1070  0.00  0.00     0.000 C
ATOM     44  C4  IDS C   3     103.450  58.257  96.9700  0.00  0.00     0.000 C
ATOM     45  C5  IDS C   3     104.628  59.246  96.8460  0.00  0.00     0.000 C
ATOM     46  O5  IDS C   3     104.190  60.557  97.2100  0.00  0.00     0.000 O
ATOM     47   O  IDS C   3     102.608  58.552  94.7290  0.00  0.00     0.000 O
ATOM     49  HD  IDS C   3     102.047  58.673  95.3780  0.00  0.00     0.000 HD
BRANCH 42 49
ATOM     49   O  IDS C   3     101.318  60.297  97.7060  0.00  0.00     0.000 O
ATOM     50   S  IDS C   3      99.746  60.581  97.8260  0.00  0.00     0.000 S
ATOM     51   O  IDS C   3      99.149  59.332  97.4080  0.00  0.00     0.000 OA
ATOM     52   O  IDS C   3      99.387  61.689  96.9560  0.00  0.00     0.000 OA
ATOM     53   O  IDS C   3      99.501  60.884  99.2200  0.00  0.00     0.000 OA
ENDBRANCH 42 49
BRANCH 45 54
ATOM     54   C  IDS C   3     105.822  58.873  97.7120  0.00  0.00     0.000 C
ATOM     55   O  IDS C   3     106.313  57.778  97.6100  0.00  0.00     0.000 OA
ATOM     56   O  IDS C   3     106.264  59.672  98.5140  0.00  0.00     0.000 OA
ENDBRANCH 45 54
BRANCH 41 57
ATOM     57  O4  SGN C   4     103.482  61.245  95.0130  0.00  0.00     0.000 O
BRANCH 57 61
ATOM     58  C1  SGN C   4     106.200  63.432  92.6990  0.00  0.00     0.000 C
ATOM     59  C2  SGN C   4     106.795  62.413  93.6840  0.00  0.00     0.000 C
ATOM     60  C3  SGN C   4     105.731  61.412  94.1550  0.00  0.00     0.000 C
ATOM     61  C4  SGN C   4     104.536  62.165  94.7140  0.00  0.00     0.000 C
ATOM     62  C5  SGN C   4     104.017  63.179  93.6950  0.00  0.00     0.000 C
ATOM     63  O5  SGN C   4     105.072  64.068  93.2810  0.00  0.00     0.000 O
BRANCH 59 66
ATOM     64   N  SGN C   4     107.974  61.880  92.9940  0.00  0.00     0.000 N
ATOM     66  HD  SGN C   4     107.299  61.985  93.5280  0.00  0.00     0.000 HD
ATOM     66   O  SGN C   4     110.339  61.326  92.8200  0.00  0.00     0.000 OA
ATOM     67   O  SGN C   4     109.648  63.430  93.8860  0.00  0.00     0.000 OA
ATOM     68   S  SGN C   4     109.400  61.890  93.7290  0.00  0.00     0.000 S
ATOM     69   O  SGN C   4     109.244  61.314  95.0160  0.00  0.00     0.000 OA
ENDBRANCH 59 66
BRANCH 62 70
ATOM     70   C  SGN C   4     102.917  64.033  94.2740  0.00  0.00     0.000 C
ATOM     71   S  SGN C   4     102.276  65.467  96.2990  0.00  0.00     0.000 S
ATOM     72   O  SGN C   4     101.776  66.489  95.3990  0.00  0.00     0.000 OA
ATOM     73   O  SGN C   4     101.275  64.485  96.6630  0.00  0.00     0.000 OA
ATOM     74   O  SGN C   4     103.009  65.998  97.4250  0.00  0.00     0.000 OA
ATOM     75   O  SGN C   4     103.378  64.692  95.4590  0.00  0.00     0.000 O
ENDBRANCH 62 70
ENDBRANCH 57 61
ENDBRANCH 41 57
ENDBRANCH 40 44
ENDBRANCH 20 40
ENDBRANCH 19 23
ENDBRANCH 1 19
TORSDOF 14
ENDMDL
MODEL 19
REMARK VINA RESULT:      -0.8     29.578     35.497
ROOT
ATOM      1  C1  IDS C   1      58.089  12.284  27.6570  0.00  0.00     0.000 C
ATOM      2  C2  IDS C   1      58.777  12.315  29.0100  0.00  0.00     0.000 C
ATOM      3  C3  IDS C   1      58.200  11.248  29.9340  0.00  0.00     0.000 C
ATOM      4  C4  IDS C   1      58.187   9.879  29.2550  0.00  0.00     0.000 C
ATOM      5  C5  IDS C   1      57.553   9.984  27.8530  0.00  0.00     0.000 C
ATOM      6  O5  IDS C   1      58.212  10.983  27.0820  0.00  0.00     0.000 O
ATOM      7   O  IDS C   1      56.880  11.624  30.3290  0.00  0.00     0.000 O
ATOM      9  HD  IDS C   1      56.827  10.762  30.3950  0.00  0.00     0.000 HD
ATOM      9   O  IDS C   1      59.537   9.405  29.1320  0.00  0.00     0.000 O
ATOM     11  HD  IDS C   1      59.484   8.543  29.1980  0.00  0.00     0.000 HD
ENDROOT
BRANCH 2 11
ATOM     11   O  IDS C   1      60.223  12.041  28.8550  0.00  0.00     0.000 O
ATOM     12   S  IDS C   1      61.303  13.182  29.1460  0.00  0.00     0.000 S
ATOM     13   O  IDS C   1      62.407  12.427  29.6960  0.00  0.00     0.000 OA
ATOM     14   O  IDS C   1      60.752  14.136  30.0780  0.00  0.00     0.000 OA
ATOM     15   O  IDS C   1      61.586  13.752  27.8520  0.00  0.00     0.000 OA
ENDBRANCH 2 11
BRANCH 5 16
ATOM     16   C  IDS C   1      57.608   8.685  27.0700  0.00  0.00     0.000 C
ATOM     17   O  IDS C   1      57.153   8.660  25.9470  0.00  0.00     0.000 OA
ATOM     18   O  IDS C   1      58.078   7.693  27.5560  0.00  0.00     0.000 OA
ENDBRANCH 5 16
BRANCH 1 19
ATOM     19  O4  SGN C   2      56.897  12.872  27.5210  0.00  0.00     0.000 O
BRANCH 19 23
ATOM     20  C1  SGN C   2      54.349  14.893  24.9040  0.00  0.00     0.000 C
ATOM     21  C2  SGN C   2      54.546  13.394  24.6470  0.00  0.00     0.000 C
ATOM     22  C3  SGN C   2      55.122  12.729  25.8940  0.00  0.00     0.000 C
ATOM     23  C4  SGN C   2      56.424  13.416  26.2870  0.00  0.00     0.000 C
ATOM     24  C5  SGN C   2      56.191  14.921  26.4450  0.00  0.00     0.000 C
ATOM     25  O5  SGN C   2      55.607  15.453  25.2420  0.00  0.00     0.000 O
ATOM     26   O  SGN C   2      55.325  11.339  25.6690  0.00  0.00     0.000 O
ATOM     28  HD  SGN C   2      55.354  10.496  25.4730  0.00  0.00     0.000 HD
BRANCH 21 30
ATOM     28   N  SGN C   2      53.247  13.435  23.9630  0.00  0.00     0.000 N
ATOM     30  HD  SGN C   2      52.673  12.812  24.1430  0.00  0.00     0.000 HD
ATOM     30   S  SGN C   2      52.992  12.608  22.6170  0.00  0.00     0.000 S
ATOM     31   O  SGN C   2      53.353  11.266  22.9260  0.00  0.00     0.000 OA
ATOM     32   O  SGN C   2      51.688  12.900  22.1500  0.00  0.00     0.000 OA
ATOM     33   O  SGN C   2      53.997  13.234  21.5900  0.00  0.00     0.000 OA
ENDBRANCH 21 30
BRANCH 24 34
ATOM     34   C  SGN C   2      57.456  15.709  26.6900  0.00  0.00     0.000 C
ATOM     35   O  SGN C   2      57.538  16.039  28.0880  0.00  0.00     0.000 O
ATOM     36   S  SGN C   2      58.509  17.240  28.4930  0.00  0.00     0.000 S
ATOM     37   O  SGN C   2      58.083  18.354  27.6680  0.00  0.00     0.000 OA
ATOM     38   O  SGN C   2      58.293  17.455  29.9040  0.00  0.00     0.000 OA
ATOM     39   O  SGN C   2      59.826  16.746  28.1750  0.00  0.00     0.000 OA
ENDBRANCH 24 34
BRANCH 20 40
ATOM     40  O4  IDS C   3      53.451  15.248  25.8200  0.00  0.00     0.000 O
BRANCH 40 44
ATOM     41  C1  IDS C   3      50.833  16.181  27.9890  0.00  0.00     0.000 C
ATOM     42  C2  IDS C   3      50.587  15.279  26.7830  0.00  0.00     0.000 C
ATOM     43  C3  IDS C   3      51.152  15.919  25.5170  0.00  0.00     0.000 C
ATOM     44  C4  IDS C   3      52.587  16.382  25.7130  0.00  0.00     0.000 C
ATOM     45  C5  IDS C   3      52.693  17.240  26.9910  0.00  0.00     0.000 C
ATOM     46  O5  IDS C   3      52.220  16.487  28.1100  0.00  0.00     0.000 O
ATOM     47   O  IDS C   3      50.333  17.022  25.1390  0.00  0.00     0.000 O
ATOM     49  HD  IDS C   3      50.494  16.174  25.2080  0.00  0.00     0.000 HD
BRANCH 42 49
ATOM     49   O  IDS C   3      51.245  13.967  26.9850  0.00  0.00     0.000 O
ATOM     50   S  IDS C   3      50.470  12.621  26.5930  0.00  0.00     0.000 S
ATOM     51   O  IDS C   3      50.472  12.644  25.1470  0.00  0.00     0.000 OA
ATOM     52   O  IDS C   3      49.127  12.658  27.1490  0.00  0.00     0.000 OA
ATOM     53   O  IDS C   3      51.256  11.535  27.1400  0.00  0.00     0.000 OA
ENDBRANCH 42 49
BRANCH 45 54
ATOM     54   C  IDS C   3      54.108  17.713  27.2840  0.00  0.00     0.000 C
ATOM     55   O  IDS C   3      54.618  17.450  28.3420  0.00  0.00     0.000 OA
ATOM     56   O  IDS C   3      54.711  18.368  26.4570  0.00  0.00     0.000 OA
ENDBRANCH 45 54
BRANCH 41 57
ATOM     57  O4  SGN C   4      49.909  17.148  27.9490  0.00  0.00     0.000 O
BRANCH 57 61
ATOM     58  C1  SGN C   4      48.471  20.199  30.4300  0.00  0.00     0.000 C
ATOM     59  C2  SGN C   4      49.928  20.324  29.9530  0.00  0.00     0.000 C
ATOM     60  C3  SGN C   4      50.200  19.404  28.7560  0.00  0.00     0.000 C
ATOM     61  C4  SGN C   4      49.801  17.981  29.1080  0.00  0.00     0.000 C
ATOM     62  C5  SGN C   4      48.355  17.936  29.6010  0.00  0.00     0.000 C
ATOM     63  O5  SGN C   4      48.168  18.840  30.7060  0.00  0.00     0.000 O
BRANCH 59 66
ATOM     64   N  SGN C   4      50.123  21.767  29.7730  0.00  0.00     0.000 N
ATOM     66  HD  SGN C   4      50.196  20.905  29.7220  0.00  0.00     0.000 HD
ATOM     66   O  SGN C   4      51.299  23.872  30.1150  0.00  0.00     0.000 OA
ATOM     67   O  SGN C   4      51.061  22.284  31.9760  0.00  0.00     0.000 OA
ATOM     68   S  SGN C   4      51.381  22.493  30.4550  0.00  0.00     0.000 S
ATOM     69   O  SGN C   4      52.552  21.763  30.1260  0.00  0.00     0.000 OA
ENDBRANCH 59 66
BRANCH 62 70
ATOM     70   C  SGN C   4      47.977  16.558  30.0830  0.00  0.00     0.000 C
ATOM     71   S  SGN C   4      48.796  14.570  31.4790  0.00  0.00     0.000 S
ATOM     72   O  SGN C   4      47.494  14.496  32.1120  0.00  0.00     0.000 OA
ATOM     73   O  SGN C   4      48.893  13.777  30.2700  0.00  0.00     0.000 OA
ATOM     74   O  SGN C   4      49.896  14.373  32.3950  0.00  0.00     0.000 OA
ATOM     75   O  SGN C   4      48.942  16.086  31.0300  0.00  0.00     0.000 O
ENDBRANCH 62 70
ENDBRANCH 57 61
ENDBRANCH 41 57
ENDBRANCH 40 44
ENDBRANCH 20 40
ENDBRANCH 19 23
ENDBRANCH 1 19
TORSDOF 14
ENDMDL
MODEL 20
REMARK VINA RESULT:      -0.7    104.031    108.455
ROOT
ATOM      1  C1  IDS C   1      30.151 106.262  73.8790  0.00  0.00     0.000 C
ATOM      2  C2  IDS C   1      31.047 105.364  74.7140  0.00  0.00     0.000 C
ATOM      3  C3  IDS C   1      31.024 103.935  74.1840  0.00  0.00     0.000 C
ATOM      4  C4  IDS C   1      31.304 103.898  72.6820  0.00  0.00     0.000 C
ATOM      5  C5  IDS C   1      30.405 104.914  71.9470  0.00  0.00     0.000 C
ATOM      6  O5  IDS C   1      30.556 106.212  72.5120  0.00  0.00     0.000 O
ATOM      7   O  IDS C   1      29.757 103.341  74.4720  0.00  0.00     0.000 O
ATOM      9  HD  IDS C   1      29.989 102.890  73.7690  0.00  0.00     0.000 HD
ATOM      9   O  IDS C   1      32.682 104.231  72.4550  0.00  0.00     0.000 O
ATOM     11  HD  IDS C   1      32.914 103.780  71.7530  0.00  0.00     0.000 HD
ENDROOT
BRANCH 2 11
ATOM     11   O  IDS C   1      32.446 105.842  74.6550  0.00  0.00     0.000 O
ATOM     12   S  IDS C   1      33.150 106.459  75.9510  0.00  0.00     0.000 S
ATOM     13   O  IDS C   1      34.520 106.023  75.7930  0.00  0.00     0.000 OA
ATOM     14   O  IDS C   1      32.522 105.925  77.1360  0.00  0.00     0.000 OA
ATOM     15   O  IDS C   1      32.981 107.884  75.8120  0.00  0.00     0.000 OA
ENDBRANCH 2 11
BRANCH 5 16
ATOM     16   C  IDS C   1      30.707 105.018  70.4630  0.00  0.00     0.000 C
ATOM     17   O  IDS C   1      30.005 105.725  69.7720  0.00  0.00     0.000 OA
ATOM     18   O  IDS C   1      31.612 104.400  69.9740  0.00  0.00     0.000 OA
ENDBRANCH 5 16
BRANCH 1 19
ATOM     19  O4  SGN C   2      28.833 106.248  74.0990  0.00  0.00     0.000 O
BRANCH 19 23
ATOM     20  C1  SGN C   2      25.320 108.502  74.0180  0.00  0.00     0.000 C
ATOM     21  C2  SGN C   2      25.909 108.102  72.6600  0.00  0.00     0.000 C
ATOM     22  C3  SGN C   2      26.898 106.954  72.8440  0.00  0.00     0.000 C
ATOM     23  C4  SGN C   2      27.980 107.363  73.8370  0.00  0.00     0.000 C
ATOM     24  C5  SGN C   2      27.335 107.835  75.1430  0.00  0.00     0.000 C
ATOM     25  O5  SGN C   2      26.389 108.884  74.8690  0.00  0.00     0.000 O
ATOM     26   O  SGN C   2      27.466 106.581  71.5940  0.00  0.00     0.000 O
ATOM     28  HD  SGN C   2      27.710 106.372  70.7900  0.00  0.00     0.000 HD
BRANCH 21 30
ATOM     28   N  SGN C   2      24.548 108.322  72.1520  0.00  0.00     0.000 N
ATOM     30  HD  SGN C   2      24.190 107.699  71.6690  0.00  0.00     0.000 HD
ATOM     30   S  SGN C   2      24.295 108.927  70.6930  0.00  0.00     0.000 S
ATOM     31   O  SGN C   2      25.032 108.091  69.8060  0.00  0.00     0.000 OA
ATOM     32   O  SGN C   2      22.901 109.095  70.5110  0.00  0.00     0.000 OA
ATOM     33   O  SGN C   2      24.925 110.360  70.7600  0.00  0.00     0.000 OA
ENDBRANCH 21 30
BRANCH 24 34
ATOM     34   C  SGN C   2      28.322 108.401  76.1370  0.00  0.00     0.000 C
ATOM     35   O  SGN C   2      28.579 107.415  77.1530  0.00  0.00     0.000 O
ATOM     36   S  SGN C   2      29.198 107.936  78.5290  0.00  0.00     0.000 S
ATOM     37   O  SGN C   2      28.296 108.984  78.9660  0.00  0.00     0.000 OA
ATOM     38   O  SGN C   2      29.216 106.791  79.4060  0.00  0.00     0.000 OA
ATOM     39   O  SGN C   2      30.511 108.409  78.1630  0.00  0.00     0.000 OA
ENDBRANCH 24 34
BRANCH 20 40
ATOM     40  O4  IDS C   3      24.559 107.608  74.6460  0.00  0.00     0.000 O
BRANCH 40 44
ATOM     41  C1  IDS C   3      22.246 105.363  76.0730  0.00  0.00     0.000 C
ATOM     42  C2  IDS C   3      22.088 105.870  74.6420  0.00  0.00     0.000 C
ATOM     43  C3  IDS C   3      22.155 107.395  74.6080  0.00  0.00     0.000 C
ATOM     44  C4  IDS C   3      23.364 107.922  75.3650  0.00  0.00     0.000 C
ATOM     45  C5  IDS C   3      23.421 107.288  76.7710  0.00  0.00     0.000 C
ATOM     46  O5  IDS C   3      23.448 105.864  76.6510  0.00  0.00     0.000 O
ATOM     47   O  IDS C   3      20.959 107.934  75.1660  0.00  0.00     0.000 O
ATOM     49  HD  IDS C   3      21.403 107.546  74.5320  0.00  0.00     0.000 HD
BRANCH 42 49
ATOM     49   O  IDS C   3      23.170 105.329  73.7870  0.00  0.00     0.000 O
ATOM     50   S  IDS C   3      22.820 104.751  72.3340  0.00  0.00     0.000 S
ATOM     51   O  IDS C   3      22.514 105.939  71.5690  0.00  0.00     0.000 OA
ATOM     52   O  IDS C   3      21.689 103.844  72.4350  0.00  0.00     0.000 OA
ATOM     53   O  IDS C   3      24.017 104.078  71.8750  0.00  0.00     0.000 OA
ENDBRANCH 42 49
BRANCH 45 54
ATOM     54   C  IDS C   3      24.626 107.733  77.5840  0.00  0.00     0.000 C
ATOM     55   O  IDS C   3      25.404 106.911  77.9960  0.00  0.00     0.000 OA
ATOM     56   O  IDS C   3      24.792 108.912  77.8280  0.00  0.00     0.000 OA
ENDBRANCH 45 54
BRANCH 41 57
ATOM     57  O4  SGN C   4      21.063 105.526  76.6780  0.00  0.00     0.000 O
BRANCH 57 61
ATOM     58  C1  SGN C   4      19.215 104.414  80.2670  0.00  0.00     0.000 C
ATOM     59  C2  SGN C   4      20.505 105.243  80.3810  0.00  0.00     0.000 C
ATOM     60  C3  SGN C   4      20.847 105.923  79.0490  0.00  0.00     0.000 C
ATOM     61  C4  SGN C   4      20.896 104.880  77.9440  0.00  0.00     0.000 C
ATOM     62  C5  SGN C   4      19.596 104.077  77.9080  0.00  0.00     0.000 C
ATOM     63  O5  SGN C   4      19.327 103.490  79.1950  0.00  0.00     0.000 O
BRANCH 59 66
ATOM     64   N  SGN C   4      20.264 106.064  81.5720  0.00  0.00     0.000 N
ATOM     66  HD  SGN C   4      20.548 105.770  80.8090  0.00  0.00     0.000 HD
ATOM     66   O  SGN C   4      20.886 107.043  83.7140  0.00  0.00     0.000 OA
ATOM     67   O  SGN C   4      21.515 104.724  83.1970  0.00  0.00     0.000 OA
ATOM     68   S  SGN C   4      21.407 106.204  82.6900  0.00  0.00     0.000 S
ATOM     69   O  SGN C   4      22.620 106.561  82.0470  0.00  0.00     0.000 OA
ENDBRANCH 59 66
BRANCH 62 70
ATOM     70   C  SGN C   4      19.670 102.948  76.9110  0.00  0.00     0.000 C
ATOM     71   S  SGN C   4      21.108 100.969  76.1470  0.00  0.00     0.000 S
ATOM     72   O  SGN C   4      19.918 100.144  76.0880  0.00  0.00     0.000 OA
ATOM     73   O  SGN C   4      21.386 101.664  74.9060  0.00  0.00     0.000 OA
ATOM     74   O  SGN C   4      22.256 100.288  76.7030  0.00  0.00     0.000 OA
ATOM     75   O  SGN C   4      20.773 102.089  77.2210  0.00  0.00     0.000 O
ENDBRANCH 62 70
ENDBRANCH 57 61
ENDBRANCH 41 57
ENDBRANCH 40 44
ENDBRANCH 20 40
ENDBRANCH 19 23
ENDBRANCH 1 19
TORSDOF 14
ENDMDL
MODEL 21
REMARK VINA RESULT:      -0.7     90.842     97.372
ROOT
ATOM      1  C1  IDS C   1      86.003  82.259  25.1320  0.00  0.00     0.000 C
ATOM      2  C2  IDS C   1      85.713  81.925  23.6800  0.00  0.00     0.000 C
ATOM      3  C3  IDS C   1      84.218  81.733  23.4570  0.00  0.00     0.000 C
ATOM      4  C4  IDS C   1      83.421  82.912  24.0130  0.00  0.00     0.000 C
ATOM      5  C5  IDS C   1      83.862  83.221  25.4570  0.00  0.00     0.000 C
ATOM      6  O5  IDS C   1      85.270  83.422  25.5160  0.00  0.00     0.000 O
ATOM      7   O  IDS C   1      83.799  80.512  24.0700  0.00  0.00     0.000 O
ATOM      9  HD  IDS C   1      83.061  80.965  24.0940  0.00  0.00     0.000 HD
ATOM      9   O  IDS C   1      83.653  84.064  23.1870  0.00  0.00     0.000 O
ATOM     11  HD  IDS C   1      82.916  84.517  23.2110  0.00  0.00     0.000 HD
ENDROOT
BRANCH 2 11
ATOM     11   O  IDS C   1      86.160  83.031  22.8030  0.00  0.00     0.000 O
ATOM     12   S  IDS C   1      87.256  82.778  21.6680  0.00  0.00     0.000 S
ATOM     13   O  IDS C   1      86.823  83.673  20.6180  0.00  0.00     0.000 OA
ATOM     14   O  IDS C   1      87.225  81.390  21.2740  0.00  0.00     0.000 OA
ATOM     15   O  IDS C   1      88.504  83.167  22.2760  0.00  0.00     0.000 OA
ENDBRANCH 2 11
BRANCH 5 16
ATOM     16   C  IDS C   1      83.195  84.455  26.0380  0.00  0.00     0.000 C
ATOM     17   O  IDS C   1      83.503  84.816  27.1530  0.00  0.00     0.000 OA
ATOM     18   O  IDS C   1      82.364  85.056  25.4140  0.00  0.00     0.000 OA
ENDBRANCH 5 16
BRANCH 1 19
ATOM     19  O4  SGN C   2      86.041  81.270  26.0300  0.00  0.00     0.000 O
BRANCH 19 23
ATOM     20  C1  SGN C   2      87.784  79.916  29.5730  0.00  0.00     0.000 C
ATOM     21  C2  SGN C   2      86.855  81.131  29.6880  0.00  0.00     0.000 C
ATOM     22  C3  SGN C   2      85.979  81.230  28.4410  0.00  0.00     0.000 C
ATOM     23  C4  SGN C   2      86.861  81.300  27.1990  0.00  0.00     0.000 C
ATOM     24  C5  SGN C   2      87.827  80.113  27.1800  0.00  0.00     0.000 C
ATOM     25  O5  SGN C   2      88.577  80.073  28.4080  0.00  0.00     0.000 O
ATOM     26   O  SGN C   2      85.121  82.361  28.5230  0.00  0.00     0.000 O
ATOM     28  HD  SGN C   2      84.589  83.026  28.6820  0.00  0.00     0.000 HD
BRANCH 21 30
ATOM     28   N  SGN C   2      86.470  80.782  31.0610  0.00  0.00     0.000 N
ATOM     30  HD  SGN C   2      85.669  80.982  31.3220  0.00  0.00     0.000 HD
ATOM     30   S  SGN C   2      86.599  81.841  32.2540  0.00  0.00     0.000 S
ATOM     31   O  SGN C   2      85.889  82.993  31.8120  0.00  0.00     0.000 OA
ATOM     32   O  SGN C   2      86.230  81.203  33.4630  0.00  0.00     0.000 OA
ATOM     33   O  SGN C   2      88.136  82.132  32.3390  0.00  0.00     0.000 OA
ENDBRANCH 21 30
BRANCH 24 34
ATOM     34   C  SGN C   2      88.842  80.175  26.0630  0.00  0.00     0.000 C
ATOM     35   O  SGN C   2      88.408  79.323  24.9880  0.00  0.00     0.000 O
ATOM     36   S  SGN C   2      89.514  78.865  23.9330  0.00  0.00     0.000 S
ATOM     37   O  SGN C   2      90.569  78.277  24.7360  0.00  0.00     0.000 OA
ATOM     38   O  SGN C   2      88.857  77.917  23.0660  0.00  0.00     0.000 OA
ATOM     39   O  SGN C   2      89.895  80.090  23.2730  0.00  0.00     0.000 OA
ENDBRANCH 24 34
BRANCH 20 40
ATOM     40  O4  IDS C   3      87.221  78.710  29.5610  0.00  0.00     0.000 O
BRANCH 40 44
ATOM     41  C1  IDS C   3      85.752  75.519  29.8530  0.00  0.00     0.000 C
ATOM     42  C2  IDS C   3      85.508  76.608  30.8930  0.00  0.00     0.000 C
ATOM     43  C3  IDS C   3      86.835  77.179  31.3870  0.00  0.00     0.000 C
ATOM     44  C4  IDS C   3      87.747  77.562  30.2320  0.00  0.00     0.000 C
ATOM     45  C5  IDS C   3      87.861  76.386  29.2390  0.00  0.00     0.000 C
ATOM     46  O5  IDS C   3      86.556  76.017  28.7870  0.00  0.00     0.000 O
ATOM     47   O  IDS C   3      87.482  76.220  32.2190  0.00  0.00     0.000 O
ATOM     49  HD  IDS C   3      86.875  76.818  32.0670  0.00  0.00     0.000 HD
BRANCH 42 49
ATOM     49   O  IDS C   3      84.710  77.707  30.3020  0.00  0.00     0.000 O
ATOM     50   S  IDS C   3      83.471  78.316  31.1170  0.00  0.00     0.000 S
ATOM     51   O  IDS C   3      84.106  79.058  32.1830  0.00  0.00     0.000 OA
ATOM     52   O  IDS C   3      82.638  77.231  31.6100  0.00  0.00     0.000 OA
ATOM     53   O  IDS C   3      82.761  79.165  30.1840  0.00  0.00     0.000 OA
ENDBRANCH 42 49
BRANCH 45 54
ATOM     54   C  IDS C   3      88.726  76.700  28.0290  0.00  0.00     0.000 C
ATOM     55   O  IDS C   3      89.870  77.041  28.1870  0.00  0.00     0.000 OA
ATOM     56   O  IDS C   3      88.257  76.623  26.9110  0.00  0.00     0.000 OA
ENDBRANCH 45 54
BRANCH 41 57
ATOM     57  O4  SGN C   4      86.093  74.410  30.5200  0.00  0.00     0.000 O
BRANCH 57 61
ATOM     58  C1  SGN C   4      86.543  70.318  29.7560  0.00  0.00     0.000 C
ATOM     59  C2  SGN C   4      87.485  71.270  29.0010  0.00  0.00     0.000 C
ATOM     60  C3  SGN C   4      87.509  72.659  29.6540  0.00  0.00     0.000 C
ATOM     61  C4  SGN C   4      86.090  73.187  29.7770  0.00  0.00     0.000 C
ATOM     62  C5  SGN C   4      85.205  72.179  30.5090  0.00  0.00     0.000 C
ATOM     63  O5  SGN C   4      85.250  70.896  29.8570  0.00  0.00     0.000 O
BRANCH 59 66
ATOM     64   N  SGN C   4      88.747  70.529  28.9110  0.00  0.00     0.000 N
ATOM     66  HD  SGN C   4      88.152  71.158  28.9320  0.00  0.00     0.000 HD
ATOM     66   O  SGN C   4      90.654  69.596  27.7150  0.00  0.00     0.000 OA
ATOM     67   O  SGN C   4      88.411  69.506  26.7100  0.00  0.00     0.000 OA
ATOM     68   S  SGN C   4      89.472  70.358  27.4900  0.00  0.00     0.000 S
ATOM     69   O  SGN C   4      89.573  71.636  26.8830  0.00  0.00     0.000 OA
ENDBRANCH 59 66
BRANCH 62 70
ATOM     70   C  SGN C   4      83.762  72.619  30.5260  0.00  0.00     0.000 C
ATOM     71   S  SGN C   4      81.830  73.397  29.0310  0.00  0.00     0.000 S
ATOM     72   O  SGN C   4      80.940  72.497  29.7380  0.00  0.00     0.000 OA
ATOM     73   O  SGN C   4      81.911  74.713  29.6320  0.00  0.00     0.000 OA
ATOM     74   O  SGN C   4      81.614  73.421  27.6030  0.00  0.00     0.000 OA
ATOM     75   O  SGN C   4      83.271  72.746  29.1870  0.00  0.00     0.000 O
ENDBRANCH 62 70
ENDBRANCH 57 61
ENDBRANCH 41 57
ENDBRANCH 40 44
ENDBRANCH 20 40
ENDBRANCH 19 23
ENDBRANCH 1 19
TORSDOF 14
ENDMDL
MODEL 22
REMARK VINA RESULT:      -0.7     97.261    101.689
ROOT
ATOM      1  C1  IDS C   1      63.778  96.396  64.2500  0.00  0.00     0.000 C
ATOM      2  C2  IDS C   1      62.576  95.760  64.9260  0.00  0.00     0.000 C
ATOM      3  C3  IDS C   1      62.920  94.367  65.4410  0.00  0.00     0.000 C
ATOM      4  C4  IDS C   1      64.191  94.390  66.2890  0.00  0.00     0.000 C
ATOM      5  C5  IDS C   1      65.315  95.140  65.5450  0.00  0.00     0.000 C
ATOM      6  O5  IDS C   1      64.877  96.439  65.1590  0.00  0.00     0.000 O
ATOM      7   O  IDS C   1      63.072  93.475  64.3360  0.00  0.00     0.000 O
ATOM      9  HD  IDS C   1      63.581  93.092  64.9220  0.00  0.00     0.000 HD
ATOM      9   O  IDS C   1      63.913  95.058  67.5290  0.00  0.00     0.000 O
ATOM     11  HD  IDS C   1      64.423  94.675  68.1150  0.00  0.00     0.000 HD
ENDROOT
BRANCH 2 11
ATOM     11   O  IDS C   1      62.151  96.576  66.0850  0.00  0.00     0.000 O
ATOM     12   S  IDS C   1      60.773  97.385  66.0480  0.00  0.00     0.000 S
ATOM     13   O  IDS C   1      60.335  97.307  67.4240  0.00  0.00     0.000 OA
ATOM     14   O  IDS C   1      59.865  96.742  65.1300  0.00  0.00     0.000 OA
ATOM     15   O  IDS C   1      61.146  98.717  65.6390  0.00  0.00     0.000 OA
ENDBRANCH 2 11
BRANCH 5 16
ATOM     16   C  IDS C   1      66.576  95.305  66.3730  0.00  0.00     0.000 C
ATOM     17   O  IDS C   1      67.512  95.914  65.8990  0.00  0.00     0.000 OA
ATOM     18   O  IDS C   1      66.658  94.829  67.4720  0.00  0.00     0.000 OA
ENDBRANCH 5 16
BRANCH 1 19
ATOM     19  O4  SGN C   2      64.074  96.051  62.9930  0.00  0.00     0.000 O
BRANCH 19 23
ATOM     20  C1  SGN C   2      65.719  97.340  59.3800  0.00  0.00     0.000 C
ATOM     21  C2  SGN C   2      66.698  97.126  60.5400  0.00  0.00     0.000 C
ATOM     22  C3  SGN C   2      66.042  96.264  61.6150  0.00  0.00     0.000 C
ATOM     23  C4  SGN C   2      64.745  96.918  62.0770  0.00  0.00     0.000 C
ATOM     24  C5  SGN C   2      63.842  97.189  60.8710  0.00  0.00     0.000 C
ATOM     25  O5  SGN C   2      64.554  97.967  59.8920  0.00  0.00     0.000 O
ATOM     26   O  SGN C   2      66.933  96.067  62.7080  0.00  0.00     0.000 O
ATOM     28  HD  SGN C   2      67.555  95.940  63.2960  0.00  0.00     0.000 HD
BRANCH 21 30
ATOM     28   N  SGN C   2      67.696  97.067  59.4640  0.00  0.00     0.000 N
ATOM     30  HD  SGN C   2      68.204  96.367  59.4190  0.00  0.00     0.000 HD
ATOM     30   S  SGN C   2      69.204  97.546  59.7040  0.00  0.00     0.000 S
ATOM     31   O  SGN C   2      69.652  96.820  60.8440  0.00  0.00     0.000 OA
ATOM     32   O  SGN C   2      69.907  97.446  58.4790  0.00  0.00     0.000 OA
ATOM     33   O  SGN C   2      69.070  99.072  60.0320  0.00  0.00     0.000 OA
ENDBRANCH 21 30
BRANCH 24 34
ATOM     34   C  SGN C   2      62.594  97.970  61.2100  0.00  0.00     0.000 C
ATOM     35   O  SGN C   2      61.486  97.059  61.3130  0.00  0.00     0.000 O
ATOM     36   S  SGN C   2      60.021  97.682  61.1920  0.00  0.00     0.000 S
ATOM     37   O  SGN C   2      60.037  98.424  59.9470  0.00  0.00     0.000 OA
ATOM     38   O  SGN C   2      59.119  96.556  61.1790  0.00  0.00     0.000 OA
ATOM     39   O  SGN C   2      59.898  98.512  62.3660  0.00  0.00     0.000 OA
ENDBRANCH 24 34
BRANCH 20 40
ATOM     40  O4  IDS C   3      65.364  96.273  58.6690  0.00  0.00     0.000 O
BRANCH 40 44
ATOM     41  C1  IDS C   3      64.753  93.492  56.5890  0.00  0.00     0.000 C
ATOM     42  C2  IDS C   3      66.172  93.959  56.9020  0.00  0.00     0.000 C
ATOM     43  C3  IDS C   3      66.318  95.450  56.6090  0.00  0.00     0.000 C
ATOM     44  C4  IDS C   3      65.201  96.261  57.2480  0.00  0.00     0.000 C
ATOM     45  C5  IDS C   3      63.832  95.646  56.8870  0.00  0.00     0.000 C
ATOM     46  O5  IDS C   3      63.800  94.278  57.3000  0.00  0.00     0.000 O
ATOM     47   O  IDS C   3      66.323  95.658  55.1990  0.00  0.00     0.000 O
ATOM     49  HD  IDS C   3      66.695  95.405  55.9390  0.00  0.00     0.000 HD
BRANCH 42 49
ATOM     49   O  IDS C   3      66.482  93.723  58.3310  0.00  0.00     0.000 O
ATOM     50   S  IDS C   3      67.913  93.135  58.7460  0.00  0.00     0.000 S
ATOM     51   O  IDS C   3      68.811  94.244  58.5090  0.00  0.00     0.000 OA
ATOM     52   O  IDS C   3      68.220  91.981  57.9170  0.00  0.00     0.000 OA
ATOM     53   O  IDS C   3      67.808  92.784  60.1470  0.00  0.00     0.000 OA
ENDBRANCH 42 49
BRANCH 45 54
ATOM     54   C  IDS C   3      62.658  96.375  57.5200  0.00  0.00     0.000 C
ATOM     55   O  IDS C   3      61.913  95.781  58.2550  0.00  0.00     0.000 OA
ATOM     56   O  IDS C   3      62.466  97.549  57.2690  0.00  0.00     0.000 OA
ENDBRANCH 45 54
BRANCH 41 57
ATOM     57  O4  SGN C   4      64.675  93.339  55.2620  0.00  0.00     0.000 O
BRANCH 57 61
ATOM     58  C1  SGN C   4      62.019  91.731  52.4530  0.00  0.00     0.000 C
ATOM     59  C2  SGN C   4      61.517  92.933  53.2700  0.00  0.00     0.000 C
ATOM     60  C3  SGN C   4      62.682  93.672  53.9420  0.00  0.00     0.000 C
ATOM     61  C4  SGN C   4      63.504  92.688  54.7580  0.00  0.00     0.000 C
ATOM     62  C5  SGN C   4      63.943  91.509  53.8920  0.00  0.00     0.000 C
ATOM     63  O5  SGN C   4      62.804  90.880  53.2750  0.00  0.00     0.000 O
BRANCH 59 66
ATOM     64   N  SGN C   4      60.676  93.680  52.3290  0.00  0.00     0.000 N
ATOM     66  HD  SGN C   4      61.184  93.458  52.9950  0.00  0.00     0.000 HD
ATOM     66   O  SGN C   4      58.623  94.797  51.6440  0.00  0.00     0.000 OA
ATOM     67   O  SGN C   4      58.512  92.694  52.9130  0.00  0.00     0.000 OA
ATOM     68   S  SGN C   4      59.186  94.100  52.7500  0.00  0.00     0.000 S
ATOM     69   O  SGN C   4      59.242  94.735  54.0180  0.00  0.00     0.000 OA
ENDBRANCH 59 66
BRANCH 62 70
ATOM     70   C  SGN C   4      64.646  90.453  54.7080  0.00  0.00     0.000 C
ATOM     71   S  SGN C   4      64.505  89.099  56.8800  0.00  0.00     0.000 S
ATOM     72   O  SGN C   4      64.847  87.901  56.1390  0.00  0.00     0.000 OA
ATOM     73   O  SGN C   4      65.661  89.812  57.3850  0.00  0.00     0.000 OA
ATOM     74   O  SGN C   4      63.470  88.892  57.8680  0.00  0.00     0.000 OA
ATOM     75   O  SGN C   4      63.823  90.056  55.8110  0.00  0.00     0.000 O
ENDBRANCH 62 70
ENDBRANCH 57 61
ENDBRANCH 41 57
ENDBRANCH 40 44
ENDBRANCH 20 40
ENDBRANCH 19 23
ENDBRANCH 1 19
TORSDOF 14
ENDMDL
MODEL 23
REMARK VINA RESULT:      -0.7     75.067     79.357
ROOT
ATOM      1  C1  IDS C   1      73.061  65.614  35.1580  0.00  0.00     0.000 C
ATOM      2  C2  IDS C   1      72.864  64.142  35.4750  0.00  0.00     0.000 C
ATOM      3  C3  IDS C   1      71.793  63.534  34.5780  0.00  0.00     0.000 C
ATOM      4  C4  IDS C   1      72.067  63.840  33.1060  0.00  0.00     0.000 C
ATOM      5  C5  IDS C   1      72.344  65.345  32.9160  0.00  0.00     0.000 C
ATOM      6  O5  IDS C   1      73.393  65.771  33.7790  0.00  0.00     0.000 O
ATOM      7   O  IDS C   1      70.511  64.034  34.9620  0.00  0.00     0.000 O
ATOM      9  HD  IDS C   1      70.369  63.855  34.1270  0.00  0.00     0.000 HD
ATOM      9   O  IDS C   1      73.213  63.087  32.6790  0.00  0.00     0.000 O
ATOM     11  HD  IDS C   1      73.071  62.907  31.8430  0.00  0.00     0.000 HD
ENDROOT
BRANCH 2 11
ATOM     11   O  IDS C   1      74.122  63.397  35.2420  0.00  0.00     0.000 O
ATOM     12   S  IDS C   1      74.912  62.734  36.4620  0.00  0.00     0.000 S
ATOM     13   O  IDS C   1      75.458  61.538  35.8600  0.00  0.00     0.000 OA
ATOM     14   O  IDS C   1      73.989  62.454  37.5350  0.00  0.00     0.000 OA
ATOM     15   O  IDS C   1      75.916  63.707  36.8160  0.00  0.00     0.000 OA
ENDBRANCH 2 11
BRANCH 5 16
ATOM     16   C  IDS C   1      72.739  65.707  31.4950  0.00  0.00     0.000 C
ATOM     17   O  IDS C   1      73.020  66.859  31.2430  0.00  0.00     0.000 OA
ATOM     18   O  IDS C   1      72.759  64.875  30.6310  0.00  0.00     0.000 OA
ENDBRANCH 5 16
BRANCH 1 19
ATOM     19  O4  SGN C   2      72.199  66.506  35.6560  0.00  0.00     0.000 O
BRANCH 19 23
ATOM     20  C1  SGN C   2      71.739  70.410  37.0610  0.00  0.00     0.000 C
ATOM     21  C2  SGN C   2      71.905  70.243  35.5470  0.00  0.00     0.000 C
ATOM     22  C3  SGN C   2      71.625  68.794  35.1530  0.00  0.00     0.000 C
ATOM     23  C4  SGN C   2      72.546  67.864  35.9350  0.00  0.00     0.000 C
ATOM     24  C5  SGN C   2      72.404  68.132  37.4360  0.00  0.00     0.000 C
ATOM     25  O5  SGN C   2      72.640  69.526  37.7070  0.00  0.00     0.000 O
ATOM     26   O  SGN C   2      71.791  68.618  33.7510  0.00  0.00     0.000 O
ATOM     28  HD  SGN C   2      71.845  68.611  32.8870  0.00  0.00     0.000 HD
BRANCH 21 30
ATOM     28   N  SGN C   2      71.186  71.513  35.3840  0.00  0.00     0.000 N
ATOM     30  HD  SGN C   2      70.591  71.565  34.7560  0.00  0.00     0.000 HD
ATOM     30   S  SGN C   2      71.681  72.619  34.3390  0.00  0.00     0.000 S
ATOM     31   O  SGN C   2      71.785  71.939  33.0930  0.00  0.00     0.000 OA
ATOM     32   O  SGN C   2      70.844  73.755  34.4580  0.00  0.00     0.000 OA
ATOM     33   O  SGN C   2      73.096  73.035  34.8680  0.00  0.00     0.000 OA
ENDBRANCH 21 30
BRANCH 24 34
ATOM     34   C  SGN C   2      73.385  67.360  38.2860  0.00  0.00     0.000 C
ATOM     35   O  SGN C   2      72.700  66.257  38.9050  0.00  0.00     0.000 O
ATOM     36   S  SGN C   2      73.391  65.600  40.1860  0.00  0.00     0.000 S
ATOM     37   O  SGN C   2      73.619  66.710  41.0900  0.00  0.00     0.000 OA
ATOM     38   O  SGN C   2      72.442  64.636  40.6880  0.00  0.00     0.000 OA
ATOM     39   O  SGN C   2      74.600  65.011  39.6660  0.00  0.00     0.000 OA
ENDBRANCH 24 34
BRANCH 20 40
ATOM     40  O4  IDS C   3      70.520  70.239  37.5690  0.00  0.00     0.000 O
BRANCH 40 44
ATOM     41  C1  IDS C   3      67.209  70.188  38.7770  0.00  0.00     0.000 C
ATOM     42  C2  IDS C   3      67.629  71.115  37.6400  0.00  0.00     0.000 C
ATOM     43  C3  IDS C   3      68.859  71.925  38.0430  0.00  0.00     0.000 C
ATOM     44  C4  IDS C   3      69.956  71.038  38.6120  0.00  0.00     0.000 C
ATOM     45  C5  IDS C   3      69.375  70.124  39.7110  0.00  0.00     0.000 C
ATOM     46  O5  IDS C   3      68.297  69.357  39.1730  0.00  0.00     0.000 O
ATOM     47   O  IDS C   3      68.484  72.909  39.0040  0.00  0.00     0.000 O
ATOM     49  HD  IDS C   3      68.515  72.598  38.1970  0.00  0.00     0.000 HD
BRANCH 42 49
ATOM     49   O  IDS C   3      67.958  70.324  36.4320  0.00  0.00     0.000 O
ATOM     50   S  IDS C   3      67.354  70.756  35.0120  0.00  0.00     0.000 S
ATOM     51   O  IDS C   3      68.088  71.959  34.6890  0.00  0.00     0.000 OA
ATOM     52   O  IDS C   3      65.926  70.992  35.1470  0.00  0.00     0.000 OA
ATOM     53   O  IDS C   3      67.641  69.661  34.1090  0.00  0.00     0.000 OA
ENDBRANCH 42 49
BRANCH 45 54
ATOM     54   C  IDS C   3      70.401  69.173  40.3070  0.00  0.00     0.000 C
ATOM     55   O  IDS C   3      71.415  69.613  40.7850  0.00  0.00     0.000 OA
ATOM     56   O  IDS C   3      70.203  67.974  40.2840  0.00  0.00     0.000 OA
ENDBRANCH 45 54
BRANCH 41 57
ATOM     57  O4  SGN C   4      66.545  70.935  39.6670  0.00  0.00     0.000 O
BRANCH 57 61
ATOM     58  C1  SGN C   4      64.325  70.382  43.1730  0.00  0.00     0.000 C
ATOM     59  C2  SGN C   4      65.799  69.946  43.2120  0.00  0.00     0.000 C
ATOM     60  C3  SGN C   4      66.590  70.563  42.0500  0.00  0.00     0.000 C
ATOM     61  C4  SGN C   4      65.899  70.238  40.7370  0.00  0.00     0.000 C
ATOM     62  C5  SGN C   4      64.434  70.670  40.7800  0.00  0.00     0.000 C
ATOM     63  O5  SGN C   4      63.763  70.075  41.9060  0.00  0.00     0.000 O
BRANCH 59 66
ATOM     64   N  SGN C   4      66.230  70.256  44.5790  0.00  0.00     0.000 N
ATOM     66  HD  SGN C   4      66.217  70.087  43.7300  0.00  0.00     0.000 HD
ATOM     66   O  SGN C   4      67.241  69.713  46.7280  0.00  0.00     0.000 OA
ATOM     67   O  SGN C   4      65.803  68.070  45.5990  0.00  0.00     0.000 OA
ATOM     68   S  SGN C   4      66.952  69.128  45.4630  0.00  0.00     0.000 S
ATOM     69   O  SGN C   4      68.007  68.568  44.6980  0.00  0.00     0.000 OA
ENDBRANCH 59 66
BRANCH 62 70
ATOM     70   C  SGN C   4      63.692  70.239  39.5400  0.00  0.00     0.000 C
ATOM     71   S  SGN C   4      63.257  68.240  37.9940  0.00  0.00     0.000 S
ATOM     72   O  SGN C   4      61.843  68.560  38.0030  0.00  0.00     0.000 OA
ATOM     73   O  SGN C   4      63.991  68.911  36.9400  0.00  0.00     0.000 OA
ATOM     74   O  SGN C   4      63.529  66.824  38.0840  0.00  0.00     0.000 OA
ATOM     75   O  SGN C   4      63.811  68.822  39.3640  0.00  0.00     0.000 O
ENDBRANCH 62 70
ENDBRANCH 57 61
ENDBRANCH 41 57
ENDBRANCH 40 44
ENDBRANCH 20 40
ENDBRANCH 19 23
ENDBRANCH 1 19
TORSDOF 14
ENDMDL
MODEL 24
REMARK VINA RESULT:      -0.7     17.053     20.812
ROOT
ATOM      1  C1  IDS C   1      25.487  26.392  39.6690  0.00  0.00     0.000 C
ATOM      2  C2  IDS C   1      24.827  27.758  39.6120  0.00  0.00     0.000 C
ATOM      3  C3  IDS C   1      23.519  27.695  38.8320  0.00  0.00     0.000 C
ATOM      4  C4  IDS C   1      22.621  26.572  39.3510  0.00  0.00     0.000 C
ATOM      5  C5  IDS C   1      23.418  25.256  39.4570  0.00  0.00     0.000 C
ATOM      6  O5  IDS C   1      24.589  25.446  40.2460  0.00  0.00     0.000 O
ATOM      7   O  IDS C   1      23.801  27.508  37.4440  0.00  0.00     0.000 O
ATOM      9  HD  IDS C   1      23.015  27.150  37.4970  0.00  0.00     0.000 HD
ATOM      9   O  IDS C   1      22.124  26.934  40.6490  0.00  0.00     0.000 O
ATOM     11  HD  IDS C   1      21.338  26.575  40.7020  0.00  0.00     0.000 HD
ENDROOT
BRANCH 2 11
ATOM     11   O  IDS C   1      24.512  28.232  40.9790  0.00  0.00     0.000 O
ATOM     12   S  IDS C   1      25.376  29.393  41.6560  0.00  0.00     0.000 S
ATOM     13   O  IDS C   1      24.384  30.093  42.4430  0.00  0.00     0.000 OA
ATOM     14   O  IDS C   1      25.962  30.216  40.6260  0.00  0.00     0.000 OA
ATOM     15   O  IDS C   1      26.355  28.699  42.4540  0.00  0.00     0.000 OA
ENDBRANCH 2 11
BRANCH 5 16
ATOM     16   C  IDS C   1      22.623  24.121  40.0750  0.00  0.00     0.000 C
ATOM     17   O  IDS C   1      23.168  23.051  40.2460  0.00  0.00     0.000 OA
ATOM     18   O  IDS C   1      21.471  24.269  40.3760  0.00  0.00     0.000 OA
ENDBRANCH 5 16
BRANCH 1 19
ATOM     19  O4  SGN C   2      26.188  25.966  38.6150  0.00  0.00     0.000 O
BRANCH 19 23
ATOM     20  C1  SGN C   2      29.349  23.551  37.3500  0.00  0.00     0.000 C
ATOM     21  C2  SGN C   2      28.071  22.829  37.7930  0.00  0.00     0.000 C
ATOM     22  C3  SGN C   2      26.901  23.810  37.8000  0.00  0.00     0.000 C
ATOM     23  C4  SGN C   2      27.230  24.993  38.7040  0.00  0.00     0.000 C
ATOM     24  C5  SGN C   2      28.558  25.622  38.2730  0.00  0.00     0.000 C
ATOM     25  O5  SGN C   2      29.589  24.619  38.2520  0.00  0.00     0.000 O
ATOM     26   O  SGN C   2      25.708  23.160  38.2240  0.00  0.00     0.000 O
ATOM     28  HD  SGN C   2      25.018  22.676  38.4230  0.00  0.00     0.000 HD
BRANCH 21 30
ATOM     28   N  SGN C   2      28.466  21.709  36.9280  0.00  0.00     0.000 N
ATOM     30  HD  SGN C   2      27.851  21.327  36.4520  0.00  0.00     0.000 HD
ATOM     30   S  SGN C   2      28.341  20.194  37.4240  0.00  0.00     0.000 S
ATOM     31   O  SGN C   2      26.989  20.047  37.8480  0.00  0.00     0.000 OA
ATOM     32   O  SGN C   2      28.863  19.346  36.4170  0.00  0.00     0.000 OA
ATOM     33   O  SGN C   2      29.320  20.111  38.6450  0.00  0.00     0.000 OA
ENDBRANCH 21 30
BRANCH 24 34
ATOM     34   C  SGN C   2      29.042  26.712  39.2010  0.00  0.00     0.000 C
ATOM     35   O  SGN C   2      28.857  27.987  38.5610  0.00  0.00     0.000 O
ATOM     36   S  SGN C   2      29.708  29.213  39.1280  0.00  0.00     0.000 S
ATOM     37   O  SGN C   2      31.083  28.754  39.0970  0.00  0.00     0.000 OA
ATOM     38   O  SGN C   2      29.450  30.313  38.2310  0.00  0.00     0.000 OA
ATOM     39   O  SGN C   2      29.188  29.413  40.4590  0.00  0.00     0.000 OA
ENDBRANCH 24 34
BRANCH 20 40
ATOM     40  O4  IDS C   3      29.395  24.012  36.1030  0.00  0.00     0.000 O
BRANCH 40 44
ATOM     41  C1  IDS C   3      29.622  24.881  32.6940  0.00  0.00     0.000 C
ATOM     42  C2  IDS C   3      29.295  23.457  33.1340  0.00  0.00     0.000 C
ATOM     43  C3  IDS C   3      30.330  22.961  34.1410  0.00  0.00     0.000 C
ATOM     44  C4  IDS C   3      30.551  23.965  35.2620  0.00  0.00     0.000 C
ATOM     45  C5  IDS C   3      30.820  25.364  34.6690  0.00  0.00     0.000 C
ATOM     46  O5  IDS C   3      29.732  25.741  33.8240  0.00  0.00     0.000 O
ATOM     47   O  IDS C   3      31.561  22.707  33.4680  0.00  0.00     0.000 O
ATOM     49  HD  IDS C   3      30.744  22.508  33.6750  0.00  0.00     0.000 HD
BRANCH 42 49
ATOM     49   O  IDS C   3      27.958  23.414  33.7710  0.00  0.00     0.000 O
ATOM     50   S  IDS C   3      26.928  22.251  33.3780  0.00  0.00     0.000 S
ATOM     51   O  IDS C   3      27.500  21.077  33.9980  0.00  0.00     0.000 OA
ATOM     52   O  IDS C   3      26.856  22.139  31.9300  0.00  0.00     0.000 OA
ATOM     53   O  IDS C   3      25.658  22.632  33.9570  0.00  0.00     0.000 OA
ENDBRANCH 42 49
BRANCH 45 54
ATOM     54   C  IDS C   3      31.013  26.439  35.7270  0.00  0.00     0.000 C
ATOM     55   O  IDS C   3      30.353  27.444  35.6830  0.00  0.00     0.000 OA
ATOM     56   O  IDS C   3      31.844  26.288  36.6020  0.00  0.00     0.000 OA
ENDBRANCH 45 54
BRANCH 41 57
ATOM     57  O4  SGN C   4      30.604  24.795  31.7880  0.00  0.00     0.000 O
BRANCH 57 61
ATOM     58  C1  SGN C   4      32.548  27.291  29.0470  0.00  0.00     0.000 C
ATOM     59  C2  SGN C   4      32.594  27.717  30.5230  0.00  0.00     0.000 C
ATOM     60  C3  SGN C   4      32.224  26.550  31.4490  0.00  0.00     0.000 C
ATOM     61  C4  SGN C   4      30.882  25.975  31.0280  0.00  0.00     0.000 C
ATOM     62  C5  SGN C   4      30.899  25.602  29.5470  0.00  0.00     0.000 C
ATOM     63  O5  SGN C   4      31.277  26.735  28.7430  0.00  0.00     0.000 O
BRANCH 59 66
ATOM     64   N  SGN C   4      33.919  28.327  30.6790  0.00  0.00     0.000 N
ATOM     66  HD  SGN C   4      33.159  27.939  30.8300  0.00  0.00     0.000 HD
ATOM     66   O  SGN C   4      35.439  30.111  31.3440  0.00  0.00     0.000 OA
ATOM     67   O  SGN C   4      33.293  30.661  30.2780  0.00  0.00     0.000 OA
ATOM     68   S  SGN C   4      34.053  29.786  31.3340  0.00  0.00     0.000 S
ATOM     69   O  SGN C   4      33.326  29.798  32.5520  0.00  0.00     0.000 OA
ENDBRANCH 59 66
BRANCH 62 70
ATOM     70   C  SGN C   4      29.539  25.154  29.0720  0.00  0.00     0.000 C
ATOM     71   S  SGN C   4      27.071  25.838  28.9620  0.00  0.00     0.000 S
ATOM     72   O  SGN C   4      27.031  25.416  27.5760  0.00  0.00     0.000 OA
ATOM     73   O  SGN C   4      26.747  24.778  29.8940  0.00  0.00     0.000 OA
ATOM     74   O  SGN C   4      26.359  27.071  29.2110  0.00  0.00     0.000 OA
ATOM     75   O  SGN C   4      28.590  26.217  29.2260  0.00  0.00     0.000 O
ENDBRANCH 62 70
ENDBRANCH 57 61
ENDBRANCH 41 57
ENDBRANCH 40 44
ENDBRANCH 20 40
ENDBRANCH 19 23
ENDBRANCH 1 19
TORSDOF 14
ENDMDL
MODEL 25
REMARK VINA RESULT:      -0.7    101.413    105.982
ROOT
ATOM      1  C1  IDS C   1      55.780  93.883  76.9750  0.00  0.00     0.000 C
ATOM      2  C2  IDS C   1      55.806  95.321  76.4880  0.00  0.00     0.000 C
ATOM      3  C3  IDS C   1      57.070  95.595  75.6820  0.00  0.00     0.000 C
ATOM      4  C4  IDS C   1      57.267  94.546  74.5880  0.00  0.00     0.000 C
ATOM      5  C5  IDS C   1      57.126  93.128  75.1780  0.00  0.00     0.000 C
ATOM      6  O5  IDS C   1      55.886  92.994  75.8640  0.00  0.00     0.000 O
ATOM      7   O  IDS C   1      58.198  95.620  76.5590  0.00  0.00     0.000 O
ATOM      9  HD  IDS C   1      58.577  95.381  75.8180  0.00  0.00     0.000 HD
ATOM      9   O  IDS C   1      56.271  94.740  73.5720  0.00  0.00     0.000 O
ATOM     11  HD  IDS C   1      56.650  94.500  72.8310  0.00  0.00     0.000 HD
ENDROOT
BRANCH 2 11
ATOM     11   O  IDS C   1      54.646  95.583  75.6070  0.00  0.00     0.000 O
ATOM     12   S  IDS C   1      53.593  96.730  75.9680  0.00  0.00     0.000 S
ATOM     13   O  IDS C   1      53.216  97.222  74.6620  0.00  0.00     0.000 OA
ATOM     14   O  IDS C   1      54.238  97.732  76.7830  0.00  0.00     0.000 OA
ATOM     15   O  IDS C   1      52.527  96.041  76.6520  0.00  0.00     0.000 OA
ENDBRANCH 2 11
BRANCH 5 16
ATOM     16   C  IDS C   1      57.194  92.033  74.1290  0.00  0.00     0.000 C
ATOM     17   O  IDS C   1      57.763  92.261  73.0820  0.00  0.00     0.000 OA
ATOM     18   O  IDS C   1      56.683  90.964  74.3210  0.00  0.00     0.000 OA
ENDBRANCH 5 16
BRANCH 1 19
ATOM     19  O4  SGN C   2      56.489  93.552  78.0580  0.00  0.00     0.000 O
BRANCH 19 23
ATOM     20  C1  SGN C   2      56.543  91.268  81.5520  0.00  0.00     0.000 C
ATOM     21  C2  SGN C   2      56.732  90.508  80.2340  0.00  0.00     0.000 C
ATOM     22  C3  SGN C   2      57.121  91.484  79.1270  0.00  0.00     0.000 C
ATOM     23  C4  SGN C   2      56.063  92.575  79.0100  0.00  0.00     0.000 C
ATOM     24  C5  SGN C   2      55.852  93.242  80.3710  0.00  0.00     0.000 C
ATOM     25  O5  SGN C   2      55.533  92.245  81.3590  0.00  0.00     0.000 O
ATOM     26   O  SGN C   2      57.285  90.796  77.8920  0.00  0.00     0.000 O
ATOM     28  HD  SGN C   2      57.431  90.296  77.2000  0.00  0.00     0.000 HD
BRANCH 21 30
ATOM     28   N  SGN C   2      57.447  89.476  80.9960  0.00  0.00     0.000 N
ATOM     30  HD  SGN C   2      58.168  89.142  80.6510  0.00  0.00     0.000 HD
ATOM     30   S  SGN C   2      57.184  87.919  80.7340  0.00  0.00     0.000 S
ATOM     31   O  SGN C   2      57.379  87.735  79.3360  0.00  0.00     0.000 OA
ATOM     32   O  SGN C   2      57.951  87.172  81.6600  0.00  0.00     0.000 OA
ATOM     33   O  SGN C   2      55.678  87.719  81.1190  0.00  0.00     0.000 OA
ENDBRANCH 21 30
BRANCH 24 34
ATOM     34   C  SGN C   2      54.716  94.238  80.3890  0.00  0.00     0.000 C
ATOM     35   O  SGN C   2      55.261  95.569  80.3840  0.00  0.00     0.000 O
ATOM     36   S  SGN C   2      54.301  96.748  80.8700  0.00  0.00     0.000 S
ATOM     37   O  SGN C   2      53.834  96.329  82.1760  0.00  0.00     0.000 OA
ATOM     38   O  SGN C   2      55.126  97.932  80.9080  0.00  0.00     0.000 OA
ATOM     39   O  SGN C   2      53.267  96.792  79.8650  0.00  0.00     0.000 OA
ENDBRANCH 24 34
BRANCH 20 40
ATOM     40  O4  IDS C   3      57.615  91.846  82.0880  0.00  0.00     0.000 O
BRANCH 40 44
ATOM     41  C1  IDS C   3      60.541  93.033  83.6560  0.00  0.00     0.000 C
ATOM     42  C2  IDS C   3      60.403  91.577  83.2220  0.00  0.00     0.000 C
ATOM     43  C3  IDS C   3      59.110  90.979  83.7730  0.00  0.00     0.000 C
ATOM     44  C4  IDS C   3      57.911  91.870  83.4860  0.00  0.00     0.000 C
ATOM     45  C5  IDS C   3      58.213  93.317  83.9300  0.00  0.00     0.000 C
ATOM     46  O5  IDS C   3      59.392  93.782  83.2680  0.00  0.00     0.000 O
ATOM     47   O  IDS C   3      59.242  90.780  85.1790  0.00  0.00     0.000 O
ATOM     49  HD  IDS C   3      59.406  90.569  84.3550  0.00  0.00     0.000 HD
BRANCH 42 49
ATOM     49   O  IDS C   3      60.375  91.485  81.7440  0.00  0.00     0.000 O
ATOM     50   S  IDS C   3      61.263  90.378  81.0010  0.00  0.00     0.000 S
ATOM     51   O  IDS C   3      60.579  89.141  81.3070  0.00  0.00     0.000 OA
ATOM     52   O  IDS C   3      62.617  90.412  81.5270  0.00  0.00     0.000 OA
ATOM     53   O  IDS C   3      61.218  90.712  79.5930  0.00  0.00     0.000 OA
ENDBRANCH 42 49
BRANCH 45 54
ATOM     54   C  IDS C   3      57.077  94.285  83.6420  0.00  0.00     0.000 C
ATOM     55   O  IDS C   3      57.290  95.281  83.0000  0.00  0.00     0.000 OA
ATOM     56   O  IDS C   3      55.963  94.059  84.0730  0.00  0.00     0.000 OA
ENDBRANCH 45 54
BRANCH 41 57
ATOM     57  O4  SGN C   4      60.970  93.026  84.9230  0.00  0.00     0.000 O
BRANCH 57 61
ATOM     58  C1  SGN C   4      62.467  95.747  87.7310  0.00  0.00     0.000 C
ATOM     59  C2  SGN C   4      61.000  95.927  87.3080  0.00  0.00     0.000 C
ATOM     60  C3  SGN C   4      60.463  94.664  86.6200  0.00  0.00     0.000 C
ATOM     61  C4  SGN C   4      61.380  94.283  85.4700  0.00  0.00     0.000 C
ATOM     62  C5  SGN C   4      62.822  94.150  85.9570  0.00  0.00     0.000 C
ATOM     63  O5  SGN C   4      63.250  95.360  86.6110  0.00  0.00     0.000 O
BRANCH 59 66
ATOM     64   N  SGN C   4      60.340  96.395  88.5310  0.00  0.00     0.000 N
ATOM     66  HD  SGN C   4      60.502  96.044  87.7560  0.00  0.00     0.000 HD
ATOM     66   O  SGN C   4      58.911  97.902  89.8040  0.00  0.00     0.000 OA
ATOM     67   O  SGN C   4      60.431  98.803  88.0940  0.00  0.00     0.000 OA
ATOM     68   S  SGN C   4      59.396  97.691  88.4820  0.00  0.00     0.000 S
ATOM     69   O  SGN C   4      58.471  97.531  87.4190  0.00  0.00     0.000 OA
ENDBRANCH 59 66
BRANCH 62 70
ATOM     70   C  SGN C   4      63.773  93.904  84.8120  0.00  0.00     0.000 C
ATOM     71   S  SGN C   4      64.414  94.704  82.4620  0.00  0.00     0.000 S
ATOM     72   O  SGN C   4      65.812  94.662  82.8450  0.00  0.00     0.000 OA
ATOM     73   O  SGN C   4      63.930  93.452  81.9170  0.00  0.00     0.000 OA
ATOM     74   O  SGN C   4      64.068  95.860  81.6660  0.00  0.00     0.000 OA
ATOM     75   O  SGN C   4      63.629  94.931  83.8230  0.00  0.00     0.000 O
ENDBRANCH 62 70
ENDBRANCH 57 61
ENDBRANCH 41 57
ENDBRANCH 40 44
ENDBRANCH 20 40
ENDBRANCH 19 23
ENDBRANCH 1 19
TORSDOF 14
ENDMDL
MODEL 26
REMARK VINA RESULT:      -0.7     68.559     73.746
ROOT
ATOM      1  C1  IDS C   1      10.242  62.148  75.1110  0.00  0.00     0.000 C
ATOM      2  C2  IDS C   1       8.864  62.576  74.6380  0.00  0.00     0.000 C
ATOM      3  C3  IDS C   1       8.873  62.869  73.1420  0.00  0.00     0.000 C
ATOM      4  C4  IDS C   1       9.488  61.710  72.3560  0.00  0.00     0.000 C
ATOM      5  C5  IDS C   1      10.837  61.299  72.9800  0.00  0.00     0.000 C
ATOM      6  O5  IDS C   1      10.678  61.012  74.3660  0.00  0.00     0.000 O
ATOM      7   O  IDS C   1       9.595  64.077  72.8980  0.00  0.00     0.000 O
ATOM      9  HD  IDS C   1       9.708  63.668  72.1430  0.00  0.00     0.000 HD
ATOM      9   O  IDS C   1       8.587  60.593  72.3900  0.00  0.00     0.000 O
ATOM     11  HD  IDS C   1       8.700  60.184  71.6350  0.00  0.00     0.000 HD
ENDROOT
BRANCH 2 11
ATOM     11   O  IDS C   1       7.883  61.494  74.8780  0.00  0.00     0.000 O
ATOM     12   S  IDS C   1       6.721  61.676  75.9590  0.00  0.00     0.000 S
ATOM     13   O  IDS C   1       5.626  60.947  75.3580  0.00  0.00     0.000 OA
ATOM     14   O  IDS C   1       6.439  63.081  76.1270  0.00  0.00     0.000 OA
ATOM     15   O  IDS C   1       7.236  61.054  77.1540  0.00  0.00     0.000 OA
ENDBRANCH 2 11
BRANCH 5 16
ATOM     16   C  IDS C   1      11.454  60.078  72.3230  0.00  0.00     0.000 C
ATOM     17   O  IDS C   1      12.508  59.655  72.7480  0.00  0.00     0.000 OA
ATOM     18   O  IDS C   1      10.920  59.546  71.3890  0.00  0.00     0.000 OA
ENDBRANCH 5 16
BRANCH 1 19
ATOM     19  O4  SGN C   2      11.168  63.083  75.3440  0.00  0.00     0.000 O
BRANCH 19 23
ATOM     20  C1  SGN C   2      14.490  64.120  77.6490  0.00  0.00     0.000 C
ATOM     21  C2  SGN C   2      14.700  63.022  76.6000  0.00  0.00     0.000 C
ATOM     22  C3  SGN C   2      13.569  63.063  75.5760  0.00  0.00     0.000 C
ATOM     23  C4  SGN C   2      12.228  62.923  76.2880  0.00  0.00     0.000 C
ATOM     24  C5  SGN C   2      12.107  63.988  77.3820  0.00  0.00     0.000 C
ATOM     25  O5  SGN C   2      13.235  63.904  78.2720  0.00  0.00     0.000 O
ATOM     26   O  SGN C   2      13.739  62.038  74.6040  0.00  0.00     0.000 O
ATOM     28  HD  SGN C   2      13.953  61.438  74.0170  0.00  0.00     0.000 HD
BRANCH 21 30
ATOM     28   N  SGN C   2      16.116  63.362  76.7920  0.00  0.00     0.000 N
ATOM     30  HD  SGN C   2      16.573  63.603  76.0970  0.00  0.00     0.000 HD
ATOM     30   S  SGN C   2      17.268  62.274  76.5680  0.00  0.00     0.000 S
ATOM     31   O  SGN C   2      17.050  61.758  75.2590  0.00  0.00     0.000 OA
ATOM     32   O  SGN C   2      18.513  62.864  76.8970  0.00  0.00     0.000 OA
ATOM     33   O  SGN C   2      16.977  61.183  77.6540  0.00  0.00     0.000 OA
ENDBRANCH 21 30
BRANCH 24 34
ATOM     34   C  SGN C   2      10.874  63.838  78.2410  0.00  0.00     0.000 C
ATOM     35   O  SGN C   2       9.915  64.842  77.8640  0.00  0.00     0.000 O
ATOM     36   S  SGN C   2       8.765  65.180  78.9180  0.00  0.00     0.000 S
ATOM     37   O  SGN C   2       9.471  65.497  80.1450  0.00  0.00     0.000 OA
ATOM     38   O  SGN C   2       8.046  66.301  78.3640  0.00  0.00     0.000 OA
ATOM     39   O  SGN C   2       7.988  63.967  78.9870  0.00  0.00     0.000 OA
ENDBRANCH 24 34
BRANCH 20 40
ATOM     40  O4  IDS C   3      14.563  65.384  77.2390  0.00  0.00     0.000 O
BRANCH 40 44
ATOM     41  C1  IDS C   3      15.222  68.673  76.1540  0.00  0.00     0.000 C
ATOM     42  C2  IDS C   3      16.245  67.555  75.9770  0.00  0.00     0.000 C
ATOM     43  C3  IDS C   3      16.486  66.842  77.3050  0.00  0.00     0.000 C
ATOM     44  C4  IDS C   3      15.181  66.442  77.9750  0.00  0.00     0.000 C
ATOM     45  C5  IDS C   3      14.231  67.656  78.0400  0.00  0.00     0.000 C
ATOM     46  O5  IDS C   3      14.017  68.165  76.7210  0.00  0.00     0.000 O
ATOM     47   O  IDS C   3      17.236  67.692  78.1690  0.00  0.00     0.000 O
ATOM     49  HD  IDS C   3      17.164  67.159  77.4900  0.00  0.00     0.000 HD
BRANCH 42 49
ATOM     49   O  IDS C   3      15.753  66.565  74.9910  0.00  0.00     0.000 O
ATOM     50   S  IDS C   3      16.747  66.001  73.8690  0.00  0.00     0.000 S
ATOM     51   O  IDS C   3      17.637  65.139  74.6150  0.00  0.00     0.000 OA
ATOM     52   O  IDS C   3      17.444  67.110  73.2390  0.00  0.00     0.000 OA
ATOM     53   O  IDS C   3      15.918  65.277  72.9290  0.00  0.00     0.000 OA
ENDBRANCH 42 49
BRANCH 45 54
ATOM     54   C  IDS C   3      12.882  67.333  78.6630  0.00  0.00     0.000 C
ATOM     55   O  IDS C   3      12.831  66.902  79.7860  0.00  0.00     0.000 OA
ATOM     56   O  IDS C   3      11.863  67.493  78.0200  0.00  0.00     0.000 OA
ENDBRANCH 45 54
BRANCH 41 57
ATOM     57  O4  SGN C   4      15.865  69.710  76.7040  0.00  0.00     0.000 O
BRANCH 57 61
ATOM     58  C1  SGN C   4      15.166  73.763  77.4840  0.00  0.00     0.000 C
ATOM     59  C2  SGN C   4      14.337  72.751  78.2910  0.00  0.00     0.000 C
ATOM     60  C3  SGN C   4      14.956  71.348  78.2240  0.00  0.00     0.000 C
ATOM     61  C4  SGN C   4      15.151  70.948  76.7710  0.00  0.00     0.000 C
ATOM     62  C5  SGN C   4      15.956  72.010  76.0250  0.00  0.00     0.000 C
ATOM     63  O5  SGN C   4      15.331  73.302  76.1510  0.00  0.00     0.000 O
BRANCH 59 66
ATOM     64   N  SGN C   4      14.188  73.379  79.6080  0.00  0.00     0.000 N
ATOM     66  HD  SGN C   4      14.232  72.805  78.9600  0.00  0.00     0.000 HD
ATOM     66   O  SGN C   4      12.903  74.166  81.5210  0.00  0.00     0.000 OA
ATOM     67   O  SGN C   4      12.030  74.479  79.2440  0.00  0.00     0.000 OA
ATOM     68   S  SGN C   4      12.732  73.518  80.2660  0.00  0.00     0.000 S
ATOM     69   O  SGN C   4      12.096  72.250  80.2170  0.00  0.00     0.000 OA
ENDBRANCH 59 66
BRANCH 62 70
ATOM     70   C  SGN C   4      16.049  71.703  74.5520  0.00  0.00     0.000 C
ATOM     71   S  SGN C   4      14.683  70.947  72.5180  0.00  0.00     0.000 S
ATOM     72   O  SGN C   4      15.309  71.989  71.7280  0.00  0.00     0.000 OA
ATOM     73   O  SGN C   4      15.416  69.698  72.5050  0.00  0.00     0.000 OA
ATOM     74   O  SGN C   4      13.270  70.796  72.2590  0.00  0.00     0.000 OA
ATOM     75   O  SGN C   4      14.740  71.482  74.0120  0.00  0.00     0.000 O
ENDBRANCH 62 70
ENDBRANCH 57 61
ENDBRANCH 41 57
ENDBRANCH 40 44
ENDBRANCH 20 40
ENDBRANCH 19 23
ENDBRANCH 1 19
TORSDOF 14
ENDMDL
MODEL 27
REMARK VINA RESULT:      -0.7    155.108    159.220
ROOT
ATOM      1  C1  IDS C   1     113.131 117.451 108.8880  0.00  0.00     0.000 C
ATOM      2  C2  IDS C   1     112.007 116.835 109.7020  0.00  0.00     0.000 C
ATOM      3  C3  IDS C   1     112.557 115.848 110.7240  0.00  0.00     0.000 C
ATOM      4  C4  IDS C   1     113.675 116.479 111.5540  0.00  0.00     0.000 C
ATOM      5  C5  IDS C   1     114.709 117.155 110.6310  0.00  0.00     0.000 C
ATOM      6  O5  IDS C   1     114.068 118.082 109.7600  0.00  0.00     0.000 O
ATOM      7   O  IDS C   1     113.033 114.681 110.0510  0.00  0.00     0.000 O
ATOM      9  HD  IDS C   1     113.529 114.669 110.7610  0.00  0.00     0.000 HD
ATOM      9   O  IDS C   1     113.106 117.463 112.4320  0.00  0.00     0.000 O
ATOM     11  HD  IDS C   1     113.602 117.451 113.1420  0.00  0.00     0.000 HD
ENDROOT
BRANCH 2 11
ATOM     11   O  IDS C   1     111.275 117.887 110.4420  0.00  0.00     0.000 O
ATOM     12   S  IDS C   1     109.767 118.252 110.0590  0.00  0.00     0.000 S
ATOM     13   O  IDS C   1     109.195 118.582 111.3460  0.00  0.00     0.000 OA
ATOM     14   O  IDS C   1     109.141 117.108 109.4400  0.00  0.00     0.000 OA
ATOM     15   O  IDS C   1     109.881 119.384 109.1740  0.00  0.00     0.000 OA
ENDBRANCH 2 11
BRANCH 5 16
ATOM     16   C  IDS C   1     115.790 117.904 111.3890  0.00  0.00     0.000 C
ATOM     17   O  IDS C   1     116.651 118.482 110.7590  0.00  0.00     0.000 OA
ATOM     18   O  IDS C   1     115.807 117.914 112.5890  0.00  0.00     0.000 OA
ENDBRANCH 5 16
BRANCH 1 19
ATOM     19  O4  SGN C   2     113.653 116.758 107.8730  0.00  0.00     0.000 O
BRANCH 19 23
ATOM     20  C1  SGN C   2     115.452 117.009 104.1140  0.00  0.00     0.000 C
ATOM     21  C2  SGN C   2     116.302 117.451 105.3110  0.00  0.00     0.000 C
ATOM     22  C3  SGN C   2     115.699 116.905 106.6020  0.00  0.00     0.000 C
ATOM     23  C4  SGN C   2     114.252 117.368 106.7280  0.00  0.00     0.000 C
ATOM     24  C5  SGN C   2     113.470 116.978 105.4710  0.00  0.00     0.000 C
ATOM     25  O5  SGN C   2     114.134 117.497 104.3030  0.00  0.00     0.000 O
ATOM     26   O  SGN C   2     116.467 117.319 107.7260  0.00  0.00     0.000 O
ATOM     28  HD  SGN C   2     117.024 117.554 108.3460  0.00  0.00     0.000 HD
BRANCH 21 30
ATOM     28   N  SGN C   2     117.574 117.051 104.6950  0.00  0.00     0.000 N
ATOM     30  HD  SGN C   2     118.224 116.819 105.2190  0.00  0.00     0.000 HD
ATOM     30   S  SGN C   2     118.763 118.102 104.4880  0.00  0.00     0.000 S
ATOM     31   O  SGN C   2     118.986 118.675 105.7730  0.00  0.00     0.000 OA
ATOM     32   O  SGN C   2     119.822 117.454 103.8090  0.00  0.00     0.000 OA
ATOM     33   O  SGN C   2     118.165 119.161 103.5010  0.00  0.00     0.000 OA
ENDBRANCH 21 30
BRANCH 24 34
ATOM     34   C  SGN C   2     112.062 117.525 105.4380  0.00  0.00     0.000 C
ATOM     35   O  SGN C   2     111.143 116.468 105.7690  0.00  0.00     0.000 O
ATOM     36   S  SGN C   2     109.618 116.674 105.3430  0.00  0.00     0.000 S
ATOM     37   O  SGN C   2     109.667 116.964 103.9240  0.00  0.00     0.000 OA
ATOM     38   O  SGN C   2     108.957 115.430 105.6530  0.00  0.00     0.000 OA
ATOM     39   O  SGN C   2     109.178 117.784 106.1530  0.00  0.00     0.000 OA
ENDBRANCH 24 34
BRANCH 20 40
ATOM     40  O4  IDS C   3     115.403 115.708 103.8420  0.00  0.00     0.000 O
BRANCH 40 44
ATOM     41  C1  IDS C   3     115.669 112.312 102.9320  0.00  0.00     0.000 C
ATOM     42  C2  IDS C   3     116.904 113.193 103.0950  0.00  0.00     0.000 C
ATOM     43  C3  IDS C   3     116.757 114.471 102.2720  0.00  0.00     0.000 C
ATOM     44  C4  IDS C   3     115.422 115.153 102.5240  0.00  0.00     0.000 C
ATOM     45  C5  IDS C   3     114.274 114.133 102.3720  0.00  0.00     0.000 C
ATOM     46  O5  IDS C   3     114.488 113.038 103.2650  0.00  0.00     0.000 O
ATOM     47   O  IDS C   3     116.890 114.159 100.8870  0.00  0.00     0.000 O
ATOM     49  HD  IDS C   3     117.215 114.286 101.6800  0.00  0.00     0.000 HD
BRANCH 42 49
ATOM     49   O  IDS C   3     117.080 113.565 104.5190  0.00  0.00     0.000 O
ATOM     50   S  IDS C   3     118.487 113.303 105.2380  0.00  0.00     0.000 S
ATOM     51   O  IDS C   3     119.354 114.298 104.6470  0.00  0.00     0.000 OA
ATOM     52   O  IDS C   3     118.926 111.945 104.9630  0.00  0.00     0.000 OA
ATOM     53   O  IDS C   3     118.258 113.524 106.6510  0.00  0.00     0.000 OA
ENDBRANCH 42 49
BRANCH 45 54
ATOM     54   C  IDS C   3     112.901 114.726 102.6470  0.00  0.00     0.000 C
ATOM     55   O  IDS C   3     112.525 115.679 102.0150  0.00  0.00     0.000 OA
ATOM     56   O  IDS C   3     112.196 114.247 103.5140  0.00  0.00     0.000 OA
ENDBRANCH 45 54
BRANCH 41 57
ATOM     57  O4  SGN C   4     115.789 111.684 101.7560  0.00  0.00     0.000 O
BRANCH 57 61
ATOM     58  C1  SGN C   4     113.867 108.626  99.6370  0.00  0.00     0.000 C
ATOM     59  C2  SGN C   4     113.078 109.931  99.8370  0.00  0.00     0.000 C
ATOM     60  C3  SGN C   4     114.007 111.083 100.2440  0.00  0.00     0.000 C
ATOM     61  C4  SGN C   4     114.816 110.676 101.4640  0.00  0.00     0.000 C
ATOM     62  C5  SGN C   4     115.548 109.360 101.2060  0.00  0.00     0.000 C
ATOM     63  O5  SGN C   4     114.621 108.333 100.8050  0.00  0.00     0.000 O
BRANCH 59 66
ATOM     64   N  SGN C   4     112.304 110.078  98.6000  0.00  0.00     0.000 N
ATOM     66  HD  SGN C   4     112.722 110.233  99.3420  0.00  0.00     0.000 HD
ATOM     66   O  SGN C   4     110.251 110.415  97.3340  0.00  0.00     0.000 OA
ATOM     67   O  SGN C   4     110.240 108.980  99.3300  0.00  0.00     0.000 OA
ATOM     68   S  SGN C   4     110.720 110.321  98.6740  0.00  0.00     0.000 S
ATOM     69   O  SGN C   4     110.473 111.389  99.5750  0.00  0.00     0.000 OA
ENDBRANCH 59 66
BRANCH 62 70
ATOM     70   C  SGN C   4     116.251 108.864 102.4450  0.00  0.00     0.000 C
ATOM     71   S  SGN C   4     115.924 108.378 104.9400  0.00  0.00     0.000 S
ATOM     72   O  SGN C   4     116.616 107.115 104.7700  0.00  0.00     0.000 OA
ATOM     73   O  SGN C   4     116.810 109.479 105.2590  0.00  0.00     0.000 OA
ATOM     74   O  SGN C   4     114.768 108.291 105.8020  0.00  0.00     0.000 OA
ATOM     75   O  SGN C   4     115.310 108.699 103.5110  0.00  0.00     0.000 O
ENDBRANCH 62 70
ENDBRANCH 57 61
ENDBRANCH 41 57
ENDBRANCH 40 44
ENDBRANCH 20 40
ENDBRANCH 19 23
ENDBRANCH 1 19
TORSDOF 14
ENDMDL
MODEL 28
REMARK VINA RESULT:      -0.7     66.847     70.802
ROOT
ATOM      1  C1  IDS C   1      89.968  26.021  41.8170  0.00  0.00     0.000 C
ATOM      2  C2  IDS C   1      90.611  27.284  42.3620  0.00  0.00     0.000 C
ATOM      3  C3  IDS C   1      89.550  28.303  42.7590  0.00  0.00     0.000 C
ATOM      4  C4  IDS C   1      88.497  27.676  43.6730  0.00  0.00     0.000 C
ATOM      5  C5  IDS C   1      87.983  26.354  43.0670  0.00  0.00     0.000 C
ATOM      6  O5  IDS C   1      89.071  25.480  42.7840  0.00  0.00     0.000 O
ATOM      7   O  IDS C   1      88.938  28.836  41.5830  0.00  0.00     0.000 O
ATOM      9  HD  IDS C   1      88.296  28.936  42.1560  0.00  0.00     0.000 HD
ATOM      9   O  IDS C   1      89.089  27.413  44.9550  0.00  0.00     0.000 O
ATOM     11  HD  IDS C   1      88.448  27.513  45.5280  0.00  0.00     0.000 HD
ENDROOT
BRANCH 2 11
ATOM     11   O  IDS C   1      91.408  26.972  43.5690  0.00  0.00     0.000 O
ATOM     12   S  IDS C   1      92.970  27.307  43.6220  0.00  0.00     0.000 S
ATOM     13   O  IDS C   1      93.160  27.662  45.0110  0.00  0.00     0.000 OA
ATOM     14   O  IDS C   1      93.257  28.395  42.7180  0.00  0.00     0.000 OA
ATOM     15   O  IDS C   1      93.618  26.074  43.2510  0.00  0.00     0.000 OA
ENDBRANCH 2 11
BRANCH 5 16
ATOM     16   C  IDS C   1      87.018  25.614  43.9740  0.00  0.00     0.000 C
ATOM     17   O  IDS C   1      86.869  24.420  43.8190  0.00  0.00     0.000 OA
ATOM     18   O  IDS C   1      86.398  26.197  44.8200  0.00  0.00     0.000 OA
ENDBRANCH 5 16
BRANCH 1 19
ATOM     19  O4  SGN C   2      89.542  26.005  40.5500  0.00  0.00     0.000 O
BRANCH 19 23
ATOM     20  C1  SGN C   2      89.238  23.725  37.0670  0.00  0.00     0.000 C
ATOM     21  C2  SGN C   2      88.291  23.353  38.2130  0.00  0.00     0.000 C
ATOM     22  C3  SGN C   2      88.209  24.506  39.2100  0.00  0.00     0.000 C
ATOM     23  C4  SGN C   2      89.606  24.849  39.7130  0.00  0.00     0.000 C
ATOM     24  C5  SGN C   2      90.533  25.127  38.5260  0.00  0.00     0.000 C
ATOM     25  O5  SGN C   2      90.513  24.009  37.6200  0.00  0.00     0.000 O
ATOM     26   O  SGN C   2      87.345  24.171  40.2890  0.00  0.00     0.000 O
ATOM     28  HD  SGN C   2      86.755  23.917  40.8700  0.00  0.00     0.000 HD
BRANCH 21 30
ATOM     28   N  SGN C   2      87.371  22.801  37.2090  0.00  0.00     0.000 N
ATOM     30  HD  SGN C   2      86.524  22.954  37.3070  0.00  0.00     0.000 HD
ATOM     30   S  SGN C   2      86.647  21.392  37.4340  0.00  0.00     0.000 S
ATOM     31   O  SGN C   2      86.003  21.497  38.6990  0.00  0.00     0.000 OA
ATOM     32   O  SGN C   2      85.889  21.087  36.2770  0.00  0.00     0.000 OA
ATOM     33   O  SGN C   2      87.828  20.363  37.4920  0.00  0.00     0.000 OA
ENDBRANCH 21 30
BRANCH 24 34
ATOM     34   C  SGN C   2      91.977  25.332  38.9180  0.00  0.00     0.000 C
ATOM     35   O  SGN C   2      92.288  26.734  38.8400  0.00  0.00     0.000 O
ATOM     36   S  SGN C   2      93.832  27.130  38.7450  0.00  0.00     0.000 S
ATOM     37   O  SGN C   2      94.340  26.370  37.6210  0.00  0.00     0.000 OA
ATOM     38   O  SGN C   2      93.855  28.557  38.5300  0.00  0.00     0.000 OA
ATOM     39   O  SGN C   2      94.374  26.725  40.0190  0.00  0.00     0.000 OA
ENDBRANCH 24 34
BRANCH 20 40
ATOM     40  O4  IDS C   3      88.875  24.726  36.2680  0.00  0.00     0.000 O
BRANCH 40 44
ATOM     41  C1  IDS C   3      87.681  27.111  33.9620  0.00  0.00     0.000 C
ATOM     42  C2  IDS C   3      86.866  25.872  34.3240  0.00  0.00     0.000 C
ATOM     43  C3  IDS C   3      87.712  24.612  34.1560  0.00  0.00     0.000 C
ATOM     44  C4  IDS C   3      89.058  24.741  34.8510  0.00  0.00     0.000 C
ATOM     45  C5  IDS C   3      89.743  26.059  34.4280  0.00  0.00     0.000 C
ATOM     46  O5  IDS C   3      88.883  27.160  34.7280  0.00  0.00     0.000 O
ATOM     47   O  IDS C   3      87.904  24.353  32.7680  0.00  0.00     0.000 O
ATOM     49  HD  IDS C   3      87.422  24.361  33.4880  0.00  0.00     0.000 HD
BRANCH 42 49
ATOM     49   O  IDS C   3      86.412  25.954  35.7320  0.00  0.00     0.000 O
ATOM     50   S  IDS C   3      84.890  25.612  36.0960  0.00  0.00     0.000 S
ATOM     51   O  IDS C   3      84.822  24.177  35.9300  0.00  0.00     0.000 OA
ATOM     52   O  IDS C   3      84.005  26.322  35.1870  0.00  0.00     0.000 OA
ATOM     53   O  IDS C   3      84.706  26.030  37.4700  0.00  0.00     0.000 OA
ENDBRANCH 42 49
BRANCH 45 54
ATOM     54   C  IDS C   3      91.083  26.286  35.1100  0.00  0.00     0.000 C
ATOM     55   O  IDS C   3      91.264  27.290  35.7490  0.00  0.00     0.000 OA
ATOM     56   O  IDS C   3      91.970  25.464  34.9930  0.00  0.00     0.000 OA
ENDBRANCH 45 54
BRANCH 41 57
ATOM     57  O4  SGN C   4      87.705  27.187  32.6260  0.00  0.00     0.000 O
BRANCH 57 61
ATOM     58  C1  SGN C   4      88.919  29.896  29.6740  0.00  0.00     0.000 C
ATOM     59  C2  SGN C   4      90.028  29.269  30.5340  0.00  0.00     0.000 C
ATOM     60  C3  SGN C   4      89.519  28.023  31.2720  0.00  0.00     0.000 C
ATOM     61  C4  SGN C   4      88.269  28.375  32.0610  0.00  0.00     0.000 C
ATOM     62  C5  SGN C   4      87.224  29.019  31.1510  0.00  0.00     0.000 C
ATOM     63  O5  SGN C   4      87.777  30.164  30.4750  0.00  0.00     0.000 O
BRANCH 59 66
ATOM     64   N  SGN C   4      91.154  29.109  29.6090  0.00  0.00     0.000 N
ATOM     66  HD  SGN C   4      90.609  29.027  30.2770  0.00  0.00     0.000 HD
ATOM     66   O  SGN C   4      93.475  29.385  28.9220  0.00  0.00     0.000 OA
ATOM     67   O  SGN C   4      92.310  31.217  30.0750  0.00  0.00     0.000 OA
ATOM     68   S  SGN C   4      92.600  29.678  30.0070  0.00  0.00     0.000 S
ATOM     69   O  SGN C   4      92.923  29.211  31.3070  0.00  0.00     0.000 OA
ENDBRANCH 59 66
BRANCH 62 70
ATOM     70   C  SGN C   4      86.028  29.500  31.9340  0.00  0.00     0.000 C
ATOM     71   S  SGN C   4      85.329  30.761  34.0540  0.00  0.00     0.000 S
ATOM     72   O  SGN C   4      84.365  31.511  33.2730  0.00  0.00     0.000 OA
ATOM     73   O  SGN C   4      84.794  29.528  34.5960  0.00  0.00     0.000 OA
ATOM     74   O  SGN C   4      86.038  31.565  35.0230  0.00  0.00     0.000 OA
ATOM     75   O  SGN C   4      86.453  30.340  33.0150  0.00  0.00     0.000 O
ENDBRANCH 62 70
ENDBRANCH 57 61
ENDBRANCH 41 57
ENDBRANCH 40 44
ENDBRANCH 20 40
ENDBRANCH 19 23
ENDBRANCH 1 19
TORSDOF 14
ENDMDL
MODEL 29
REMARK VINA RESULT:      -0.7    102.214    105.497
ROOT
ATOM      1  C1  IDS C   1     112.172  14.440  89.4940  0.00  0.00     0.000 C
ATOM      2  C2  IDS C   1     113.478  14.568  88.7310  0.00  0.00     0.000 C
ATOM      3  C3  IDS C   1     114.611  14.979  89.6620  0.00  0.00     0.000 C
ATOM      4  C4  IDS C   1     114.675  14.070  90.8900  0.00  0.00     0.000 C
ATOM      5  C5  IDS C   1     113.278  13.939  91.5290  0.00  0.00     0.000 C
ATOM      6  O5  IDS C   1     112.326  13.507  90.5630  0.00  0.00     0.000 O
ATOM      7   O  IDS C   1     114.432  16.341  90.0570  0.00  0.00     0.000 O
ATOM      9  HD  IDS C   1     114.878  16.035  90.7330  0.00  0.00     0.000 HD
ATOM      9   O  IDS C   1     115.137  12.773  90.4860  0.00  0.00     0.000 O
ATOM     11  HD  IDS C   1     115.583  12.467  91.1620  0.00  0.00     0.000 HD
ENDROOT
BRANCH 2 11
ATOM     11   O  IDS C   1     113.844  13.268  88.1240  0.00  0.00     0.000 O
ATOM     12   S  IDS C   1     114.031  13.132  86.5430  0.00  0.00     0.000 S
ATOM     13   O  IDS C   1     115.094  12.156  86.4430  0.00  0.00     0.000 OA
ATOM     14   O  IDS C   1     114.391  14.416  85.9920  0.00  0.00     0.000 OA
ATOM     15   O  IDS C   1     112.759  12.646  86.0680  0.00  0.00     0.000 OA
ENDBRANCH 2 11
BRANCH 5 16
ATOM     16   C  IDS C   1     113.238  12.959  92.6870  0.00  0.00     0.000 C
ATOM     17   O  IDS C   1     112.172  12.479  93.0110  0.00  0.00     0.000 OA
ATOM     18   O  IDS C   1     114.238  12.673  93.2860  0.00  0.00     0.000 OA
ENDBRANCH 5 16
BRANCH 1 19
ATOM     19  O4  SGN C   2     111.477  15.545  89.7800  0.00  0.00     0.000 O
BRANCH 19 23
ATOM     20  C1  SGN C   2     107.661  17.212  90.0790  0.00  0.00     0.000 C
ATOM     21  C2  SGN C   2     108.071  16.236  91.1880  0.00  0.00     0.000 C
ATOM     22  C3  SGN C   2     109.587  16.062  91.1880  0.00  0.00     0.000 C
ATOM     23  C4  SGN C   2     110.049  15.591  89.8140  0.00  0.00     0.000 C
ATOM     24  C5  SGN C   2     109.541  16.552  88.7370  0.00  0.00     0.000 C
ATOM     25  O5  SGN C   2     108.112  16.689  88.8400  0.00  0.00     0.000 O
ATOM     26   O  SGN C   2     109.984  15.146  92.2020  0.00  0.00     0.000 O
ATOM     28  HD  SGN C   2     110.145  14.635  92.8830  0.00  0.00     0.000 HD
BRANCH 21 30
ATOM     28   N  SGN C   2     107.002  16.895  91.9490  0.00  0.00     0.000 N
ATOM     30  HD  SGN C   2     107.198  17.217  92.7290  0.00  0.00     0.000 HD
ATOM     30   S  SGN C   2     106.140  16.094  93.0330  0.00  0.00     0.000 S
ATOM     31   O  SGN C   2     107.093  15.508  93.9140  0.00  0.00     0.000 OA
ATOM     32   O  SGN C   2     105.144  16.961  93.5450  0.00  0.00     0.000 OA
ATOM     33   O  SGN C   2     105.403  14.994  92.1960  0.00  0.00     0.000 OA
ENDBRANCH 21 30
BRANCH 24 34
ATOM     34   C  SGN C   2     109.823  16.089  87.3270  0.00  0.00     0.000 C
ATOM     35   O  SGN C   2     110.931  16.841  86.8010  0.00  0.00     0.000 O
ATOM     36   S  SGN C   2     111.102  16.866  85.2140  0.00  0.00     0.000 S
ATOM     37   O  SGN C   2     109.818  17.315  84.7120  0.00  0.00     0.000 OA
ATOM     38   O  SGN C   2     112.176  17.793  84.9530  0.00  0.00     0.000 OA
ATOM     39   O  SGN C   2     111.417  15.500  84.8750  0.00  0.00     0.000 OA
ENDBRANCH 24 34
BRANCH 20 40
ATOM     40  O4  IDS C   3     108.063  18.476  90.1930  0.00  0.00     0.000 O
BRANCH 40 44
ATOM     41  C1  IDS C   3     108.819  21.876  90.7320  0.00  0.00     0.000 C
ATOM     42  C2  IDS C   3     108.062  21.053  91.7700  0.00  0.00     0.000 C
ATOM     43  C3  IDS C   3     106.867  20.354  91.1250  0.00  0.00     0.000 C
ATOM     44  C4  IDS C   3     107.265  19.614  89.8580  0.00  0.00     0.000 C
ATOM     45  C5  IDS C   3     108.062  20.553  88.9290  0.00  0.00     0.000 C
ATOM     46  O5  IDS C   3     109.201  21.060  89.6280  0.00  0.00     0.000 O
ATOM     47   O  IDS C   3     105.859  21.317  90.8290  0.00  0.00     0.000 O
ATOM     49  HD  IDS C   3     106.306  20.818  91.3780  0.00  0.00     0.000 HD
BRANCH 42 49
ATOM     49   O  IDS C   3     108.954  20.024  92.3540  0.00  0.00     0.000 O
ATOM     50   S  IDS C   3     108.932  19.759  93.9330  0.00  0.00     0.000 S
ATOM     51   O  IDS C   3     107.666  19.091  94.1420  0.00  0.00     0.000 OA
ATOM     52   O  IDS C   3     109.016  21.028  94.6380  0.00  0.00     0.000 OA
ATOM     53   O  IDS C   3     110.070  18.908  94.2100  0.00  0.00     0.000 OA
ENDBRANCH 42 49
BRANCH 45 54
ATOM     54   C  IDS C   3     108.534  19.878  87.6510  0.00  0.00     0.000 C
ATOM     55   O  IDS C   3     107.734  19.347  86.9260  0.00  0.00     0.000 OA
ATOM     56   O  IDS C   3     109.718  19.863  87.3740  0.00  0.00     0.000 OA
ENDBRANCH 45 54
BRANCH 41 57
ATOM     57  O4  SGN C   4     108.129  23.010  90.5520  0.00  0.00     0.000 O
BRANCH 57 61
ATOM     58  C1  SGN C   4     108.624  26.698  88.6330  0.00  0.00     0.000 C
ATOM     59  C2  SGN C   4     108.610  25.449  87.7370  0.00  0.00     0.000 C
ATOM     60  C3  SGN C   4     108.023  24.240  88.4800  0.00  0.00     0.000 C
ATOM     61  C4  SGN C   4     108.769  24.036  89.7870  0.00  0.00     0.000 C
ATOM     62  C5  SGN C   4     108.768  25.323  90.6120  0.00  0.00     0.000 C
ATOM     63  O5  SGN C   4     109.309  26.416  89.8460  0.00  0.00     0.000 O
BRANCH 59 66
ATOM     64   N  SGN C   4     107.944  25.897  86.5100  0.00  0.00     0.000 N
ATOM     66  HD  SGN C   4     108.262  25.413  87.1540  0.00  0.00     0.000 HD
ATOM     66   O  SGN C   4     107.766  26.178  84.0970  0.00  0.00     0.000 OA
ATOM     67   O  SGN C   4     109.934  26.494  85.2130  0.00  0.00     0.000 OA
ATOM     68   S  SGN C   4     108.632  25.630  85.0860  0.00  0.00     0.000 S
ATOM     69   O  SGN C   4     108.993  24.260  85.0130  0.00  0.00     0.000 OA
ENDBRANCH 59 66
BRANCH 62 70
ATOM     70   C  SGN C   4     109.615  25.187  91.8520  0.00  0.00     0.000 C
ATOM     71   S  SGN C   4     111.867  24.324  92.7200  0.00  0.00     0.000 S
ATOM     72   O  SGN C   4     112.035  25.556  93.4670  0.00  0.00     0.000 OA
ATOM     73   O  SGN C   4     111.172  23.293  93.4630  0.00  0.00     0.000 OA
ATOM     74   O  SGN C   4     113.080  23.866  92.0820  0.00  0.00     0.000 OA
ATOM     75   O  SGN C   4     110.922  24.713  91.5050  0.00  0.00     0.000 O
ENDBRANCH 62 70
ENDBRANCH 57 61
ENDBRANCH 41 57
ENDBRANCH 40 44
ENDBRANCH 20 40
ENDBRANCH 19 23
ENDBRANCH 1 19
TORSDOF 14
ENDMDL
MODEL 30
REMARK VINA RESULT:      -0.7     84.128     89.877
ROOT
ATOM      1  C1  IDS C   1      44.012  53.436 100.9470  0.00  0.00     0.000 C
ATOM      2  C2  IDS C   1      44.939  52.249 100.7490  0.00  0.00     0.000 C
ATOM      3  C3  IDS C   1      44.693  51.188 101.8140  0.00  0.00     0.000 C
ATOM      4  C4  IDS C   1      43.209  50.831 101.9060  0.00  0.00     0.000 C
ATOM      5  C5  IDS C   1      42.358  52.112 102.0090  0.00  0.00     0.000 C
ATOM      6  O5  IDS C   1      42.655  52.996 100.9320  0.00  0.00     0.000 O
ATOM      7   O  IDS C   1      45.173  51.657 103.0750  0.00  0.00     0.000 O
ATOM      9  HD  IDS C   1      44.555  51.109 103.3330  0.00  0.00     0.000 HD
ATOM      9   O  IDS C   1      42.831  50.101 100.7280  0.00  0.00     0.000 O
ATOM     11  HD  IDS C   1      42.213  49.553 100.9870  0.00  0.00     0.000 HD
ENDROOT
BRANCH 2 11
ATOM     11   O  IDS C   1      44.697  51.627  99.4280  0.00  0.00     0.000 O
ATOM     12   S  IDS C   1      45.868  51.533  98.3460  0.00  0.00     0.000 S
ATOM     13   O  IDS C   1      45.580  50.276  97.6910  0.00  0.00     0.000 OA
ATOM     14   O  IDS C   1      47.144  51.538  99.0200  0.00  0.00     0.000 OA
ATOM     15   O  IDS C   1      45.670  52.681  97.4970  0.00  0.00     0.000 OA
ENDBRANCH 2 11
BRANCH 5 16
ATOM     16   C  IDS C   1      40.864  51.843 101.9880  0.00  0.00     0.000 C
ATOM     17   O  IDS C   1      40.108  52.763 101.7570  0.00  0.00     0.000 OA
ATOM     18   O  IDS C   1      40.434  50.745 102.2110  0.00  0.00     0.000 OA
ENDBRANCH 5 16
BRANCH 1 19
ATOM     19  O4  SGN C   2      44.319  54.352 101.8690  0.00  0.00     0.000 O
BRANCH 19 23
ATOM     20  C1  SGN C   2      44.366  58.428 102.7670  0.00  0.00     0.000 C
ATOM     21  C2  SGN C   2      42.994  57.745 102.7620  0.00  0.00     0.000 C
ATOM     22  C3  SGN C   2      43.172  56.231 102.8550  0.00  0.00     0.000 C
ATOM     23  C4  SGN C   2      44.055  55.747 101.7110  0.00  0.00     0.000 C
ATOM     24  C5  SGN C   2      45.376  56.523 101.7100  0.00  0.00     0.000 C
ATOM     25  O5  SGN C   2      45.111  57.936 101.6650  0.00  0.00     0.000 O
ATOM     26   O  SGN C   2      41.907  55.579 102.8350  0.00  0.00     0.000 O
ATOM     28  HD  SGN C   2      41.101  55.267 102.8860  0.00  0.00     0.000 HD
BRANCH 21 30
ATOM     28   N  SGN C   2      42.537  58.793 103.6830  0.00  0.00     0.000 N
ATOM     30  HD  SGN C   2      42.044  58.556 104.3550  0.00  0.00     0.000 HD
ATOM     30   S  SGN C   2      41.106  59.488 103.5050  0.00  0.00     0.000 S
ATOM     31   O  SGN C   2      40.170  58.416 103.4600  0.00  0.00     0.000 OA
ATOM     32   O  SGN C   2      40.975  60.502 104.4830  0.00  0.00     0.000 OA
ATOM     33   O  SGN C   2      41.202  60.203 102.1140  0.00  0.00     0.000 OA
ENDBRANCH 21 30
BRANCH 24 34
ATOM     34   C  SGN C   2      46.258  56.216 100.5230  0.00  0.00     0.000 C
ATOM     35   O  SGN C   2      47.336  55.364 100.9500  0.00  0.00     0.000 O
ATOM     36   S  SGN C   2      48.624  55.298 100.0090  0.00  0.00     0.000 S
ATOM     37   O  SGN C   2      49.025  56.681  99.8350  0.00  0.00     0.000 OA
ATOM     38   O  SGN C   2      49.592  54.507 100.7290  0.00  0.00     0.000 OA
ATOM     39   O  SGN C   2      48.143  54.673  98.8020  0.00  0.00     0.000 OA
ENDBRANCH 24 34
BRANCH 20 40
ATOM     40  O4  IDS C   3      45.101  58.326 103.8730  0.00  0.00     0.000 O
BRANCH 40 44
ATOM     41  C1  IDS C   3      46.843  58.347 106.9370  0.00  0.00     0.000 C
ATOM     42  C2  IDS C   3      45.401  58.835 106.8360  0.00  0.00     0.000 C
ATOM     43  C3  IDS C   3      45.267  59.870 105.7210  0.00  0.00     0.000 C
ATOM     44  C4  IDS C   3      45.891  59.382 104.4230  0.00  0.00     0.000 C
ATOM     45  C5  IDS C   3      47.325  58.876 104.6870  0.00  0.00     0.000 C
ATOM     46  O5  IDS C   3      47.292  57.848 105.6800  0.00  0.00     0.000 O
ATOM     47   O  IDS C   3      45.885  61.088 106.1290  0.00  0.00     0.000 O
ATOM     49  HD  IDS C   3      45.242  60.508 106.1520  0.00  0.00     0.000 HD
BRANCH 42 49
ATOM     49   O  IDS C   3      44.498  57.699 106.5390  0.00  0.00     0.000 O
ATOM     50   S  IDS C   3      43.124  57.545 107.3470  0.00  0.00     0.000 S
ATOM     51   O  IDS C   3      42.305  58.615 106.8200  0.00  0.00     0.000 OA
ATOM     52   O  IDS C   3      43.381  57.689 108.7700  0.00  0.00     0.000 OA
ATOM     53   O  IDS C   3      42.613  56.231 107.0170  0.00  0.00     0.000 OA
ENDBRANCH 42 49
BRANCH 45 54
ATOM     54   C  IDS C   3      48.010  58.331 103.4430  0.00  0.00     0.000 C
ATOM     55   O  IDS C   3      48.479  57.223 103.4580  0.00  0.00     0.000 OA
ATOM     56   O  IDS C   3      48.097  59.022 102.4470  0.00  0.00     0.000 OA
ENDBRANCH 45 54
BRANCH 41 57
ATOM     57  O4  SGN C   4      47.530  59.289 107.5960  0.00  0.00     0.000 O
BRANCH 57 61
ATOM     58  C1  SGN C   4      51.293  59.742 109.3740  0.00  0.00     0.000 C
ATOM     59  C2  SGN C   4      51.266  59.580 107.8450  0.00  0.00     0.000 C
ATOM     60  C3  SGN C   4      49.860  59.836 107.2860  0.00  0.00     0.000 C
ATOM     61  C4  SGN C   4      48.858  58.947 108.0040  0.00  0.00     0.000 C
ATOM     62  C5  SGN C   4      48.961  59.138 109.5170  0.00  0.00     0.000 C
ATOM     63  O5  SGN C   4      50.310  58.907 109.9670  0.00  0.00     0.000 O
BRANCH 59 66
ATOM     64   N  SGN C   4      52.348  60.440 107.3560  0.00  0.00     0.000 N
ATOM     66  HD  SGN C   4      51.634  59.954 107.4120  0.00  0.00     0.000 HD
ATOM     66   O  SGN C   4      54.391  60.885 106.1050  0.00  0.00     0.000 OA
ATOM     67   O  SGN C   4      54.158  58.790 107.3700  0.00  0.00     0.000 OA
ATOM     68   S  SGN C   4      53.486  59.828 106.4050  0.00  0.00     0.000 S
ATOM     69   O  SGN C   4      52.855  59.129 105.3440  0.00  0.00     0.000 OA
ENDBRANCH 59 66
BRANCH 62 70
ATOM     70   C  SGN C   4      48.073  58.171 110.2590  0.00  0.00     0.000 C
ATOM     71   S  SGN C   4      47.372  55.709 110.3930  0.00  0.00     0.000 S
ATOM     72   O  SGN C   4      47.502  55.765 111.8360  0.00  0.00     0.000 OA
ATOM     73   O  SGN C   4      46.051  56.072 109.9210  0.00  0.00     0.000 OA
ATOM     74   O  SGN C   4      47.882  54.487 109.8140  0.00  0.00     0.000 OA
ATOM     75   O  SGN C   4      48.361  56.828 109.8530  0.00  0.00     0.000 O
ENDBRANCH 62 70
ENDBRANCH 57 61
ENDBRANCH 41 57
ENDBRANCH 40 44
ENDBRANCH 20 40
ENDBRANCH 19 23
ENDBRANCH 1 19
TORSDOF 14
ENDMDL
MODEL 31
REMARK VINA RESULT:      -0.7     68.394     73.127
ROOT
ATOM      1  C1  IDS C   1      46.792  72.056  28.4860  0.00  0.00     0.000 C
ATOM      2  C2  IDS C   1      48.214  72.586  28.4990  0.00  0.00     0.000 C
ATOM      3  C3  IDS C   1      48.365  73.706  29.5210  0.00  0.00     0.000 C
ATOM      4  C4  IDS C   1      47.829  73.280  30.8880  0.00  0.00     0.000 C
ATOM      5  C5  IDS C   1      46.419  72.672  30.7430  0.00  0.00     0.000 C
ATOM      6  O5  IDS C   1      46.430  71.612  29.7920  0.00  0.00     0.000 O
ATOM      7   O  IDS C   1      47.681  74.871  29.0560  0.00  0.00     0.000 O
ATOM      9  HD  IDS C   1      47.645  74.995  29.9130  0.00  0.00     0.000 HD
ATOM      9   O  IDS C   1      48.714  72.301  31.4530  0.00  0.00     0.000 O
ATOM     11  HD  IDS C   1      48.679  72.426  32.3090  0.00  0.00     0.000 HD
ENDROOT
BRANCH 2 11
ATOM     11   O  IDS C   1      49.158  71.508  28.8700  0.00  0.00     0.000 O
ATOM     12   S  IDS C   1      50.225  70.962  27.8140  0.00  0.00     0.000 S
ATOM     13   O  IDS C   1      51.359  70.651  28.6570  0.00  0.00     0.000 OA
ATOM     14   O  IDS C   1      50.510  71.992  26.8440  0.00  0.00     0.000 OA
ATOM     15   O  IDS C   1      49.602  69.796  27.2380  0.00  0.00     0.000 OA
ENDBRANCH 2 11
BRANCH 5 16
ATOM     16   C  IDS C   1      45.867  72.120  32.0450  0.00  0.00     0.000 C
ATOM     17   O  IDS C   1      44.776  71.592  32.0390  0.00  0.00     0.000 OA
ATOM     18   O  IDS C   1      46.488  72.218  33.0670  0.00  0.00     0.000 OA
ENDBRANCH 5 16
BRANCH 1 19
ATOM     19  O4  SGN C   2      45.853  72.733  27.8180  0.00  0.00     0.000 O
BRANCH 19 23
ATOM     20  C1  SGN C   2      42.291  72.433  25.6620  0.00  0.00     0.000 C
ATOM     21  C2  SGN C   2      42.193  72.224  27.1770  0.00  0.00     0.000 C
ATOM     22  C3  SGN C   2      43.441  72.783  27.8560  0.00  0.00     0.000 C
ATOM     23  C4  SGN C   2      44.684  72.123  27.2690  0.00  0.00     0.000 C
ATOM     24  C5  SGN C   2      44.687  72.285  25.7460  0.00  0.00     0.000 C
ATOM     25  O5  SGN C   2      43.458  71.774  25.1980  0.00  0.00     0.000 O
ATOM     26   O  SGN C   2      43.375  72.583  29.2640  0.00  0.00     0.000 O
ATOM     28  HD  SGN C   2      43.225  72.486  30.1110  0.00  0.00     0.000 HD
BRANCH 21 30
ATOM     28   N  SGN C   2      40.796  72.673  27.1210  0.00  0.00     0.000 N
ATOM     30  HD  SGN C   2      40.506  73.181  27.7600  0.00  0.00     0.000 HD
ATOM     30   S  SGN C   2      39.637  71.877  27.8840  0.00  0.00     0.000 S
ATOM     31   O  SGN C   2      40.077  71.777  29.2350  0.00  0.00     0.000 OA
ATOM     32   O  SGN C   2      38.398  72.493  27.5880  0.00  0.00     0.000 OA
ATOM     33   O  SGN C   2      39.626  70.470  27.1960  0.00  0.00     0.000 OA
ENDBRANCH 21 30
BRANCH 24 34
ATOM     34   C  SGN C   2      45.804  71.536  25.0590  0.00  0.00     0.000 C
ATOM     35   O  SGN C   2      46.829  72.471  24.6790  0.00  0.00     0.000 O
ATOM     36   S  SGN C   2      47.855  72.003  23.5490  0.00  0.00     0.000 S
ATOM     37   O  SGN C   2      47.019  71.592  22.4380  0.00  0.00     0.000 OA
ATOM     38   O  SGN C   2      48.668  73.160  23.2580  0.00  0.00     0.000 OA
ATOM     39   O  SGN C   2      48.583  70.921  24.1650  0.00  0.00     0.000 OA
ENDBRANCH 24 34
BRANCH 20 40
ATOM     40  O4  IDS C   3      42.287  73.685  25.2110  0.00  0.00     0.000 O
BRANCH 40 44
ATOM     41  C1  IDS C   3      41.859  76.992  24.0670  0.00  0.00     0.000 C
ATOM     42  C2  IDS C   3      40.844  76.331  24.9940  0.00  0.00     0.000 C
ATOM     43  C3  IDS C   3      40.407  74.982  24.4280  0.00  0.00     0.000 C
ATOM     44  C4  IDS C   3      41.600  74.123  24.0370  0.00  0.00     0.000 C
ATOM     45  C5  IDS C   3      42.561  74.936  23.1440  0.00  0.00     0.000 C
ATOM     46  O5  IDS C   3      42.963  76.122  23.8320  0.00  0.00     0.000 O
ATOM     47   O  IDS C   3      39.568  75.193  23.2960  0.00  0.00     0.000 O
ATOM     49  HD  IDS C   3      39.719  75.186  24.1480  0.00  0.00     0.000 HD
BRANCH 42 49
ATOM     49   O  IDS C   3      41.442  76.112  26.3320  0.00  0.00     0.000 O
ATOM     50   S  IDS C   3      40.628  76.540  27.6440  0.00  0.00     0.000 S
ATOM     51   O  IDS C   3      39.571  75.556  27.7170  0.00  0.00     0.000 OA
ATOM     52   O  IDS C   3      40.122  77.893  27.4790  0.00  0.00     0.000 OA
ATOM     53   O  IDS C   3      41.566  76.442  28.7430  0.00  0.00     0.000 OA
ENDBRANCH 42 49
BRANCH 45 54
ATOM     54   C  IDS C   3      43.805  74.161  22.7380  0.00  0.00     0.000 C
ATOM     55   O  IDS C   3      43.693  73.081  22.2180  0.00  0.00     0.000 OA
ATOM     56   O  IDS C   3      44.907  74.627  22.9540  0.00  0.00     0.000 OA
ENDBRANCH 45 54
BRANCH 41 57
ATOM     57  O4  SGN C   4      41.171  77.530  23.0530  0.00  0.00     0.000 O
BRANCH 57 61
ATOM     58  C1  SGN C   4      41.860  80.142  19.8540  0.00  0.00     0.000 C
ATOM     59  C2  SGN C   4      42.500  78.747  19.7580  0.00  0.00     0.000 C
ATOM     60  C3  SGN C   4      41.855  77.771  20.7510  0.00  0.00     0.000 C
ATOM     61  C4  SGN C   4      41.905  78.364  22.1500  0.00  0.00     0.000 C
ATOM     62  C5  SGN C   4      41.279  79.758  22.1640  0.00  0.00     0.000 C
ATOM     63  O5  SGN C   4      41.916  80.609  21.1930  0.00  0.00     0.000 O
BRANCH 59 66
ATOM     64   N  SGN C   4      42.429  78.374  18.3420  0.00  0.00     0.000 N
ATOM     66  HD  SGN C   4      42.513  78.354  19.2030  0.00  0.00     0.000 HD
ATOM     66   O  SGN C   4      43.392  77.706  16.2060  0.00  0.00     0.000 OA
ATOM     67   O  SGN C   4      44.528  79.389  17.5920  0.00  0.00     0.000 OA
ATOM     68   S  SGN C   4      43.773  78.015  17.5420  0.00  0.00     0.000 S
ATOM     69   O  SGN C   4      44.501  77.061  18.2970  0.00  0.00     0.000 OA
ENDBRANCH 59 66
BRANCH 62 70
ATOM     70   C  SGN C   4      41.436  80.422  23.5090  0.00  0.00     0.000 C
ATOM     71   S  SGN C   4      43.125  80.921  25.3720  0.00  0.00     0.000 S
ATOM     72   O  SGN C   4      42.642  82.287  25.4240  0.00  0.00     0.000 OA
ATOM     73   O  SGN C   4      42.403  80.023  26.2510  0.00  0.00     0.000 OA
ATOM     74   O  SGN C   4      44.562  80.812  25.4800  0.00  0.00     0.000 OA
ATOM     75   O  SGN C   4      42.817  80.439  23.8910  0.00  0.00     0.000 O
ENDBRANCH 62 70
ENDBRANCH 57 61
ENDBRANCH 41 57
ENDBRANCH 40 44
ENDBRANCH 20 40
ENDBRANCH 19 23
ENDBRANCH 1 19
TORSDOF 14
ENDMDL
MODEL 32
REMARK VINA RESULT:      -0.7    115.700    119.616
ROOT
ATOM      1  C1  IDS C   1      97.869  92.104  65.6540  0.00  0.00     0.000 C
ATOM      2  C2  IDS C   1      96.464  92.619  65.9060  0.00  0.00     0.000 C
ATOM      3  C3  IDS C   1      95.425  91.618  65.4170  0.00  0.00     0.000 C
ATOM      4  C4  IDS C   1      95.702  90.220  65.9690  0.00  0.00     0.000 C
ATOM      5  C5  IDS C   1      97.178  89.839  65.7420  0.00  0.00     0.000 C
ATOM      6  O5  IDS C   1      98.039  90.835  66.2840  0.00  0.00     0.000 O
ATOM      7   O  IDS C   1      95.418  91.599  63.9880  0.00  0.00     0.000 O
ATOM      9  HD  IDS C   1      95.137  90.798  64.1600  0.00  0.00     0.000 HD
ATOM      9   O  IDS C   1      95.419  90.210  67.3770  0.00  0.00     0.000 O
ATOM     11  HD  IDS C   1      95.138  89.409  67.5490  0.00  0.00     0.000 HD
ENDROOT
BRANCH 2 11
ATOM     11   O  IDS C   1      96.246  92.820  67.3560  0.00  0.00     0.000 O
ATOM     12   S  IDS C   1      95.786  94.242  67.9210  0.00  0.00     0.000 S
ATOM     13   O  IDS C   1      94.934  93.871  69.0290  0.00  0.00     0.000 OA
ATOM     14   O  IDS C   1      95.084  94.963  66.8870  0.00  0.00     0.000 OA
ATOM     15   O  IDS C   1      97.011  94.884  68.3290  0.00  0.00     0.000 OA
ENDBRANCH 2 11
BRANCH 5 16
ATOM     16   C  IDS C   1      97.558  88.509  66.3670  0.00  0.00     0.000 C
ATOM     17   O  IDS C   1      98.728  88.282  66.5940  0.00  0.00     0.000 OA
ATOM     18   O  IDS C   1      96.721  87.687  66.6200  0.00  0.00     0.000 OA
ENDBRANCH 5 16
BRANCH 1 19
ATOM     19  O4  SGN C   2      98.394  92.223  64.4310  0.00  0.00     0.000 O
BRANCH 19 23
ATOM     20  C1  SGN C   2     101.834  93.151  62.2560  0.00  0.00     0.000 C
ATOM     21  C2  SGN C   2     101.818  91.791  62.9650  0.00  0.00     0.000 C
ATOM     22  C3  SGN C   2     100.384  91.418  63.3310  0.00  0.00     0.000 C
ATOM     23  C4  SGN C   2      99.772  92.517  64.1910  0.00  0.00     0.000 C
ATOM     24  C5  SGN C   2      99.892  93.865  63.4750  0.00  0.00     0.000 C
ATOM     25  O5  SGN C   2     101.267  94.113  63.1300  0.00  0.00     0.000 O
ATOM     26   O  SGN C   2     100.353  90.164  64.0040  0.00  0.00     0.000 O
ATOM     28  HD  SGN C   2     100.413  89.370  64.3430  0.00  0.00     0.000 HD
BRANCH 21 30
ATOM     28   N  SGN C   2     102.780  91.316  61.9610  0.00  0.00     0.000 N
ATOM     30  HD  SGN C   2     102.666  90.522  61.6340  0.00  0.00     0.000 HD
ATOM     30   S  SGN C   2     104.047  90.434  62.3790  0.00  0.00     0.000 S
ATOM     31   O  SGN C   2     103.517  89.341  63.1220  0.00  0.00     0.000 OA
ATOM     32   O  SGN C   2     104.827  90.191  61.2220  0.00  0.00     0.000 OA
ATOM     33   O  SGN C   2     104.883  91.384  63.3030  0.00  0.00     0.000 OA
ENDBRANCH 21 30
BRANCH 24 34
ATOM     34   C  SGN C   2      99.445  95.039  64.3140  0.00  0.00     0.000 C
ATOM     35   O  SGN C   2      98.165  95.492  63.8390  0.00  0.00     0.000 O
ATOM     36   S  SGN C   2      97.724  96.972  64.2420  0.00  0.00     0.000 S
ATOM     37   O  SGN C   2      98.822  97.815  63.8100  0.00  0.00     0.000 OA
ATOM     38   O  SGN C   2      96.495  97.221  63.5270  0.00  0.00     0.000 OA
ATOM     39   O  SGN C   2      97.562  96.910  65.6740  0.00  0.00     0.000 OA
ENDBRANCH 24 34
BRANCH 20 40
ATOM     40  O4  IDS C   3     101.239  93.233  61.0680  0.00  0.00     0.000 O
BRANCH 40 44
ATOM     41  C1  IDS C   3      99.987  93.306  57.7740  0.00  0.00     0.000 C
ATOM     42  C2  IDS C   3     101.053  92.301  58.2000  0.00  0.00     0.000 C
ATOM     43  C3  IDS C   3     102.220  93.018  58.8740  0.00  0.00     0.000 C
ATOM     44  C4  IDS C   3     101.744  93.974  59.9560  0.00  0.00     0.000 C
ATOM     45  C5  IDS C   3     100.638  94.893  59.3960  0.00  0.00     0.000 C
ATOM     46  O5  IDS C   3      99.569  94.093  58.8850  0.00  0.00     0.000 O
ATOM     47   O  IDS C   3     102.968  93.730  57.8910  0.00  0.00     0.000 O
ATOM     49  HD  IDS C   3     102.724  93.001  58.2900  0.00  0.00     0.000 HD
BRANCH 42 49
ATOM     49   O  IDS C   3     100.480  91.326  59.1570  0.00  0.00     0.000 O
ATOM     50   S  IDS C   3     100.787  89.764  58.9780  0.00  0.00     0.000 S
ATOM     51   O  IDS C   3     102.177  89.650  59.3600  0.00  0.00     0.000 OA
ATOM     52   O  IDS C   3     100.555  89.382  57.5950  0.00  0.00     0.000 OA
ATOM     53   O  IDS C   3      99.895  89.076  59.8880  0.00  0.00     0.000 OA
ENDBRANCH 42 49
BRANCH 45 54
ATOM     54   C  IDS C   3     100.076  95.857  60.4290  0.00  0.00     0.000 C
ATOM     55   O  IDS C   3      98.894  95.864  60.6580  0.00  0.00     0.000 OA
ATOM     56   O  IDS C   3     100.818  96.628  61.0050  0.00  0.00     0.000 OA
ENDBRANCH 45 54
BRANCH 41 57
ATOM     57  O4  SGN C   4     100.417  93.875  56.6410  0.00  0.00     0.000 O
BRANCH 57 61
ATOM     58  C1  SGN C   4      98.917  96.379  53.6390  0.00  0.00     0.000 C
ATOM     59  C2  SGN C   4      99.070  96.994  55.0400  0.00  0.00     0.000 C
ATOM     60  C3  SGN C   4      99.988  96.139  55.9240  0.00  0.00     0.000 C
ATOM     61  C4  SGN C   4      99.482  94.707  55.9460  0.00  0.00     0.000 C
ATOM     62  C5  SGN C   4      99.327  94.171  54.5230  0.00  0.00     0.000 C
ATOM     63  O5  SGN C   4      98.474  95.034  53.7460  0.00  0.00     0.000 O
BRANCH 59 66
ATOM     64   N  SGN C   4      99.428  98.385  54.7450  0.00  0.00     0.000 N
ATOM     66  HD  SGN C   4      99.347  97.610  55.1220  0.00  0.00     0.000 HD
ATOM     66   O  SGN C   4      99.250 100.797  55.0390  0.00  0.00     0.000 OA
ATOM     67   O  SGN C   4      97.224  99.405  55.0720  0.00  0.00     0.000 OA
ATOM     68   S  SGN C   4      98.710  99.580  55.5410  0.00  0.00     0.000 S
ATOM     69   O  SGN C   4      98.791  99.303  56.9300  0.00  0.00     0.000 OA
ENDBRANCH 59 66
BRANCH 62 70
ATOM     70   C  SGN C   4      98.700  92.800  54.5120  0.00  0.00     0.000 C
ATOM     71   S  SGN C   4      96.784  91.406  55.4910  0.00  0.00     0.000 S
ATOM     72   O  SGN C   4      96.503  90.888  54.1660  0.00  0.00     0.000 OA
ATOM     73   O  SGN C   4      97.750  90.614  56.2240  0.00  0.00     0.000 OA
ATOM     74   O  SGN C   4      95.596  91.726  56.2490  0.00  0.00     0.000 OA
ATOM     75   O  SGN C   4      97.464  92.818  55.2370  0.00  0.00     0.000 O
ENDBRANCH 62 70
ENDBRANCH 57 61
ENDBRANCH 41 57
ENDBRANCH 40 44
ENDBRANCH 20 40
ENDBRANCH 19 23
ENDBRANCH 1 19
TORSDOF 14
ENDMDL
MODEL 33
REMARK VINA RESULT:      -0.7     74.000     79.176
ROOT
ATOM      1  C1  IDS C   1       9.466  70.644  69.0730  0.00  0.00     0.000 C
ATOM      2  C2  IDS C   1       9.156  69.770  70.2750  0.00  0.00     0.000 C
ATOM      3  C3  IDS C   1       7.686  69.884  70.6610  0.00  0.00     0.000 C
ATOM      4  C4  IDS C   1       6.778  69.655  69.4520  0.00  0.00     0.000 C
ATOM      5  C5  IDS C   1       7.242  70.522  68.2650  0.00  0.00     0.000 C
ATOM      6  O5  IDS C   1       8.618  70.286  67.9830  0.00  0.00     0.000 O
ATOM      7   O  IDS C   1       7.442  71.170  71.2330  0.00  0.00     0.000 O
ATOM      9  HD  IDS C   1       6.658  70.984  70.9170  0.00  0.00     0.000 HD
ATOM      9   O  IDS C   1       6.836  68.269  69.0810  0.00  0.00     0.000 O
ATOM     11  HD  IDS C   1       6.051  68.083  68.7660  0.00  0.00     0.000 HD
ENDROOT
BRANCH 2 11
ATOM     11   O  IDS C   1       9.428  68.350  69.9580  0.00  0.00     0.000 O
ATOM     12   S  IDS C   1      10.635  67.576  70.6640  0.00  0.00     0.000 S
ATOM     13   O  IDS C   1      10.106  66.236  70.7920  0.00  0.00     0.000 OA
ATOM     14   O  IDS C   1      10.920  68.193  71.9370  0.00  0.00     0.000 OA
ATOM     15   O  IDS C   1      11.727  67.675  69.7280  0.00  0.00     0.000 OA
ENDBRANCH 2 11
BRANCH 5 16
ATOM     16   C  IDS C   1       6.458  70.263  66.9910  0.00  0.00     0.000 C
ATOM     17   O  IDS C   1       5.529  69.484  67.0240  0.00  0.00     0.000 OA
ATOM     18   O  IDS C   1       6.759  70.805  65.9630  0.00  0.00     0.000 OA
ENDBRANCH 5 16
BRANCH 1 19
ATOM     19  O4  SGN C   2       9.661  71.953  69.2560  0.00  0.00     0.000 O
BRANCH 19 23
ATOM     20  C1  SGN C   2      11.660  75.349  67.8780  0.00  0.00     0.000 C
ATOM     21  C2  SGN C   2      10.540  74.804  66.9840  0.00  0.00     0.000 C
ATOM     22  C3  SGN C   2       9.642  73.871  67.7930  0.00  0.00     0.000 C
ATOM     23  C4  SGN C   2      10.481  72.754  68.4020  0.00  0.00     0.000 C
ATOM     24  C5  SGN C   2      11.635  73.352  69.2120  0.00  0.00     0.000 C
ATOM     25  O5  SGN C   2      12.398  74.249  68.3850  0.00  0.00     0.000 O
ATOM     26   O  SGN C   2       8.606  73.343  66.9730  0.00  0.00     0.000 O
ATOM     28  HD  SGN C   2       7.971  73.123  66.4270  0.00  0.00     0.000 HD
BRANCH 21 30
ATOM     28   N  SGN C   2      10.384  76.159  66.4390  0.00  0.00     0.000 N
ATOM     30  HD  SGN C   2       9.581  76.455  66.3110  0.00  0.00     0.000 HD
ATOM     30   S  SGN C   2      10.205  76.406  64.8690  0.00  0.00     0.000 S
ATOM     31   O  SGN C   2       9.110  75.582  64.4810  0.00  0.00     0.000 OA
ATOM     32   O  SGN C   2      10.156  77.802  64.6360  0.00  0.00     0.000 OA
ATOM     33   O  SGN C   2      11.544  75.885  64.2460  0.00  0.00     0.000 OA
ENDBRANCH 21 30
BRANCH 24 34
ATOM     34   C  SGN C   2      12.608  72.321  69.7340  0.00  0.00     0.000 C
ATOM     35   O  SGN C   2      12.362  72.114  71.1360  0.00  0.00     0.000 O
ATOM     36   S  SGN C   2      13.538  71.450  71.9880  0.00  0.00     0.000 S
ATOM     37   O  SGN C   2      14.697  72.281  71.7290  0.00  0.00     0.000 OA
ATOM     38   O  SGN C   2      13.096  71.493  73.3610  0.00  0.00     0.000 OA
ATOM     39   O  SGN C   2      13.644  70.114  71.4530  0.00  0.00     0.000 OA
ENDBRANCH 24 34
BRANCH 20 40
ATOM     40  O4  IDS C   3      11.310  76.144  68.8870  0.00  0.00     0.000 O
BRANCH 40 44
ATOM     41  C1  IDS C   3      10.369  78.542  71.2940  0.00  0.00     0.000 C
ATOM     42  C2  IDS C   3       9.995  78.698  69.8230  0.00  0.00     0.000 C
ATOM     43  C3  IDS C   3      11.233  78.556  68.9410  0.00  0.00     0.000 C
ATOM     44  C4  IDS C   3      12.032  77.310  69.2900  0.00  0.00     0.000 C
ATOM     45  C5  IDS C   3      12.293  77.261  70.8100  0.00  0.00     0.000 C
ATOM     46  O5  IDS C   3      11.047  77.307  71.5090  0.00  0.00     0.000 O
ATOM     47   O  IDS C   3      12.052  79.714  69.0850  0.00  0.00     0.000 O
ATOM     49  HD  IDS C   3      11.354  79.300  68.7820  0.00  0.00     0.000 HD
BRANCH 42 49
ATOM     49   O  IDS C   3       9.014  77.658  69.4330  0.00  0.00     0.000 O
ATOM     50   S  IDS C   3       7.722  78.066  68.5780  0.00  0.00     0.000 S
ATOM     51   O  IDS C   3       8.265  78.352  67.2690  0.00  0.00     0.000 OA
ATOM     52   O  IDS C   3       7.088  79.225  69.1850  0.00  0.00     0.000 OA
ATOM     53   O  IDS C   3       6.856  76.906  68.5870  0.00  0.00     0.000 OA
ENDBRANCH 42 49
BRANCH 45 54
ATOM     54   C  IDS C   3      13.055  76.022  71.2510  0.00  0.00     0.000 C
ATOM     55   O  IDS C   3      12.582  75.296  72.0870  0.00  0.00     0.000 OA
ATOM     56   O  IDS C   3      14.146  75.778  70.7730  0.00  0.00     0.000 OA
ENDBRANCH 45 54
BRANCH 41 57
ATOM     57  O4  SGN C   4      10.902  79.704  71.6880  0.00  0.00     0.000 O
BRANCH 57 61
ATOM     58  C1  SGN C   4      12.102  81.543  75.2530  0.00  0.00     0.000 C
ATOM     59  C2  SGN C   4      12.904  80.309  74.8070  0.00  0.00     0.000 C
ATOM     60  C3  SGN C   4      12.649  79.986  73.3280  0.00  0.00     0.000 C
ATOM     61  C4  SGN C   4      11.154  79.854  73.0880  0.00  0.00     0.000 C
ATOM     62  C5  SGN C   4      10.420  81.100  73.5800  0.00  0.00     0.000 C
ATOM     63  O5  SGN C   4      10.724  81.355  74.9650  0.00  0.00     0.000 O
BRANCH 59 66
ATOM     64   N  SGN C   4      14.281  80.603  75.2150  0.00  0.00     0.000 N
ATOM     66  HD  SGN C   4      13.583  80.276  74.8210  0.00  0.00     0.000 HD
ATOM     66   O  SGN C   4      16.382  80.100  76.3410  0.00  0.00     0.000 OA
ATOM     67   O  SGN C   4      14.247  79.526  77.4150  0.00  0.00     0.000 OA
ATOM     68   S  SGN C   4      15.097  79.539  76.0970  0.00  0.00     0.000 S
ATOM     69   O  SGN C   4      14.998  78.270  75.4720  0.00  0.00     0.000 OA
ENDBRANCH 59 66
BRANCH 62 70
ATOM     70   C  SGN C   4       8.924  80.939  73.4770  0.00  0.00     0.000 C
ATOM     71   S  SGN C   4       6.993  79.316  73.9350  0.00  0.00     0.000 S
ATOM     72   O  SGN C   4       6.233  80.406  74.5140  0.00  0.00     0.000 OA
ATOM     73   O  SGN C   4       6.792  79.171  72.5070  0.00  0.00     0.000 OA
ATOM     74   O  SGN C   4       6.876  78.076  74.6680  0.00  0.00     0.000 OA
ATOM     75   O  SGN C   4       8.513  79.732  74.1310  0.00  0.00     0.000 O
ENDBRANCH 62 70
ENDBRANCH 57 61
ENDBRANCH 41 57
ENDBRANCH 40 44
ENDBRANCH 20 40
ENDBRANCH 19 23
ENDBRANCH 1 19
TORSDOF 14
ENDMDL
MODEL 34
REMARK VINA RESULT:      -0.7     88.452     92.322
ROOT
ATOM      1  C1  IDS C   1      82.308  67.637  68.9430  0.00  0.00     0.000 C
ATOM      2  C2  IDS C   1      81.676  68.454  70.0550  0.00  0.00     0.000 C
ATOM      3  C3  IDS C   1      82.740  69.213  70.8390  0.00  0.00     0.000 C
ATOM      4  C4  IDS C   1      83.655  70.004  69.9050  0.00  0.00     0.000 C
ATOM      5  C5  IDS C   1      84.163  69.100  68.7640  0.00  0.00     0.000 C
ATOM      6  O5  IDS C   1      83.069  68.489  68.0880  0.00  0.00     0.000 O
ATOM      7   O  IDS C   1      83.501  68.293  71.6240  0.00  0.00     0.000 O
ATOM      9  HD  IDS C   1      84.081  68.926  71.5120  0.00  0.00     0.000 HD
ATOM      9   O  IDS C   1      82.917  71.104  69.3490  0.00  0.00     0.000 O
ATOM     11  HD  IDS C   1      83.498  71.737  69.2380  0.00  0.00     0.000 HD
ENDROOT
BRANCH 2 11
ATOM     11   O  IDS C   1      80.740  69.450  69.4880  0.00  0.00     0.000 O
ATOM     12   S  IDS C   1      79.190  69.422  69.8750  0.00  0.00     0.000 S
ATOM     13   O  IDS C   1      78.849  70.828  69.8770  0.00  0.00     0.000 OA
ATOM     14   O  IDS C   1      79.030  68.802  71.1680  0.00  0.00     0.000 OA
ATOM     15   O  IDS C   1      78.563  68.681  68.8080  0.00  0.00     0.000 OA
ENDBRANCH 2 11
BRANCH 5 16
ATOM     16   C  IDS C   1      84.987  69.845  67.7290  0.00  0.00     0.000 C
ATOM     17   O  IDS C   1      85.094  69.374  66.6170  0.00  0.00     0.000 OA
ATOM     18   O  IDS C   1      85.537  70.875  68.0070  0.00  0.00     0.000 OA
ENDBRANCH 5 16
BRANCH 1 19
ATOM     19  O4  SGN C   2      82.867  66.459  69.2400  0.00  0.00     0.000 O
BRANCH 19 23
ATOM     20  C1  SGN C   2      83.503  62.543  67.9420  0.00  0.00     0.000 C
ATOM     21  C2  SGN C   2      84.307  63.639  67.2330  0.00  0.00     0.000 C
ATOM     22  C3  SGN C   2      84.305  64.910  68.0780  0.00  0.00     0.000 C
ATOM     23  C4  SGN C   2      82.868  65.342  68.3500  0.00  0.00     0.000 C
ATOM     24  C5  SGN C   2      82.087  64.184  68.9780  0.00  0.00     0.000 C
ATOM     25  O5  SGN C   2      82.181  63.020  68.1370  0.00  0.00     0.000 O
ATOM     26   O  SGN C   2      85.034  65.943  67.4260  0.00  0.00     0.000 O
ATOM     28  HD  SGN C   2      85.549  66.492  66.9980  0.00  0.00     0.000 HD
BRANCH 21 30
ATOM     28   N  SGN C   2      85.323  62.626  66.9170  0.00  0.00     0.000 N
ATOM     30  HD  SGN C   2      86.156  62.849  66.9910  0.00  0.00     0.000 HD
ATOM     30   S  SGN C   2      85.980  62.536  65.4610  0.00  0.00     0.000 S
ATOM     31   O  SGN C   2      86.476  63.843  65.1910  0.00  0.00     0.000 OA
ATOM     32   O  SGN C   2      86.859  61.426  65.4330  0.00  0.00     0.000 OA
ATOM     33   O  SGN C   2      84.776  62.191  64.5200  0.00  0.00     0.000 OA
ENDBRANCH 21 30
BRANCH 24 34
ATOM     34   C  SGN C   2      80.613  64.468  69.1490  0.00  0.00     0.000 C
ATOM     35   O  SGN C   2      80.361  64.819  70.5210  0.00  0.00     0.000 O
ATOM     36   S  SGN C   2      78.854  64.697  71.0350  0.00  0.00     0.000 S
ATOM     37   O  SGN C   2      78.463  63.339  70.7110  0.00  0.00     0.000 OA
ATOM     38   O  SGN C   2      78.905  64.957  72.4530  0.00  0.00     0.000 OA
ATOM     39   O  SGN C   2      78.148  65.705  70.2830  0.00  0.00     0.000 OA
ENDBRANCH 24 34
BRANCH 20 40
ATOM     40  O4  IDS C   3      83.977  62.082  69.0970  0.00  0.00     0.000 O
BRANCH 40 44
ATOM     41  C1  IDS C   3      85.477  60.629  71.9370  0.00  0.00     0.000 C
ATOM     42  C2  IDS C   3      86.217  60.728  70.6070  0.00  0.00     0.000 C
ATOM     43  C3  IDS C   3      85.366  60.146  69.4810  0.00  0.00     0.000 C
ATOM     44  C4  IDS C   3      83.954  60.709  69.4940  0.00  0.00     0.000 C
ATOM     45  C5  IDS C   3      83.352  60.586  70.9090  0.00  0.00     0.000 C
ATOM     46  O5  IDS C   3      84.199  61.254  71.8470  0.00  0.00     0.000 O
ATOM     47   O  IDS C   3      85.325  58.726  69.6050  0.00  0.00     0.000 O
ATOM     49  HD  IDS C   3      85.723  59.467  69.4000  0.00  0.00     0.000 HD
BRANCH 42 49
ATOM     49   O  IDS C   3      86.513  62.146  70.2930  0.00  0.00     0.000 O
ATOM     50   S  IDS C   3      87.973  62.556  69.7770  0.00  0.00     0.000 S
ATOM     51   O  IDS C   3      88.014  62.023  68.4330  0.00  0.00     0.000 OA
ATOM     52   O  IDS C   3      88.976  61.961  70.6440  0.00  0.00     0.000 OA
ATOM     53   O  IDS C   3      88.014  64.003  69.8110  0.00  0.00     0.000 OA
ENDBRANCH 42 49
BRANCH 45 54
ATOM     54   C  IDS C   3      81.950  61.164  71.0200  0.00  0.00     0.000 C
ATOM     55   O  IDS C   3      81.727  62.041  71.8130  0.00  0.00     0.000 OA
ATOM     56   O  IDS C   3      81.057  60.727  70.3200  0.00  0.00     0.000 OA
ENDBRANCH 45 54
BRANCH 41 57
ATOM     57  O4  SGN C   4      85.604  59.367  72.3630  0.00  0.00     0.000 O
BRANCH 57 61
ATOM     58  C1  SGN C   4      84.793  57.135  75.8120  0.00  0.00     0.000 C
ATOM     59  C2  SGN C   4      83.582  57.714  75.0630  0.00  0.00     0.000 C
ATOM     60  C3  SGN C   4      83.963  58.139  73.6380  0.00  0.00     0.000 C
ATOM     61  C4  SGN C   4      85.149  59.088  73.6910  0.00  0.00     0.000 C
ATOM     62  C5  SGN C   4      86.302  58.461  74.4740  0.00  0.00     0.000 C
ATOM     63  O5  SGN C   4      85.867  58.065  75.7880  0.00  0.00     0.000 O
BRANCH 59 66
ATOM     64   N  SGN C   4      82.527  56.703  75.1850  0.00  0.00     0.000 N
ATOM     66  HD  SGN C   4      83.004  57.380  74.9320  0.00  0.00     0.000 HD
ATOM     66   O  SGN C   4      80.308  55.927  75.8210  0.00  0.00     0.000 OA
ATOM     67   O  SGN C   4      81.538  57.464  77.2930  0.00  0.00     0.000 OA
ATOM     68   S  SGN C   4      81.112  57.101  75.8280  0.00  0.00     0.000 S
ATOM     69   O  SGN C   4      80.640  58.272  75.1810  0.00  0.00     0.000 OA
ENDBRANCH 59 66
BRANCH 62 70
ATOM     70   C  SGN C   4      87.441  59.432  74.6560  0.00  0.00     0.000 C
ATOM     71   S  SGN C   4      87.999  61.852  75.2920  0.00  0.00     0.000 S
ATOM     72   O  SGN C   4      89.068  61.367  76.1440  0.00  0.00     0.000 OA
ATOM     73   O  SGN C   4      88.420  62.101  73.9280  0.00  0.00     0.000 OA
ATOM     74   O  SGN C   4      87.243  62.936  75.8760  0.00  0.00     0.000 OA
ATOM     75   O  SGN C   4      86.959  60.654  75.2260  0.00  0.00     0.000 O
ENDBRANCH 62 70
ENDBRANCH 57 61
ENDBRANCH 41 57
ENDBRANCH 40 44
ENDBRANCH 20 40
ENDBRANCH 19 23
ENDBRANCH 1 19
TORSDOF 14
ENDMDL
MODEL 35
REMARK VINA RESULT:      -0.7     73.141     79.071
ROOT
ATOM      1  C1  IDS C   1      27.341  47.394  98.4480  0.00  0.00     0.000 C
ATOM      2  C2  IDS C   1      28.799  47.353  98.0230  0.00  0.00     0.000 C
ATOM      3  C3  IDS C   1      29.085  46.111  97.1890  0.00  0.00     0.000 C
ATOM      4  C4  IDS C   1      28.081  45.971  96.0440  0.00  0.00     0.000 C
ATOM      5  C5  IDS C   1      26.642  46.122  96.5750  0.00  0.00     0.000 C
ATOM      6  O5  IDS C   1      26.501  47.342  97.2960  0.00  0.00     0.000 O
ATOM      7   O  IDS C   1      29.049  44.955  98.0290  0.00  0.00     0.000 O
ATOM      9  HD  IDS C   1      28.836  44.605  97.2660  0.00  0.00     0.000 HD
ATOM      9   O  IDS C   1      28.339  46.995  95.0710  0.00  0.00     0.000 O
ATOM     11  HD  IDS C   1      28.126  46.645  94.3080  0.00  0.00     0.000 HD
ENDROOT
BRANCH 2 11
ATOM     11   O  IDS C   1      29.122  48.536  97.1940  0.00  0.00     0.000 O
ATOM     12   S  IDS C   1      30.239  49.578  97.6630  0.00  0.00     0.000 S
ATOM     13   O  IDS C   1      30.822  49.988  96.4050  0.00  0.00     0.000 OA
ATOM     14   O  IDS C   1      31.181  48.911  98.5300  0.00  0.00     0.000 OA
ATOM     15   O  IDS C   1      29.503  50.626  98.3240  0.00  0.00     0.000 OA
ENDBRANCH 2 11
BRANCH 5 16
ATOM     16   C  IDS C   1      25.593  46.110  95.4780  0.00  0.00     0.000 C
ATOM     17   O  IDS C   1      24.503  46.590  95.7050  0.00  0.00     0.000 OA
ATOM     18   O  IDS C   1      25.829  45.620  94.4070  0.00  0.00     0.000 OA
ENDBRANCH 5 16
BRANCH 1 19
ATOM     19  O4  SGN C   2      26.949  46.657  99.4910  0.00  0.00     0.000 O
BRANCH 19 23
ATOM     20  C1  SGN C   2      24.465  46.513 102.8430  0.00  0.00     0.000 C
ATOM     21  C2  SGN C   2      23.784  46.356 101.4790  0.00  0.00     0.000 C
ATOM     22  C3  SGN C   2      24.824  45.995 100.4210  0.00  0.00     0.000 C
ATOM     23  C4  SGN C   2      25.917  47.057 100.3940  0.00  0.00     0.000 C
ATOM     24  C5  SGN C   2      26.503  47.236 101.7970  0.00  0.00     0.000 C
ATOM     25  O5  SGN C   2      25.449  47.529 102.7320  0.00  0.00     0.000 O
ATOM     26   O  SGN C   2      24.210  45.860  99.1440  0.00  0.00     0.000 O
ATOM     28  HD  SGN C   2      23.751  45.731  98.4220  0.00  0.00     0.000 HD
BRANCH 21 30
ATOM     28   N  SGN C   2      22.712  45.603 102.1450  0.00  0.00     0.000 N
ATOM     30  HD  SGN C   2      22.397  44.904 101.7420  0.00  0.00     0.000 HD
ATOM     30   S  SGN C   2      21.172  45.887 101.8160  0.00  0.00     0.000 S
ATOM     31   O  SGN C   2      21.061  45.771 100.4010  0.00  0.00     0.000 OA
ATOM     32   O  SGN C   2      20.376  45.073 102.6570  0.00  0.00     0.000 OA
ATOM     33   O  SGN C   2      20.953  47.370 102.2730  0.00  0.00     0.000 OA
ENDBRANCH 21 30
BRANCH 24 34
ATOM     34   C  SGN C   2      27.492  48.373 101.9010  0.00  0.00     0.000 C
ATOM     35   O  SGN C   2      28.824  47.831 101.9360  0.00  0.00     0.000 O
ATOM     36   S  SGN C   2      29.977  48.776 102.5090  0.00  0.00     0.000 S
ATOM     37   O  SGN C   2      29.497  49.195 103.8110  0.00  0.00     0.000 OA
ATOM     38   O  SGN C   2      31.160  47.953 102.5700  0.00  0.00     0.000 OA
ATOM     39   O  SGN C   2      30.062  49.846 101.5450  0.00  0.00     0.000 OA
ENDBRANCH 24 34
BRANCH 20 40
ATOM     40  O4  IDS C   3      25.015  45.429 103.3850  0.00  0.00     0.000 O
BRANCH 40 44
ATOM     41  C1  IDS C   3      26.102  42.460 104.9450  0.00  0.00     0.000 C
ATOM     42  C2  IDS C   3      24.673  42.615 104.4330  0.00  0.00     0.000 C
ATOM     43  C3  IDS C   3      24.048  43.897 104.9810  0.00  0.00     0.000 C
ATOM     44  C4  IDS C   3      24.957  45.098 104.7750  0.00  0.00     0.000 C
ATOM     45  C5  IDS C   3      26.375  44.779 105.2930  0.00  0.00     0.000 C
ATOM     46  O5  IDS C   3      26.874  43.616 104.6300  0.00  0.00     0.000 O
ATOM     47   O  IDS C   3      23.769  43.731 106.3690  0.00  0.00     0.000 O
ATOM     49  HD  IDS C   3      23.605  43.588 105.5300  0.00  0.00     0.000 HD
BRANCH 42 49
ATOM     49   O  IDS C   3      24.666  42.680 102.9530  0.00  0.00     0.000 O
ATOM     50   S  IDS C   3      23.623  41.791 102.1240  0.00  0.00     0.000 S
ATOM     51   O  IDS C   3      22.356  42.442 102.3750  0.00  0.00     0.000 OA
ATOM     52   O  IDS C   3      23.654  40.424 102.6180  0.00  0.00     0.000 OA
ATOM     53   O  IDS C   3      24.037  41.878 100.7400  0.00  0.00     0.000 OA
ENDBRANCH 42 49
BRANCH 45 54
ATOM     54   C  IDS C   3      27.361  45.919 105.0890  0.00  0.00     0.000 C
ATOM     55   O  IDS C   3      27.121  47.006 105.5470  0.00  0.00     0.000 OA
ATOM     56   O  IDS C   3      28.379  45.733 104.4510  0.00  0.00     0.000 OA
ENDBRANCH 45 54
BRANCH 41 57
ATOM     57  O4  SGN C   4      26.020  42.000 106.1990  0.00  0.00     0.000 O
BRANCH 57 61
ATOM     58  C1  SGN C   4      28.589  40.532 109.1620  0.00  0.00     0.000 C
ATOM     59  C2  SGN C   4      28.776  42.002 108.7510  0.00  0.00     0.000 C
ATOM     60  C3  SGN C   4      27.550  42.525 107.9900  0.00  0.00     0.000 C
ATOM     61  C4  SGN C   4      27.248  41.605 106.8190  0.00  0.00     0.000 C
ATOM     62  C5  SGN C   4      27.104  40.160 107.2970  0.00  0.00     0.000 C
ATOM     63  O5  SGN C   4      28.278  39.746 108.0210  0.00  0.00     0.000 O
BRANCH 59 66
ATOM     64   N  SGN C   4      29.161  42.669 109.9990  0.00  0.00     0.000 N
ATOM     66  HD  SGN C   4      28.862  42.502 109.2030  0.00  0.00     0.000 HD
ATOM     66   O  SGN C   4      30.576  44.111 111.3600  0.00  0.00     0.000 OA
ATOM     67   O  SGN C   4      31.593  42.588 109.7200  0.00  0.00     0.000 OA
ATOM     68   S  SGN C   4      30.453  43.620 110.0300  0.00  0.00     0.000 S
ATOM     69   O  SGN C   4      30.358  44.539 108.9540  0.00  0.00     0.000 OA
ENDBRANCH 59 66
BRANCH 62 70
ATOM     70   C  SGN C   4      26.937  39.208 106.1390  0.00  0.00     0.000 C
ATOM     71   S  SGN C   4      27.881  38.580 103.8400  0.00  0.00     0.000 S
ATOM     72   O  SGN C   4      27.834  37.181 104.2180  0.00  0.00     0.000 OA
ATOM     73   O  SGN C   4      26.657  39.049 103.2220  0.00  0.00     0.000 OA
ATOM     74   O  SGN C   4      29.076  38.942 103.1120  0.00  0.00     0.000 OA
ATOM     75   O  SGN C   4      28.018  39.367 105.2120  0.00  0.00     0.000 O
ENDBRANCH 62 70
ENDBRANCH 57 61
ENDBRANCH 41 57
ENDBRANCH 40 44
ENDBRANCH 20 40
ENDBRANCH 19 23
ENDBRANCH 1 19
TORSDOF 14
ENDMDL
MODEL 36
REMARK VINA RESULT:      -0.7     60.007     63.422
ROOT
ATOM      1  C1  IDS C   1      63.691  37.231  69.8210  0.00  0.00     0.000 C
ATOM      2  C2  IDS C   1      65.104  37.223  69.2660  0.00  0.00     0.000 C
ATOM      3  C3  IDS C   1      66.045  38.012  70.1680  0.00  0.00     0.000 C
ATOM      4  C4  IDS C   1      65.927  37.555  71.6220  0.00  0.00     0.000 C
ATOM      5  C5  IDS C   1      64.446  37.511  72.0500  0.00  0.00     0.000 C
ATOM      6  O5  IDS C   1      63.691  36.708  71.1490  0.00  0.00     0.000 O
ATOM      7   O  IDS C   1      65.753  39.406  70.0570  0.00  0.00     0.000 O
ATOM      9  HD  IDS C   1      66.086  39.375  70.8560  0.00  0.00     0.000 HD
ATOM      9   O  IDS C   1      66.498  36.243  71.7470  0.00  0.00     0.000 O
ATOM     11  HD  IDS C   1      66.831  36.212  72.5460  0.00  0.00     0.000 HD
ENDROOT
BRANCH 2 11
ATOM     11   O  IDS C   1      65.615  35.836  69.1880  0.00  0.00     0.000 O
ATOM     12   S  IDS C   1      65.992  35.186  67.7770  0.00  0.00     0.000 S
ATOM     13   O  IDS C   1      67.115  34.341  68.1200  0.00  0.00     0.000 OA
ATOM     14   O  IDS C   1      66.337  36.232  66.8450  0.00  0.00     0.000 OA
ATOM     15   O  IDS C   1      64.815  34.447  67.3920  0.00  0.00     0.000 OA
ENDBRANCH 2 11
BRANCH 5 16
ATOM     16   C  IDS C   1      64.242  36.955  73.4470  0.00  0.00     0.000 C
ATOM     17   O  IDS C   1      63.200  36.389  73.7050  0.00  0.00     0.000 OA
ATOM     18   O  IDS C   1      65.086  37.085  74.2910  0.00  0.00     0.000 OA
ENDBRANCH 5 16
BRANCH 1 19
ATOM     19  O4  SGN C   2      62.919  38.302  69.6160  0.00  0.00     0.000 O
BRANCH 19 23
ATOM     20  C1  SGN C   2      59.037  39.626  68.8410  0.00  0.00     0.000 C
ATOM     21  C2  SGN C   2      59.329  39.162  70.2730  0.00  0.00     0.000 C
ATOM     22  C3  SGN C   2      60.837  39.132  70.5080  0.00  0.00     0.000 C
ATOM     23  C4  SGN C   2      61.500  38.233  69.4700  0.00  0.00     0.000 C
ATOM     24  C5  SGN C   2      61.105  38.685  68.0620  0.00  0.00     0.000 C
ATOM     25  O5  SGN C   2      59.672  38.726  67.9460  0.00  0.00     0.000 O
ATOM     26   O  SGN C   2      61.128  38.689  71.8280  0.00  0.00     0.000 O
ATOM     28  HD  SGN C   2      61.215  38.479  72.6640  0.00  0.00     0.000 HD
BRANCH 21 30
ATOM     28   N  SGN C   2      58.241  40.038  70.7270  0.00  0.00     0.000 N
ATOM     30  HD  SGN C   2      58.366  40.499  71.4500  0.00  0.00     0.000 HD
ATOM     30   S  SGN C   2      57.172  39.540  71.8090  0.00  0.00     0.000 S
ATOM     31   O  SGN C   2      57.943  39.083  72.9160  0.00  0.00     0.000 OA
ATOM     32   O  SGN C   2      56.209  40.561  71.9910  0.00  0.00     0.000 OA
ATOM     33   O  SGN C   2      56.446  38.345  71.1030  0.00  0.00     0.000 OA
ENDBRANCH 21 30
BRANCH 24 34
ATOM     34   C  SGN C   2      61.595  37.764  66.9690  0.00  0.00     0.000 C
ATOM     35   O  SGN C   2      62.670  38.407  66.2620  0.00  0.00     0.000 O
ATOM     36   S  SGN C   2      63.017  37.850  64.8070  0.00  0.00     0.000 S
ATOM     37   O  SGN C   2      61.759  37.887  64.0880  0.00  0.00     0.000 OA
ATOM     38   O  SGN C   2      64.011  38.749  64.2730  0.00  0.00     0.000 OA
ATOM     39   O  SGN C   2      63.512  36.517  65.0540  0.00  0.00     0.000 OA
ENDBRANCH 24 34
BRANCH 20 40
ATOM     40  O4  IDS C   3      59.370  40.873  68.5180  0.00  0.00     0.000 O
BRANCH 40 44
ATOM     41  C1  IDS C   3      59.912  44.287  67.8270  0.00  0.00     0.000 C
ATOM     42  C2  IDS C   3      59.048  43.838  69.0020  0.00  0.00     0.000 C
ATOM     43  C3  IDS C   3      57.984  42.849  68.5320  0.00  0.00     0.000 C
ATOM     44  C4  IDS C   3      58.584  41.734  67.6900  0.00  0.00     0.000 C
ATOM     45  C5  IDS C   3      59.468  42.334  66.5760  0.00  0.00     0.000 C
ATOM     46  O5  IDS C   3      60.477  43.160  67.1620  0.00  0.00     0.000 O
ATOM     47   O  IDS C   3      56.991  43.544  67.7810  0.00  0.00     0.000 O
ATOM     49  HD  IDS C   3      57.375  43.322  68.5250  0.00  0.00     0.000 HD
BRANCH 42 49
ATOM     49   O  IDS C   3      59.888  43.178  70.0290  0.00  0.00     0.000 O
ATOM     50   S  IDS C   3      59.694  43.553  71.5740  0.00  0.00     0.000 S
ATOM     51   O  IDS C   3      58.425  42.945  71.9080  0.00  0.00     0.000 OA
ATOM     52   O  IDS C   3      59.675  44.999  71.7210  0.00  0.00     0.000 OA
ATOM     53   O  IDS C   3      60.809  42.950  72.2730  0.00  0.00     0.000 OA
ENDBRANCH 42 49
BRANCH 45 54
ATOM     54   C  IDS C   3      60.141  41.282  65.7090  0.00  0.00     0.000 C
ATOM     55   O  IDS C   3      61.336  41.307  65.5600  0.00  0.00     0.000 OA
ATOM     56   O  IDS C   3      59.471  40.432  65.1570  0.00  0.00     0.000 OA
ENDBRANCH 45 54
BRANCH 41 57
ATOM     57  O4  SGN C   4      59.211  45.210  67.1570  0.00  0.00     0.000 O
BRANCH 57 61
ATOM     58  C1  SGN C   4      59.815  47.931  64.0320  0.00  0.00     0.000 C
ATOM     59  C2  SGN C   4      59.917  46.438  63.6780  0.00  0.00     0.000 C
ATOM     60  C3  SGN C   4      59.285  45.565  64.7710  0.00  0.00     0.000 C
ATOM     61  C4  SGN C   4      59.901  45.910  66.1160  0.00  0.00     0.000 C
ATOM     62  C5  SGN C   4      59.791  47.409  66.3880  0.00  0.00     0.000 C
ATOM     63  O5  SGN C   4      60.381  48.164  65.3130  0.00  0.00     0.000 O
BRANCH 59 66
ATOM     64   N  SGN C   4      59.362  46.345  62.3240  0.00  0.00     0.000 N
ATOM     66  HD  SGN C   4      59.633  46.161  63.1260  0.00  0.00     0.000 HD
ATOM     66   O  SGN C   4      59.423  45.699  59.9770  0.00  0.00     0.000 OA
ATOM     67   O  SGN C   4      61.446  46.580  61.0600  0.00  0.00     0.000 OA
ATOM     68   S  SGN C   4      60.205  45.627  61.1640  0.00  0.00     0.000 S
ATOM     69   O  SGN C   4      60.634  44.362  61.6400  0.00  0.00     0.000 OA
ENDBRANCH 59 66
BRANCH 62 70
ATOM     70   C  SGN C   4      60.514  47.798  67.6540  0.00  0.00     0.000 C
ATOM     71   S  SGN C   4      62.678  47.438  68.9800  0.00  0.00     0.000 S
ATOM     72   O  SGN C   4      62.759  48.868  69.2070  0.00  0.00     0.000 OA
ATOM     73   O  SGN C   4      61.923  46.738  69.9990  0.00  0.00     0.000 OA
ATOM     74   O  SGN C   4      63.952  46.828  68.6760  0.00  0.00     0.000 OA
ATOM     75   O  SGN C   4      61.852  47.288  67.6320  0.00  0.00     0.000 O
ENDBRANCH 62 70
ENDBRANCH 57 61
ENDBRANCH 41 57
ENDBRANCH 40 44
ENDBRANCH 20 40
ENDBRANCH 19 23
ENDBRANCH 1 19
TORSDOF 14
ENDMDL
MODEL 37
REMARK VINA RESULT:      -0.7    100.466    105.247
ROOT
ATOM      1  C1  IDS C   1      82.925  36.962 108.0150  0.00  0.00     0.000 C
ATOM      2  C2  IDS C   1      81.460  36.704 108.3180  0.00  0.00     0.000 C
ATOM      3  C3  IDS C   1      80.571  37.687 107.5660  0.00  0.00     0.000 C
ATOM      4  C4  IDS C   1      80.919  37.721 106.0780  0.00  0.00     0.000 C
ATOM      5  C5  IDS C   1      82.440  37.893 105.8900  0.00  0.00     0.000 C
ATOM      6  O5  IDS C   1      83.148  36.888 106.6070  0.00  0.00     0.000 O
ATOM      7   O  IDS C   1      80.707  38.988 108.1420  0.00  0.00     0.000 O
ATOM      9  HD  IDS C   1      80.484  39.194 107.3300  0.00  0.00     0.000 HD
ATOM      9   O  IDS C   1      80.502  36.488 105.4730  0.00  0.00     0.000 O
ATOM     11  HD  IDS C   1      80.279  36.694 104.6620  0.00  0.00     0.000 HD
ENDROOT
BRANCH 2 11
ATOM     11   O  IDS C   1      81.083  35.338 107.8890  0.00  0.00     0.000 O
ATOM     12   S  IDS C   1      80.505  34.285 108.9420  0.00  0.00     0.000 S
ATOM     13   O  IDS C   1      79.558  33.540 108.1430  0.00  0.00     0.000 OA
ATOM     14   O  IDS C   1      79.885  34.993 110.0360  0.00  0.00     0.000 OA
ATOM     15   O  IDS C   1      81.652  33.509 109.3460  0.00  0.00     0.000 OA
ENDBRANCH 2 11
BRANCH 5 16
ATOM     16   C  IDS C   1      82.877  37.821 104.4390  0.00  0.00     0.000 C
ATOM     17   O  IDS C   1      84.062  37.860 104.1820  0.00  0.00     0.000 OA
ATOM     18   O  IDS C   1      82.068  37.742 103.5560  0.00  0.00     0.000 OA
ENDBRANCH 5 16
BRANCH 1 19
ATOM     19  O4  SGN C   2      83.555  37.953 108.6540  0.00  0.00     0.000 O
BRANCH 19 23
ATOM     20  C1  SGN C   2      87.217  39.299 110.1360  0.00  0.00     0.000 C
ATOM     21  C2  SGN C   2      87.085  39.216 108.6110  0.00  0.00     0.000 C
ATOM     22  C3  SGN C   2      85.610  39.140 108.2250  0.00  0.00     0.000 C
ATOM     23  C4  SGN C   2      84.958  37.950 108.9200  0.00  0.00     0.000 C
ATOM     24  C5  SGN C   2      85.195  38.037 110.4300  0.00  0.00     0.000 C
ATOM     25  O5  SGN C   2      86.604  38.150 110.6980  0.00  0.00     0.000 O
ATOM     26   O  SGN C   2      85.469  39.046 106.8120  0.00  0.00     0.000 O
ATOM     28  HD  SGN C   2      85.469  39.061 105.9460  0.00  0.00     0.000 HD
BRANCH 21 30
ATOM     28   N  SGN C   2      88.093  40.277 108.4840  0.00  0.00     0.000 N
ATOM     30  HD  SGN C   2      87.978  40.873 107.8660  0.00  0.00     0.000 HD
ATOM     30   S  SGN C   2      89.310  40.146 107.4530  0.00  0.00     0.000 S
ATOM     31   O  SGN C   2      88.708  39.873 106.1920  0.00  0.00     0.000 OA
ATOM     32   O  SGN C   2      90.151  41.274 107.6060  0.00  0.00     0.000 OA
ATOM     33   O  SGN C   2      90.112  38.903 107.9690  0.00  0.00     0.000 OA
ENDBRANCH 21 30
BRANCH 24 34
ATOM     34   C  SGN C   2      84.712  36.825 111.1910  0.00  0.00     0.000 C
ATOM     35   O  SGN C   2      83.478  37.150 111.8530  0.00  0.00     0.000 O
ATOM     36   S  SGN C   2      83.038  36.211 113.0680  0.00  0.00     0.000 S
ATOM     37   O  SGN C   2      84.180  36.205 113.9610  0.00  0.00     0.000 OA
ATOM     38   O  SGN C   2      81.868  36.835 113.6380  0.00  0.00     0.000 OA
ATOM     39   O  SGN C   2      82.774  34.937 112.4460  0.00  0.00     0.000 OA
ENDBRANCH 24 34
BRANCH 20 40
ATOM     40  O4  IDS C   3      86.741  40.387 110.7370  0.00  0.00     0.000 O
BRANCH 40 44
ATOM     41  C1  IDS C   3      85.810  43.438 112.2380  0.00  0.00     0.000 C
ATOM     42  C2  IDS C   3      86.797  43.389 111.0760  0.00  0.00     0.000 C
ATOM     43  C3  IDS C   3      87.918  42.396 111.3730  0.00  0.00     0.000 C
ATOM     44  C4  IDS C   3      87.373  41.053 111.8320  0.00  0.00     0.000 C
ATOM     45  C5  IDS C   3      86.355  41.261 112.9730  0.00  0.00     0.000 C
ATOM     46  O5  IDS C   3      85.314  42.133 112.5280  0.00  0.00     0.000 O
ATOM     47   O  IDS C   3      88.779  42.938 112.3720  0.00  0.00     0.000 O
ATOM     49  HD  IDS C   3      88.474  42.895 111.5620  0.00  0.00     0.000 HD
BRANCH 42 49
ATOM     49   O  IDS C   3      86.105  42.966 109.8370  0.00  0.00     0.000 O
ATOM     50   S  IDS C   3      86.376  43.753 108.4680  0.00  0.00     0.000 S
ATOM     51   O  IDS C   3      87.719  43.353 108.1130  0.00  0.00     0.000 OA
ATOM     52   O  IDS C   3      86.263  45.184 108.7030  0.00  0.00     0.000 OA
ATOM     53   O  IDS C   3      85.380  43.277 107.5310  0.00  0.00     0.000 OA
ENDBRANCH 42 49
BRANCH 45 54
ATOM     54   C  IDS C   3      85.730  39.966 113.4660  0.00  0.00     0.000 C
ATOM     55   O  IDS C   3      84.531  39.851 113.4850  0.00  0.00     0.000 OA
ATOM     56   O  IDS C   3      86.439  39.059 113.8550  0.00  0.00     0.000 OA
ENDBRANCH 45 54
BRANCH 41 57
ATOM     57  O4  SGN C   4      86.363  44.198 113.1910  0.00  0.00     0.000 O
BRANCH 57 61
ATOM     58  C1  SGN C   4      85.230  46.014 116.7890  0.00  0.00     0.000 C
ATOM     59  C2  SGN C   4      85.147  44.480 116.7330  0.00  0.00     0.000 C
ATOM     60  C3  SGN C   4      85.957  43.924 115.5530  0.00  0.00     0.000 C
ATOM     61  C4  SGN C   4      85.511  44.600 114.2680  0.00  0.00     0.000 C
ATOM     62  C5  SGN C   4      85.591  46.119 114.4050  0.00  0.00     0.000 C
ATOM     63  O5  SGN C   4      84.831  46.567 115.5440  0.00  0.00     0.000 O
BRANCH 59 66
ATOM     64   N  SGN C   4      85.526  44.034 118.0780  0.00  0.00     0.000 N
ATOM     66  HD  SGN C   4      85.362  44.066 117.2280  0.00  0.00     0.000 HD
ATOM     66   O  SGN C   4      85.174  42.812 120.1550  0.00  0.00     0.000 OA
ATOM     67   O  SGN C   4      83.294  43.979 119.0840  0.00  0.00     0.000 OA
ATOM     68   S  SGN C   4      84.551  43.061 118.9000  0.00  0.00     0.000 S
ATOM     69   O  SGN C   4      84.204  41.967 118.0660  0.00  0.00     0.000 OA
ENDBRANCH 59 66
BRANCH 62 70
ATOM     70   C  SGN C   4      85.028  46.816 113.1920  0.00  0.00     0.000 C
ATOM     71   S  SGN C   4      82.974  46.947 111.6640  0.00  0.00     0.000 S
ATOM     72   O  SGN C   4      83.041  48.394 111.7210  0.00  0.00     0.000 OA
ATOM     73   O  SGN C   4      83.756  46.379 110.5840  0.00  0.00     0.000 OA
ATOM     74   O  SGN C   4      81.628  46.428 111.7440  0.00  0.00     0.000 OA
ATOM     75   O  SGN C   4      83.653  46.456 113.0130  0.00  0.00     0.000 O
ENDBRANCH 62 70
ENDBRANCH 57 61
ENDBRANCH 41 57
ENDBRANCH 40 44
ENDBRANCH 20 40
ENDBRANCH 19 23
ENDBRANCH 1 19
TORSDOF 14
ENDMDL
MODEL 38
REMARK VINA RESULT:      -0.7    137.707    142.326
ROOT
ATOM      1  C1  IDS C   1      99.659 100.729 108.2630  0.00  0.00     0.000 C
ATOM      2  C2  IDS C   1     100.505 100.803 107.0040  0.00  0.00     0.000 C
ATOM      3  C3  IDS C   1     101.316 102.092 106.9730  0.00  0.00     0.000 C
ATOM      4  C4  IDS C   1     102.091 102.289 108.2760  0.00  0.00     0.000 C
ATOM      5  C5  IDS C   1     101.155 102.099 109.4870  0.00  0.00     0.000 C
ATOM      6  O5  IDS C   1     100.494 100.840 109.4140  0.00  0.00     0.000 O
ATOM      7   O  IDS C   1     100.444 103.199 106.7380  0.00  0.00     0.000 O
ATOM      9  HD  IDS C   1     101.084 103.589 107.1710  0.00  0.00     0.000 HD
ATOM      9   O  IDS C   1     103.152 101.323 108.3390  0.00  0.00     0.000 O
ATOM     11  HD  IDS C   1     103.792 101.714 108.7710  0.00  0.00     0.000 HD
ENDROOT
BRANCH 2 11
ATOM     11   O  IDS C   1     101.457  99.671 106.9620  0.00  0.00     0.000 O
ATOM     12   S  IDS C   1     101.423  98.623 105.7560  0.00  0.00     0.000 S
ATOM     13   O  IDS C   1     102.821  98.288 105.6010  0.00  0.00     0.000 OA
ATOM     14   O  IDS C   1     100.862  99.257 104.5870  0.00  0.00     0.000 OA
ATOM     15   O  IDS C   1     100.622  97.530 106.2480  0.00  0.00     0.000 OA
ENDBRANCH 2 11
BRANCH 5 16
ATOM     16   C  IDS C   1     101.878 102.166 110.8200  0.00  0.00     0.000 C
ATOM     17   O  IDS C   1     102.932 102.762 110.8840  0.00  0.00     0.000 OA
ATOM     18   O  IDS C   1     101.427 101.626 111.7920  0.00  0.00     0.000 OA
ENDBRANCH 5 16
BRANCH 1 19
ATOM     19  O4  SGN C   2      98.506 101.404 108.3110  0.00  0.00     0.000 O
BRANCH 19 23
ATOM     20  C1  SGN C   2      94.542 101.325 109.6170  0.00  0.00     0.000 C
ATOM     21  C2  SGN C   2      95.613 101.550 110.6910  0.00  0.00     0.000 C
ATOM     22  C3  SGN C   2      96.920 101.983 110.0330  0.00  0.00     0.000 C
ATOM     23  C4  SGN C   2      97.350 100.939 109.0090  0.00  0.00     0.000 C
ATOM     24  C5  SGN C   2      96.214 100.690 108.0130  0.00  0.00     0.000 C
ATOM     25  O5  SGN C   2      95.014 100.331 108.7220  0.00  0.00     0.000 O
ATOM     26   O  SGN C   2      97.931 102.182 111.0160  0.00  0.00     0.000 O
ATOM     28  HD  SGN C   2      98.464 102.345 111.6780  0.00  0.00     0.000 HD
BRANCH 21 30
ATOM     28   N  SGN C   2      94.518 102.139 111.4740  0.00  0.00     0.000 N
ATOM     30  HD  SGN C   2      94.647 102.918 111.8300  0.00  0.00     0.000 HD
ATOM     30   S  SGN C   2      94.448 101.963 113.0630  0.00  0.00     0.000 S
ATOM     31   O  SGN C   2      95.709 102.413 113.5480  0.00  0.00     0.000 OA
ATOM     32   O  SGN C   2      93.255 102.567 113.5290  0.00  0.00     0.000 OA
ATOM     33   O  SGN C   2      94.290 100.418 113.2680  0.00  0.00     0.000 OA
ENDBRANCH 21 30
BRANCH 24 34
ATOM     34   C  SGN C   2      96.492  99.562 107.0470  0.00  0.00     0.000 C
ATOM     35   O  SGN C   2      96.789 100.118 105.7540  0.00  0.00     0.000 O
ATOM     36   S  SGN C   2      96.648  99.145 104.4960  0.00  0.00     0.000 S
ATOM     37   O  SGN C   2      95.304  98.611 104.5920  0.00  0.00     0.000 OA
ATOM     38   O  SGN C   2      96.854  99.977 103.3350  0.00  0.00     0.000 OA
ATOM     39   O  SGN C   2      97.684  98.162 104.6990  0.00  0.00     0.000 OA
ENDBRANCH 24 34
BRANCH 20 40
ATOM     40  O4  IDS C   3      94.138 102.384 108.9200  0.00  0.00     0.000 O
BRANCH 40 44
ATOM     41  C1  IDS C   3      92.822 105.284 107.4060  0.00  0.00     0.000 C
ATOM     42  C2  IDS C   3      92.862 105.123 108.9230  0.00  0.00     0.000 C
ATOM     43  C3  IDS C   3      92.225 103.797 109.3330  0.00  0.00     0.000 C
ATOM     44  C4  IDS C   3      92.784 102.632 108.5320  0.00  0.00     0.000 C
ATOM     45  C5  IDS C   3      92.726 102.956 107.0240  0.00  0.00     0.000 C
ATOM     46  O5  IDS C   3      93.439 104.168 106.7690  0.00  0.00     0.000 O
ATOM     47   O  IDS C   3      90.813 103.875 109.1560  0.00  0.00     0.000 O
ATOM     49  HD  IDS C   3      91.545 104.062 109.5800  0.00  0.00     0.000 HD
BRANCH 42 49
ATOM     49   O  IDS C   3      94.263 105.144 109.4020  0.00  0.00     0.000 O
ATOM     50   S  IDS C   3      94.650 106.017 110.6880  0.00  0.00     0.000 S
ATOM     51   O  IDS C   3      94.058 105.279 111.7820  0.00  0.00     0.000 OA
ATOM     52   O  IDS C   3      94.093 107.353 110.5500  0.00  0.00     0.000 OA
ATOM     53   O  IDS C   3      96.096 106.034 110.7370  0.00  0.00     0.000 OA
ENDBRANCH 42 49
BRANCH 45 54
ATOM     54   C  IDS C   3      93.305 101.855 106.1490  0.00  0.00     0.000 C
ATOM     55   O  IDS C   3      94.195 102.111 105.3800  0.00  0.00     0.000 OA
ATOM     56   O  IDS C   3      92.856 100.727 106.2170  0.00  0.00     0.000 OA
ENDBRANCH 45 54
BRANCH 41 57
ATOM     57  O4  SGN C   4      91.581 105.669 107.0850  0.00  0.00     0.000 O
BRANCH 57 61
ATOM     58  C1  SGN C   4      89.524 107.104 103.7330  0.00  0.00     0.000 C
ATOM     59  C2  SGN C   4      90.042 105.658 103.6600  0.00  0.00     0.000 C
ATOM     60  C3  SGN C   4      90.397 105.125 105.0550  0.00  0.00     0.000 C
ATOM     61  C4  SGN C   4      91.366 106.079 105.7310  0.00  0.00     0.000 C
ATOM     62  C5  SGN C   4      90.802 107.499 105.7420  0.00  0.00     0.000 C
ATOM     63  O5  SGN C   4      90.469 107.923 104.4060  0.00  0.00     0.000 O
BRANCH 59 66
ATOM     64   N  SGN C   4      89.017 104.933 102.9010  0.00  0.00     0.000 N
ATOM     66  HD  SGN C   4      89.679 105.134 103.4220  0.00  0.00     0.000 HD
ATOM     66   O  SGN C   4      88.242 103.509 101.0830  0.00  0.00     0.000 OA
ATOM     67   O  SGN C   4      89.954 105.221 100.6570  0.00  0.00     0.000 OA
ATOM     68   S  SGN C   4      89.435 104.085 101.6050  0.00  0.00     0.000 S
ATOM     69   O  SGN C   4      90.521 103.242 101.9520  0.00  0.00     0.000 OA
ENDBRANCH 59 66
BRANCH 62 70
ATOM     70   C  SGN C   4      91.800 108.489 106.2870  0.00  0.00     0.000 C
ATOM     71   S  SGN C   4      94.262 109.198 106.1800  0.00  0.00     0.000 S
ATOM     72   O  SGN C   4      93.843 110.583 106.0850  0.00  0.00     0.000 OA
ATOM     73   O  SGN C   4      94.439 108.745 107.5450  0.00  0.00     0.000 OA
ATOM     74   O  SGN C   4      95.365 108.866 105.3080  0.00  0.00     0.000 OA
ATOM     75   O  SGN C   4      93.045 108.366 105.5890  0.00  0.00     0.000 O
ENDBRANCH 62 70
ENDBRANCH 57 61
ENDBRANCH 41 57
ENDBRANCH 40 44
ENDBRANCH 20 40
ENDBRANCH 19 23
ENDBRANCH 1 19
TORSDOF 14
ENDMDL
MODEL 39
REMARK VINA RESULT:      -0.7    102.937    108.976
ROOT
ATOM      1  C1  IDS C   1      45.725 107.816  31.7470  0.00  0.00     0.000 C
ATOM      2  C2  IDS C   1      45.295 107.197  30.4290  0.00  0.00     0.000 C
ATOM      3  C3  IDS C   1      46.315 106.169  29.9560  0.00  0.00     0.000 C
ATOM      4  C4  IDS C   1      46.637 105.162  31.0600  0.00  0.00     0.000 C
ATOM      5  C5  IDS C   1      46.967 105.898  32.3740  0.00  0.00     0.000 C
ATOM      6  O5  IDS C   1      45.915 106.792  32.7220  0.00  0.00     0.000 O
ATOM      7   O  IDS C   1      47.503 106.839  29.5280  0.00  0.00     0.000 O
ATOM      9  HD  IDS C   1      47.828 106.071  29.7620  0.00  0.00     0.000 HD
ATOM      9   O  IDS C   1      45.498 104.312  31.2630  0.00  0.00     0.000 O
ATOM     11  HD  IDS C   1      45.823 103.545  31.4980  0.00  0.00     0.000 HD
ENDROOT
BRANCH 2 11
ATOM     11   O  IDS C   1      43.998 106.502  30.5900  0.00  0.00     0.000 O
ATOM     12   S  IDS C   1      42.718 106.962  29.7510  0.00  0.00     0.000 S
ATOM     13   O  IDS C   1      42.037 105.707  29.5180  0.00  0.00     0.000 OA
ATOM     14   O  IDS C   1      43.151 107.603  28.5320  0.00  0.00     0.000 OA
ATOM     15   O  IDS C   1      42.003 107.848  30.6360  0.00  0.00     0.000 OA
ENDBRANCH 2 11
BRANCH 5 16
ATOM     16   C  IDS C   1      47.186 104.961  33.5480  0.00  0.00     0.000 C
ATOM     17   O  IDS C   1      47.147 105.414  34.6720  0.00  0.00     0.000 OA
ATOM     18   O  IDS C   1      47.410 103.795  33.3710  0.00  0.00     0.000 OA
ENDBRANCH 5 16
BRANCH 1 19
ATOM     19  O4  SGN C   2      46.638 108.791  31.7380  0.00  0.00     0.000 O
BRANCH 19 23
ATOM     20  C1  SGN C   2      47.822 112.389  33.4940  0.00  0.00     0.000 C
ATOM     21  C2  SGN C   2      48.071 111.115  34.3090  0.00  0.00     0.000 C
ATOM     22  C3  SGN C   2      48.002 109.895  33.3940  0.00  0.00     0.000 C
ATOM     23  C4  SGN C   2      46.654 109.863  32.6830  0.00  0.00     0.000 C
ATOM     24  C5  SGN C   2      46.417 111.190  31.9580  0.00  0.00     0.000 C
ATOM     25  O5  SGN C   2      46.545 112.283  32.8860  0.00  0.00     0.000 O
ATOM     26   O  SGN C   2      48.216 108.701  34.1380  0.00  0.00     0.000 O
ATOM     28  HD  SGN C   2      48.422 108.032  34.6480  0.00  0.00     0.000 HD
BRANCH 21 30
ATOM     28   N  SGN C   2      49.168 111.816  34.9890  0.00  0.00     0.000 N
ATOM     30  HD  SGN C   2      49.899 111.377  35.1410  0.00  0.00     0.000 HD
ATOM     30   S  SGN C   2      49.356 111.722  36.5750  0.00  0.00     0.000 S
ATOM     31   O  SGN C   2      49.395 110.329  36.8680  0.00  0.00     0.000 OA
ATOM     32   O  SGN C   2      50.438 112.554  36.9500  0.00  0.00     0.000 OA
ATOM     33   O  SGN C   2      48.054 112.376  37.1520  0.00  0.00     0.000 OA
ENDBRANCH 21 30
BRANCH 24 34
ATOM     34   C  SGN C   2      45.042 111.310  31.3450  0.00  0.00     0.000 C
ATOM     35   O  SGN C   2      45.136 111.060  29.9320  0.00  0.00     0.000 O
ATOM     36   S  SGN C   2      43.934 111.585  29.0210  0.00  0.00     0.000 S
ATOM     37   O  SGN C   2      43.814 112.993  29.3450  0.00  0.00     0.000 OA
ATOM     38   O  SGN C   2      44.344 111.342  27.6590  0.00  0.00     0.000 OA
ATOM     39   O  SGN C   2      42.806 110.790  29.4400  0.00  0.00     0.000 OA
ENDBRANCH 24 34
BRANCH 20 40
ATOM     40  O4  IDS C   3      48.722 112.713  32.5690  0.00  0.00     0.000 O
BRANCH 40 44
ATOM     41  C1  IDS C   3      51.278 113.742  30.3690  0.00  0.00     0.000 C
ATOM     42  C2  IDS C   3      51.558 113.462  31.8430  0.00  0.00     0.000 C
ATOM     43  C3  IDS C   3      50.585 114.241  32.7250  0.00  0.00     0.000 C
ATOM     44  C4  IDS C   3      49.144 114.048  32.2790  0.00  0.00     0.000 C
ATOM     45  C5  IDS C   3      49.023 114.316  30.7650  0.00  0.00     0.000 C
ATOM     46  O5  IDS C   3      49.917 113.456  30.0560  0.00  0.00     0.000 O
ATOM     47   O  IDS C   3      50.922 115.625  32.6950  0.00  0.00     0.000 O
ATOM     49  HD  IDS C   3      51.055 114.808  32.9510  0.00  0.00     0.000 HD
BRANCH 42 49
ATOM     49   O  IDS C   3      51.402 112.017  32.1260  0.00  0.00     0.000 O
ATOM     50   S  IDS C   3      52.487 111.264  33.0340  0.00  0.00     0.000 S
ATOM     51   O  IDS C   3      52.223 111.774  34.3610  0.00  0.00     0.000 OA
ATOM     52   O  IDS C   3      53.822 111.595  32.5640  0.00  0.00     0.000 OA
ATOM     53   O  IDS C   3      52.200 109.851  32.9060  0.00  0.00     0.000 OA
ENDBRANCH 42 49
BRANCH 45 54
ATOM     54   C  IDS C   3      47.616 114.107  30.2270  0.00  0.00     0.000 C
ATOM     55   O  IDS C   3      47.432 113.337  29.3200  0.00  0.00     0.000 OA
ATOM     56   O  IDS C   3      46.686 114.729  30.7020  0.00  0.00     0.000 OA
ENDBRANCH 45 54
BRANCH 41 57
ATOM     57  O4  SGN C   4      51.821 114.932  30.0860  0.00  0.00     0.000 O
BRANCH 57 61
ATOM     58  C1  SGN C   4      52.632 117.273  26.7120  0.00  0.00     0.000 C
ATOM     59  C2  SGN C   4      51.151 117.022  27.0390  0.00  0.00     0.000 C
ATOM     60  C3  SGN C   4      50.979 116.524  28.4810  0.00  0.00     0.000 C
ATOM     61  C4  SGN C   4      51.861 115.308  28.7060  0.00  0.00     0.000 C
ATOM     62  C5  SGN C   4      53.310 115.620  28.3330  0.00  0.00     0.000 C
ATOM     63  O5  SGN C   4      53.392 116.104  26.9790  0.00  0.00     0.000 O
BRANCH 59 66
ATOM     64   N  SGN C   4      50.483 118.270  26.6560  0.00  0.00     0.000 N
ATOM     66  HD  SGN C   4      50.678 117.511  27.0230  0.00  0.00     0.000 HD
ATOM     66   O  SGN C   4      48.782 119.571  25.4960  0.00  0.00     0.000 OA
ATOM     67   O  SGN C   4      49.826 117.646  24.3800  0.00  0.00     0.000 OA
ATOM     68   S  SGN C   4      49.199 118.225  25.6950  0.00  0.00     0.000 S
ATOM     69   O  SGN C   4      48.279 117.282  26.2220  0.00  0.00     0.000 OA
ENDBRANCH 59 66
BRANCH 62 70
ATOM     70   C  SGN C   4      54.181 114.392  28.4200  0.00  0.00     0.000 C
ATOM     71   S  SGN C   4      54.292 111.902  27.8220  0.00  0.00     0.000 S
ATOM     72   O  SGN C   4      55.644 112.093  27.3360  0.00  0.00     0.000 OA
ATOM     73   O  SGN C   4      54.231 111.573  29.2320  0.00  0.00     0.000 OA
ATOM     74   O  SGN C   4      53.495 111.034  26.9860  0.00  0.00     0.000 OA
ATOM     75   O  SGN C   4      53.600 113.322  27.6650  0.00  0.00     0.000 O
ENDBRANCH 62 70
ENDBRANCH 57 61
ENDBRANCH 41 57
ENDBRANCH 40 44
ENDBRANCH 20 40
ENDBRANCH 19 23
ENDBRANCH 1 19
TORSDOF 14
ENDMDL
MODEL 40
REMARK VINA RESULT:      -0.7     73.259     78.946
ROOT
ATOM      1  C1  IDS C   1      97.562  34.646  22.6000  0.00  0.00     0.000 C
ATOM      2  C2  IDS C   1      97.841  35.800  21.6530  0.00  0.00     0.000 C
ATOM      3  C3  IDS C   1      98.655  36.885  22.3480  0.00  0.00     0.000 C
ATOM      4  C4  IDS C   1      99.895  36.297  23.0220  0.00  0.00     0.000 C
ATOM      5  C5  IDS C   1      99.508  35.077  23.8820  0.00  0.00     0.000 C
ATOM      6  O5  IDS C   1      98.792  34.125  23.1020  0.00  0.00     0.000 O
ATOM      7   O  IDS C   1      97.836  37.556  23.3060  0.00  0.00     0.000 O
ATOM      9  HD  IDS C   1      98.619  37.675  23.6550  0.00  0.00     0.000 HD
ATOM      9   O  IDS C   1     100.828  35.889  22.0090  0.00  0.00     0.000 O
ATOM     11  HD  IDS C   1     101.612  36.009  22.3580  0.00  0.00     0.000 HD
ENDROOT
BRANCH 2 11
ATOM     11   O  IDS C   1      98.622  35.328  20.4880  0.00  0.00     0.000 O
ATOM     12   S  IDS C   1      98.036  35.461  19.0080  0.00  0.00     0.000 S
ATOM     13   O  IDS C   1      99.227  35.717  18.2280  0.00  0.00     0.000 OA
ATOM     14   O  IDS C   1      97.090  36.550  18.9640  0.00  0.00     0.000 OA
ATOM     15   O  IDS C   1      97.437  34.178  18.7370  0.00  0.00     0.000 OA
ENDBRANCH 2 11
BRANCH 5 16
ATOM     16   C  IDS C   1     100.703  34.370  24.4920  0.00  0.00     0.000 C
ATOM     17   O  IDS C   1     101.733  34.991  24.6490  0.00  0.00     0.000 OA
ATOM     18   O  IDS C   1     100.641  33.211  24.8010  0.00  0.00     0.000 OA
ENDBRANCH 5 16
BRANCH 1 19
ATOM     19  O4  SGN C   2      96.570  34.761  23.4880  0.00  0.00     0.000 O
BRANCH 19 23
ATOM     20  C1  SGN C   2      93.468  32.758  25.4350  0.00  0.00     0.000 C
ATOM     21  C2  SGN C   2      94.892  32.443  25.9100  0.00  0.00     0.000 C
ATOM     22  C3  SGN C   2      95.848  33.534  25.4350  0.00  0.00     0.000 C
ATOM     23  C4  SGN C   2      95.768  33.660  23.9180  0.00  0.00     0.000 C
ATOM     24  C5  SGN C   2      94.315  33.887  23.4920  0.00  0.00     0.000 C
ATOM     25  O5  SGN C   2      93.482  32.839  24.0190  0.00  0.00     0.000 O
ATOM     26   O  SGN C   2      97.177  33.248  25.8540  0.00  0.00     0.000 O
ATOM     28  HD  SGN C   2      97.941  33.038  26.2050  0.00  0.00     0.000 HD
BRANCH 21 30
ATOM     28   N  SGN C   2      94.468  32.161  27.2890  0.00  0.00     0.000 N
ATOM     30  HD  SGN C   2      95.033  32.317  27.9260  0.00  0.00     0.000 HD
ATOM     30   S  SGN C   2      94.804  30.763  27.9910  0.00  0.00     0.000 S
ATOM     31   O  SGN C   2      96.213  30.605  27.8570  0.00  0.00     0.000 OA
ATOM     32   O  SGN C   2      94.210  30.752  29.2750  0.00  0.00     0.000 OA
ATOM     33   O  SGN C   2      94.039  29.708  27.1220  0.00  0.00     0.000 OA
ENDBRANCH 21 30
BRANCH 24 34
ATOM     34   C  SGN C   2      94.113  33.878  21.9940  0.00  0.00     0.000 C
ATOM     35   O  SGN C   2      93.919  35.230  21.5410  0.00  0.00     0.000 O
ATOM     36   S  SGN C   2      93.231  35.424  20.1140  0.00  0.00     0.000 S
ATOM     37   O  SGN C   2      91.997  34.666  20.1930  0.00  0.00     0.000 OA
ATOM     38   O  SGN C   2      93.023  36.845  19.9720  0.00  0.00     0.000 OA
ATOM     39   O  SGN C   2      94.193  34.881  19.1860  0.00  0.00     0.000 OA
ENDBRANCH 24 34
BRANCH 20 40
ATOM     40  O4  IDS C   3      92.881  33.845  25.9300  0.00  0.00     0.000 O
BRANCH 40 44
ATOM     41  C1  IDS C   3      91.211  36.547  27.4590  0.00  0.00     0.000 C
ATOM     42  C2  IDS C   3      91.870  35.445  28.2850  0.00  0.00     0.000 C
ATOM     43  C3  IDS C   3      91.392  34.073  27.8170  0.00  0.00     0.000 C
ATOM     44  C4  IDS C   3      91.504  33.923  26.3080  0.00  0.00     0.000 C
ATOM     45  C5  IDS C   3      90.840  35.128  25.6090  0.00  0.00     0.000 C
ATOM     46  O5  IDS C   3      91.446  36.338  26.0690  0.00  0.00     0.000 O
ATOM     47   O  IDS C   3      90.041  33.877  28.2250  0.00  0.00     0.000 O
ATOM     49  HD  IDS C   3      90.891  33.921  28.3820  0.00  0.00     0.000 HD
BRANCH 42 49
ATOM     49   O  IDS C   3      93.342  35.510  28.1390  0.00  0.00     0.000 O
ATOM     50   S  IDS C   3      94.277  35.328  29.4270  0.00  0.00     0.000 S
ATOM     51   O  IDS C   3      94.151  33.920  29.7330  0.00  0.00     0.000 OA
ATOM     52   O  IDS C   3      93.790  36.178  30.5010  0.00  0.00     0.000 OA
ATOM     53   O  IDS C   3      95.612  35.696  29.0060  0.00  0.00     0.000 OA
ENDBRANCH 42 49
BRANCH 45 54
ATOM     54   C  IDS C   3      90.943  35.077  24.0930  0.00  0.00     0.000 C
ATOM     55   O  IDS C   3      91.431  36.001  23.4960  0.00  0.00     0.000 OA
ATOM     56   O  IDS C   3      90.517  34.112  23.4880  0.00  0.00     0.000 OA
ENDBRANCH 45 54
BRANCH 41 57
ATOM     57  O4  SGN C   4      89.971  36.707  27.9380  0.00  0.00     0.000 O
BRANCH 57 61
ATOM     58  C1  SGN C   4      86.877  39.517  27.7000  0.00  0.00     0.000 C
ATOM     59  C2  SGN C   4      87.140  38.670  26.4440  0.00  0.00     0.000 C
ATOM     60  C3  SGN C   4      87.985  37.433  26.7760  0.00  0.00     0.000 C
ATOM     61  C4  SGN C   4      89.255  37.863  27.4910  0.00  0.00     0.000 C
ATOM     62  C5  SGN C   4      88.919  38.722  28.7090  0.00  0.00     0.000 C
ATOM     63  O5  SGN C   4      88.107  39.848  28.3270  0.00  0.00     0.000 O
BRANCH 59 66
ATOM     64   N  SGN C   4      85.807  38.464  25.8670  0.00  0.00     0.000 N
ATOM     66  HD  SGN C   4      86.643  38.383  26.0780  0.00  0.00     0.000 HD
ATOM     66   O  SGN C   4      84.180  38.502  24.0550  0.00  0.00     0.000 OA
ATOM     67   O  SGN C   4      85.800  40.337  24.2890  0.00  0.00     0.000 OA
ATOM     68   S  SGN C   4      85.549  38.789  24.3170  0.00  0.00     0.000 S
ATOM     69   O  SGN C   4      86.555  38.145  23.5510  0.00  0.00     0.000 OA
ENDBRANCH 59 66
BRANCH 62 70
ATOM     70   C  SGN C   4      90.164  39.273  29.3590  0.00  0.00     0.000 C
ATOM     71   S  SGN C   4      92.398  40.432  28.8720  0.00  0.00     0.000 S
ATOM     72   O  SGN C   4      92.146  41.347  29.9670  0.00  0.00     0.000 OA
ATOM     73   O  SGN C   4      93.097  39.230  29.2780  0.00  0.00     0.000 OA
ATOM     74   O  SGN C   4      92.964  41.070  27.7050  0.00  0.00     0.000 OA
ATOM     75   O  SGN C   4      90.957  39.969  28.3900  0.00  0.00     0.000 O
ENDBRANCH 62 70
ENDBRANCH 57 61
ENDBRANCH 41 57
ENDBRANCH 40 44
ENDBRANCH 20 40
ENDBRANCH 19 23
ENDBRANCH 1 19
TORSDOF 14
ENDMDL
MODEL 41
REMARK VINA RESULT:      -0.7     45.333     48.889
ROOT
ATOM      1  C1  IDS C   1      40.836  40.939  61.6670  0.00  0.00     0.000 C
ATOM      2  C2  IDS C   1      39.337  41.089  61.8530  0.00  0.00     0.000 C
ATOM      3  C3  IDS C   1      38.581  40.100  60.9740  0.00  0.00     0.000 C
ATOM      4  C4  IDS C   1      39.110  38.678  61.1620  0.00  0.00     0.000 C
ATOM      5  C5  IDS C   1      40.647  38.660  61.0450  0.00  0.00     0.000 C
ATOM      6  O5  IDS C   1      41.226  39.596  61.9490  0.00  0.00     0.000 O
ATOM      7   O  IDS C   1      38.692  40.498  59.6060  0.00  0.00     0.000 O
ATOM      9  HD  IDS C   1      38.578  39.644  59.5160  0.00  0.00     0.000 HD
ATOM      9   O  IDS C   1      38.725  38.206  62.4620  0.00  0.00     0.000 O
ATOM     11  HD  IDS C   1      38.611  37.352  62.3720  0.00  0.00     0.000 HD
ENDROOT
BRANCH 2 11
ATOM     11   O  IDS C   1      38.967  40.814  63.2600  0.00  0.00     0.000 O
ATOM     12   S  IDS C   1      38.492  41.997  64.2230  0.00  0.00     0.000 S
ATOM     13   O  IDS C   1      37.511  41.338  65.0570  0.00  0.00     0.000 OA
ATOM     14   O  IDS C   1      37.931  43.064  63.4290  0.00  0.00     0.000 OA
ATOM     15   O  IDS C   1      39.684  42.385  64.9350  0.00  0.00     0.000 OA
ENDBRANCH 2 11
BRANCH 5 16
ATOM     16   C  IDS C   1      41.255  37.300  61.3350  0.00  0.00     0.000 C
ATOM     17   O  IDS C   1      42.462  37.181  61.3060  0.00  0.00     0.000 OA
ATOM     18   O  IDS C   1      40.558  36.353  61.5740  0.00  0.00     0.000 OA
ENDBRANCH 5 16
BRANCH 1 19
ATOM     19  O4  SGN C   2      41.418  41.505  60.6060  0.00  0.00     0.000 O
BRANCH 19 23
ATOM     20  C1  SGN C   2      44.933  43.201  59.1230  0.00  0.00     0.000 C
ATOM     21  C2  SGN C   2      44.928  41.677  59.2960  0.00  0.00     0.000 C
ATOM     22  C3  SGN C   2      43.490  41.177  59.4160  0.00  0.00     0.000 C
ATOM     23  C4  SGN C   2      42.795  41.885  60.5720  0.00  0.00     0.000 C
ATOM     24  C5  SGN C   2      42.905  43.402  60.3950  0.00  0.00     0.000 C
ATOM     25  O5  SGN C   2      44.287  43.777  60.2470  0.00  0.00     0.000 O
ATOM     26   O  SGN C   2      43.467  39.765  59.5930  0.00  0.00     0.000 O
ATOM     28  HD  SGN C   2      43.538  38.903  59.6280  0.00  0.00     0.000 HD
BRANCH 21 30
ATOM     28   N  SGN C   2      45.952  41.601  58.2460  0.00  0.00     0.000 N
ATOM     30  HD  SGN C   2      45.883  40.969  57.6580  0.00  0.00     0.000 HD
ATOM     30   S  SGN C   2      47.231  40.652  58.4020  0.00  0.00     0.000 S
ATOM     31   O  SGN C   2      46.708  39.359  58.6870  0.00  0.00     0.000 OA
ATOM     32   O  SGN C   2      48.072  40.844  57.2800  0.00  0.00     0.000 OA
ATOM     33   O  SGN C   2      47.986  41.235  59.6460  0.00  0.00     0.000 OA
ENDBRANCH 21 30
BRANCH 24 34
ATOM     34   C  SGN C   2      42.374  44.190  61.5690  0.00  0.00     0.000 C
ATOM     35   O  SGN C   2      41.078  44.715  61.2310  0.00  0.00     0.000 O
ATOM     36   S  SGN C   2      40.542  45.941  62.1010  0.00  0.00     0.000 S
ATOM     37   O  SGN C   2      41.596  46.934  62.0280  0.00  0.00     0.000 OA
ATOM     38   O  SGN C   2      39.314  46.360  61.4690  0.00  0.00     0.000 OA
ATOM     39   O  SGN C   2      40.357  45.380  63.4170  0.00  0.00     0.000 OA
ENDBRANCH 24 34
BRANCH 20 40
ATOM     40  O4  IDS C   3      44.398  43.695  58.0090  0.00  0.00     0.000 O
BRANCH 40 44
ATOM     41  C1  IDS C   3      43.317  44.932  54.8900  0.00  0.00     0.000 C
ATOM     42  C2  IDS C   3      44.393  43.854  54.9920  0.00  0.00     0.000 C
ATOM     43  C3  IDS C   3      45.499  44.297  55.9470  0.00  0.00     0.000 C
ATOM     44  C4  IDS C   3      44.935  44.794  57.2690  0.00  0.00     0.000 C
ATOM     45  C5  IDS C   3      43.828  45.837  57.0090  0.00  0.00     0.000 C
ATOM     46  O5  IDS C   3      42.815  45.261  56.1830  0.00  0.00     0.000 O
ATOM     47   O  IDS C   3      46.272  45.324  55.3320  0.00  0.00     0.000 O
ATOM     49  HD  IDS C   3      46.032  44.498  55.4280  0.00  0.00     0.000 HD
BRANCH 42 49
ATOM     49   O  IDS C   3      43.804  42.593  55.5000  0.00  0.00     0.000 O
ATOM     50   S  IDS C   3      44.157  41.206  54.7800  0.00  0.00     0.000 S
ATOM     51   O  IDS C   3      45.532  40.973  55.1610  0.00  0.00     0.000 OA
ATOM     52   O  IDS C   3      43.993  41.353  53.3420  0.00  0.00     0.000 OA
ATOM     53   O  IDS C   3      43.245  40.228  55.3330  0.00  0.00     0.000 OA
ENDBRANCH 42 49
BRANCH 45 54
ATOM     54   C  IDS C   3      43.182  46.359  58.2830  0.00  0.00     0.000 C
ATOM     55   O  IDS C   3      41.992  46.255  58.4330  0.00  0.00     0.000 OA
ATOM     56   O  IDS C   3      43.864  46.893  59.1350  0.00  0.00     0.000 OA
ENDBRANCH 45 54
BRANCH 41 57
ATOM     57  O4  SGN C   4      43.785  45.876  54.0650  0.00  0.00     0.000 O
BRANCH 57 61
ATOM     58  C1  SGN C   4      42.313  49.146  51.9050  0.00  0.00     0.000 C
ATOM     59  C2  SGN C   4      42.157  49.201  53.4340  0.00  0.00     0.000 C
ATOM     60  C3  SGN C   4      43.076  48.182  54.1210  0.00  0.00     0.000 C
ATOM     61  C4  SGN C   4      42.828  46.801  53.5380  0.00  0.00     0.000 C
ATOM     62  C5  SGN C   4      42.970  46.827  52.0170  0.00  0.00     0.000 C
ATOM     63  O5  SGN C   4      42.099  47.821  51.4440  0.00  0.00     0.000 O
BRANCH 59 66
ATOM     64   N  SGN C   4      42.333  50.620  53.7600  0.00  0.00     0.000 N
ATOM     66  HD  SGN C   4      42.295  49.756  53.8020  0.00  0.00     0.000 HD
ATOM     66   O  SGN C   4      41.675  52.720  54.8050  0.00  0.00     0.000 OA
ATOM     67   O  SGN C   4      39.976  51.289  53.7510  0.00  0.00     0.000 OA
ATOM     68   S  SGN C   4      41.244  51.370  54.6700  0.00  0.00     0.000 S
ATOM     69   O  SGN C   4      41.021  50.590  55.8340  0.00  0.00     0.000 OA
ENDBRANCH 59 66
BRANCH 62 70
ATOM     70   C  SGN C   4      42.598  45.501  51.4030  0.00  0.00     0.000 C
ATOM     71   S  SGN C   4      40.652  43.868  51.0570  0.00  0.00     0.000 S
ATOM     72   O  SGN C   4      41.038  43.724  49.6670  0.00  0.00     0.000 OA
ATOM     73   O  SGN C   4      41.308  42.920  51.9360  0.00  0.00     0.000 OA
ATOM     74   O  SGN C   4      39.223  43.953  51.2540  0.00  0.00     0.000 OA
ATOM     75   O  SGN C   4      41.181  45.305  51.4780  0.00  0.00     0.000 O
ENDBRANCH 62 70
ENDBRANCH 57 61
ENDBRANCH 41 57
ENDBRANCH 40 44
ENDBRANCH 20 40
ENDBRANCH 19 23
ENDBRANCH 1 19
TORSDOF 14
ENDMDL
MODEL 42
REMARK VINA RESULT:      -0.7     77.517     83.300
ROOT
ATOM      1  C1  IDS C   1      26.454  57.022 105.4630  0.00  0.00     0.000 C
ATOM      2  C2  IDS C   1      26.837  55.768 106.2290  0.00  0.00     0.000 C
ATOM      3  C3  IDS C   1      28.340  55.528 106.1560  0.00  0.00     0.000 C
ATOM      4  C4  IDS C   1      29.119  56.782 106.5520  0.00  0.00     0.000 C
ATOM      5  C5  IDS C   1      28.584  58.007 105.7830  0.00  0.00     0.000 C
ATOM      6  O5  IDS C   1      27.179  58.140 105.9720  0.00  0.00     0.000 O
ATOM      7   O  IDS C   1      28.693  55.116 104.8340  0.00  0.00     0.000 O
ATOM      9  HD  IDS C   1      29.435  55.480 105.0920  0.00  0.00     0.000 HD
ATOM      9   O  IDS C   1      28.965  57.001 107.9630  0.00  0.00     0.000 O
ATOM     11  HD  IDS C   1      29.708  57.364 108.2210  0.00  0.00     0.000 HD
ENDROOT
BRANCH 2 11
ATOM     11   O  IDS C   1      26.473  55.911 107.6560  0.00  0.00     0.000 O
ATOM     12   S  IDS C   1      25.299  55.029 108.2890  0.00  0.00     0.000 S
ATOM     13   O  IDS C   1      25.776  54.806 109.6360  0.00  0.00     0.000 OA
ATOM     14   O  IDS C   1      25.157  53.809 107.5320  0.00  0.00     0.000 OA
ATOM     15   O  IDS C   1      24.135  55.876 108.2250  0.00  0.00     0.000 OA
ENDBRANCH 2 11
BRANCH 5 16
ATOM     16   C  IDS C   1      29.233  59.312 106.2090  0.00  0.00     0.000 C
ATOM     17   O  IDS C   1      30.105  59.284 107.0510  0.00  0.00     0.000 OA
ATOM     18   O  IDS C   1      28.882  60.357 105.7350  0.00  0.00     0.000 OA
ENDBRANCH 5 16
BRANCH 1 19
ATOM     19  O4  SGN C   2      26.335  56.959 104.1330  0.00  0.00     0.000 O
BRANCH 19 23
ATOM     20  C1  SGN C   2      24.374  58.503 100.7880  0.00  0.00     0.000 C
ATOM     21  C2  SGN C   2      25.388  59.426 101.4730  0.00  0.00     0.000 C
ATOM     22  C3  SGN C   2      26.311  58.603 102.3680  0.00  0.00     0.000 C
ATOM     23  C4  SGN C   2      25.480  57.819 103.3780  0.00  0.00     0.000 C
ATOM     24  C5  SGN C   2      24.427  56.983 102.6460  0.00  0.00     0.000 C
ATOM     25  O5  SGN C   2      23.635  57.831 101.7950  0.00  0.00     0.000 O
ATOM     26   O  SGN C   2      27.250  59.447 103.0250  0.00  0.00     0.000 O
ATOM     28  HD  SGN C   2      27.826  60.017 103.3290  0.00  0.00     0.000 HD
BRANCH 21 30
ATOM     28   N  SGN C   2      25.476  60.119 100.1810  0.00  0.00     0.000 N
ATOM     30  HD  SGN C   2      26.264  60.301  99.8700  0.00  0.00     0.000 HD
ATOM     30   S  SGN C   2      25.610  61.711 100.1010  0.00  0.00     0.000 S
ATOM     31   O  SGN C   2      26.729  62.036 100.9210  0.00  0.00     0.000 OA
ATOM     32   O  SGN C   2      25.597  62.096  98.7390  0.00  0.00     0.000 OA
ATOM     33   O  SGN C   2      24.280  62.238 100.7390  0.00  0.00     0.000 OA
ENDBRANCH 21 30
BRANCH 24 34
ATOM     34   C  SGN C   2      23.458  56.283 103.5700  0.00  0.00     0.000 C
ATOM     35   O  SGN C   2      23.810  54.890 103.6490  0.00  0.00     0.000 O
ATOM     36   S  SGN C   2      22.683  53.886 104.1660  0.00  0.00     0.000 S
ATOM     37   O  SGN C   2      21.541  54.138 103.3090  0.00  0.00     0.000 OA
ATOM     38   O  SGN C   2      23.238  52.563 104.0080  0.00  0.00     0.000 OA
ATOM     39   O  SGN C   2      22.478  54.270 105.5410  0.00  0.00     0.000 OA
ENDBRANCH 24 34
BRANCH 20 40
ATOM     40  O4  IDS C   3      24.842  57.611  99.9190  0.00  0.00     0.000 O
BRANCH 40 44
ATOM     41  C1  IDS C   3      26.085  55.535  97.3540  0.00  0.00     0.000 C
ATOM     42  C2  IDS C   3      26.340  57.039  97.3580  0.00  0.00     0.000 C
ATOM     43  C3  IDS C   3      25.027  57.801  97.5190  0.00  0.00     0.000 C
ATOM     44  C4  IDS C   3      24.207  57.269  98.6840  0.00  0.00     0.000 C
ATOM     45  C5  IDS C   3      24.074  55.735  98.5750  0.00  0.00     0.000 C
ATOM     46  O5  IDS C   3      25.375  55.146  98.5270  0.00  0.00     0.000 O
ATOM     47   O  IDS C   3      24.274  57.707  96.3130  0.00  0.00     0.000 O
ATOM     49  HD  IDS C   3      24.926  58.022  96.7880  0.00  0.00     0.000 HD
BRANCH 42 49
ATOM     49   O  IDS C   3      27.239  57.401  98.4780  0.00  0.00     0.000 O
ATOM     50   S  IDS C   3      28.452  58.417  98.2270  0.00  0.00     0.000 S
ATOM     51   O  IDS C   3      27.789  59.692  98.0600  0.00  0.00     0.000 OA
ATOM     52   O  IDS C   3      29.185  58.010  97.0390  0.00  0.00     0.000 OA
ATOM     53   O  IDS C   3      29.272  58.360  99.4180  0.00  0.00     0.000 OA
ENDBRANCH 42 49
BRANCH 45 54
ATOM     54   C  IDS C   3      23.299  55.115  99.7270  0.00  0.00     0.000 C
ATOM     55   O  IDS C   3      22.211  55.544 100.0140  0.00  0.00     0.000 OA
ATOM     56   O  IDS C   3      23.786  54.201 100.3640  0.00  0.00     0.000 OA
ENDBRANCH 45 54
BRANCH 41 57
ATOM     57  O4  SGN C   4      25.637  55.216  96.1340  0.00  0.00     0.000 O
BRANCH 57 61
ATOM     58  C1  SGN C   4      24.895  51.767  93.8800  0.00  0.00     0.000 C
ATOM     59  C2  SGN C   4      24.046  51.961  95.1460  0.00  0.00     0.000 C
ATOM     60  C3  SGN C   4      24.112  53.412  95.6420  0.00  0.00     0.000 C
ATOM     61  C4  SGN C   4      25.564  53.822  95.8200  0.00  0.00     0.000 C
ATOM     62  C5  SGN C   4      26.352  53.575  94.5350  0.00  0.00     0.000 C
ATOM     63  O5  SGN C   4      26.225  52.203  94.1170  0.00  0.00     0.000 O
BRANCH 59 66
ATOM     64   N  SGN C   4      22.735  51.412  94.7840  0.00  0.00     0.000 N
ATOM     66  HD  SGN C   4      23.374  51.858  95.1630  0.00  0.00     0.000 HD
ATOM     66   O  SGN C   4      20.790  49.987  95.1320  0.00  0.00     0.000 OA
ATOM     67   O  SGN C   4      23.040  49.141  95.6500  0.00  0.00     0.000 OA
ATOM     68   S  SGN C   4      22.028  50.336  95.7420  0.00  0.00     0.000 S
ATOM     69   O  SGN C   4      22.034  50.844  97.0660  0.00  0.00     0.000 OA
ENDBRANCH 59 66
BRANCH 62 70
ATOM     70   C  SGN C   4      27.823  53.848  94.7260  0.00  0.00     0.000 C
ATOM     71   S  SGN C   4      29.823  53.367  96.2570  0.00  0.00     0.000 S
ATOM     72   O  SGN C   4      30.636  53.101  95.0870  0.00  0.00     0.000 OA
ATOM     73   O  SGN C   4      29.834  54.759  96.6590  0.00  0.00     0.000 OA
ATOM     74   O  SGN C   4      30.055  52.444  97.3440  0.00  0.00     0.000 OA
ATOM     75   O  SGN C   4      28.336  53.048  95.7980  0.00  0.00     0.000 O
ENDBRANCH 62 70
ENDBRANCH 57 61
ENDBRANCH 41 57
ENDBRANCH 40 44
ENDBRANCH 20 40
ENDBRANCH 19 23
ENDBRANCH 1 19
TORSDOF 14
ENDMDL
MODEL 43
REMARK VINA RESULT:      -0.7     83.379     88.014
ROOT
ATOM      1  C1  IDS C   1      69.512  71.485  74.0520  0.00  0.00     0.000 C
ATOM      2  C2  IDS C   1      68.389  72.506  74.0230  0.00  0.00     0.000 C
ATOM      3  C3  IDS C   1      68.359  73.314  75.3140  0.00  0.00     0.000 C
ATOM      4  C4  IDS C   1      69.738  73.890  75.6380  0.00  0.00     0.000 C
ATOM      5  C5  IDS C   1      70.811  72.786  75.5470  0.00  0.00     0.000 C
ATOM      6  O5  IDS C   1      70.758  72.143  74.2770  0.00  0.00     0.000 O
ATOM      7   O  IDS C   1      67.899  72.486  76.3830  0.00  0.00     0.000 O
ATOM      9  HD  IDS C   1      68.383  73.056  76.8200  0.00  0.00     0.000 HD
ATOM      9   O  IDS C   1      70.042  74.930  74.6960  0.00  0.00     0.000 O
ATOM     11  HD  IDS C   1      70.526  75.500  75.1320  0.00  0.00     0.000 HD
ENDROOT
BRANCH 2 11
ATOM     11   O  IDS C   1      68.590  73.455  72.9040  0.00  0.00     0.000 O
ATOM     12   S  IDS C   1      67.480  73.617  71.7660  0.00  0.00     0.000 S
ATOM     13   O  IDS C   1      67.580  75.023  71.4400  0.00  0.00     0.000 OA
ATOM     14   O  IDS C   1      66.190  73.253  72.3000  0.00  0.00     0.000 OA
ATOM     15   O  IDS C   1      67.920  72.749  70.7030  0.00  0.00     0.000 OA
ENDBRANCH 2 11
BRANCH 5 16
ATOM     16   C  IDS C   1      72.224  73.306  75.7430  0.00  0.00     0.000 C
ATOM     17   O  IDS C   1      72.381  74.387  76.2710  0.00  0.00     0.000 OA
ATOM     18   O  IDS C   1      73.171  72.671  75.3690  0.00  0.00     0.000 OA
ENDBRANCH 5 16
BRANCH 1 19
ATOM     19  O4  SGN C   2      69.330  70.339  74.7130  0.00  0.00     0.000 O
BRANCH 19 23
ATOM     20  C1  SGN C   2      70.018  66.221  74.6870  0.00  0.00     0.000 C
ATOM     21  C2  SGN C   2      71.225  67.115  74.9970  0.00  0.00     0.000 C
ATOM     22  C3  SGN C   2      70.745  68.509  75.3960  0.00  0.00     0.000 C
ATOM     23  C4  SGN C   2      69.875  69.089  74.2870  0.00  0.00     0.000 C
ATOM     24  C5  SGN C   2      68.737  68.118  73.9580  0.00  0.00     0.000 C
ATOM     25  O5  SGN C   2      69.278  66.823  73.6370  0.00  0.00     0.000 O
ATOM     26   O  SGN C   2      71.854  69.357  75.6720  0.00  0.00     0.000 O
ATOM     28  HD  SGN C   2      72.576  69.784  75.8860  0.00  0.00     0.000 HD
BRANCH 21 30
ATOM     28   N  SGN C   2      71.798  65.948  75.6790  0.00  0.00     0.000 N
ATOM     30  HD  SGN C   2      72.152  66.068  76.4600  0.00  0.00     0.000 HD
ATOM     30   S  SGN C   2      73.356  65.602  75.5630  0.00  0.00     0.000 S
ATOM     31   O  SGN C   2      74.036  66.792  75.9490  0.00  0.00     0.000 OA
ATOM     32   O  SGN C   2      73.600  64.391  76.2560  0.00  0.00     0.000 OA
ATOM     33   O  SGN C   2      73.567  65.308  74.0390  0.00  0.00     0.000 OA
ENDBRANCH 21 30
BRANCH 24 34
ATOM     34   C  SGN C   2      67.906  68.539  72.7680  0.00  0.00     0.000 C
ATOM     35   O  SGN C   2      66.654  69.069  73.2380  0.00  0.00     0.000 O
ATOM     36   S  SGN C   2      65.454  69.132  72.1870  0.00  0.00     0.000 S
ATOM     37   O  SGN C   2      65.344  67.781  71.6710  0.00  0.00     0.000 OA
ATOM     38   O  SGN C   2      64.298  69.554  72.9410  0.00  0.00     0.000 OA
ATOM     39   O  SGN C   2      65.896  70.097  71.2100  0.00  0.00     0.000 OA
ENDBRANCH 24 34
BRANCH 20 40
ATOM     40  O4  IDS C   3      69.195  65.930  75.6910  0.00  0.00     0.000 O
BRANCH 40 44
ATOM     41  C1  IDS C   3      67.295  64.862  78.4630  0.00  0.00     0.000 C
ATOM     42  C2  IDS C   3      68.807  64.659  78.4050  0.00  0.00     0.000 C
ATOM     43  C3  IDS C   3      69.201  63.970  77.1010  0.00  0.00     0.000 C
ATOM     44  C4  IDS C   3      68.581  64.654  75.8930  0.00  0.00     0.000 C
ATOM     45  C5  IDS C   3      67.064  64.836  76.1130  0.00  0.00     0.000 C
ATOM     46  O5  IDS C   3      66.842  65.576  77.3150  0.00  0.00     0.000 O
ATOM     47   O  IDS C   3      68.796  62.604  77.1470  0.00  0.00     0.000 O
ATOM     49  HD  IDS C   3      69.317  63.258  77.3720  0.00  0.00     0.000 HD
BRANCH 42 49
ATOM     49   O  IDS C   3      69.499  65.966  78.4790  0.00  0.00     0.000 O
ATOM     50   S  IDS C   3      70.750  66.148  79.4630  0.00  0.00     0.000 S
ATOM     51   O  IDS C   3      71.796  65.385  78.8180  0.00  0.00     0.000 OA
ATOM     52   O  IDS C   3      70.410  65.628  80.7770  0.00  0.00     0.000 OA
ATOM     53   O  IDS C   3      71.028  67.568  79.4960  0.00  0.00     0.000 OA
ENDBRANCH 42 49
BRANCH 45 54
ATOM     54   C  IDS C   3      66.370  65.551  74.9650  0.00  0.00     0.000 C
ATOM     55   O  IDS C   3      65.728  66.546  75.1820  0.00  0.00     0.000 OA
ATOM     56   O  IDS C   3      66.451  65.106  73.8360  0.00  0.00     0.000 OA
ENDBRANCH 45 54
BRANCH 41 57
ATOM     57  O4  SGN C   4      66.755  63.687  78.8070  0.00  0.00     0.000 O
BRANCH 57 61
ATOM     58  C1  SGN C   4      63.013  62.172  79.9150  0.00  0.00     0.000 C
ATOM     59  C2  SGN C   4      63.141  62.718  78.4830  0.00  0.00     0.000 C
ATOM     60  C3  SGN C   4      64.614  62.852  78.0720  0.00  0.00     0.000 C
ATOM     61  C4  SGN C   4      65.355  63.685  79.1040  0.00  0.00     0.000 C
ATOM     62  C5  SGN C   4      65.160  63.103  80.5030  0.00  0.00     0.000 C
ATOM     63  O5  SGN C   4      63.758  62.983  80.8110  0.00  0.00     0.000 O
BRANCH 59 66
ATOM     64   N  SGN C   4      62.303  61.842  77.6590  0.00  0.00     0.000 N
ATOM     66  HD  SGN C   4      62.893  62.416  77.9270  0.00  0.00     0.000 HD
ATOM     66   O  SGN C   4      60.497  61.391  76.0880  0.00  0.00     0.000 OA
ATOM     67   O  SGN C   4      60.190  63.065  77.8610  0.00  0.00     0.000 OA
ATOM     68   S  SGN C   4      61.134  62.472  76.7580  0.00  0.00     0.000 S
ATOM     69   O  SGN C   4      61.681  63.538  75.9980  0.00  0.00     0.000 OA
ENDBRANCH 59 66
BRANCH 62 70
ATOM     70   C  SGN C   4      65.773  63.985  81.5610  0.00  0.00     0.000 C
ATOM     71   S  SGN C   4      65.994  66.419  82.3360  0.00  0.00     0.000 S
ATOM     72   O  SGN C   4      65.727  65.995  83.6970  0.00  0.00     0.000 OA
ATOM     73   O  SGN C   4      67.401  66.389  81.9920  0.00  0.00     0.000 OA
ATOM     74   O  SGN C   4      65.332  67.651  81.9750  0.00  0.00     0.000 OA
ATOM     75   O  SGN C   4      65.288  65.326  81.4250  0.00  0.00     0.000 O
ENDBRANCH 62 70
ENDBRANCH 57 61
ENDBRANCH 41 57
ENDBRANCH 40 44
ENDBRANCH 20 40
ENDBRANCH 19 23
ENDBRANCH 1 19
TORSDOF 14
ENDMDL
MODEL 44
REMARK VINA RESULT:      -0.7    118.588    123.109
ROOT
ATOM      1  C1  IDS C   1      61.400 103.089  96.6120  0.00  0.00     0.000 C
ATOM      2  C2  IDS C   1      62.567 102.427  95.9020  0.00  0.00     0.000 C
ATOM      3  C3  IDS C   1      63.873 103.142  96.2240  0.00  0.00     0.000 C
ATOM      4  C4  IDS C   1      64.054 103.308  97.7330  0.00  0.00     0.000 C
ATOM      5  C5  IDS C   1      62.776 103.900  98.3620  0.00  0.00     0.000 C
ATOM      6  O5  IDS C   1      61.641 103.113  98.0180  0.00  0.00     0.000 O
ATOM      7   O  IDS C   1      63.891 104.415  95.5760  0.00  0.00     0.000 O
ATOM      9  HD  IDS C   1      64.413 104.571  96.2500  0.00  0.00     0.000 HD
ATOM      9   O  IDS C   1      64.319 102.022  98.3150  0.00  0.00     0.000 O
ATOM     11  HD  IDS C   1      64.840 102.178  98.9890  0.00  0.00     0.000 HD
ENDROOT
BRANCH 2 11
ATOM     11   O  IDS C   1      62.704 101.021  96.3450  0.00  0.00     0.000 O
ATOM     12   S  IDS C   1      62.590  99.822  95.2940  0.00  0.00     0.000 S
ATOM     13   O  IDS C   1      63.529  98.859  95.8260  0.00  0.00     0.000 OA
ATOM     14   O  IDS C   1      62.955 100.299  93.9820  0.00  0.00     0.000 OA
ATOM     15   O  IDS C   1      61.217  99.393  95.3800  0.00  0.00     0.000 OA
ENDBRANCH 2 11
BRANCH 5 16
ATOM     16   C  IDS C   1      62.837 103.987  99.8760  0.00  0.00     0.000 C
ATOM     17   O  IDS C   1      63.923 104.030 100.4160  0.00  0.00     0.000 OA
ATOM     18   O  IDS C   1      61.833 103.996 100.5330  0.00  0.00     0.000 OA
ENDBRANCH 5 16
BRANCH 1 19
ATOM     19  O4  SGN C   2      60.869 104.199  96.0910  0.00  0.00     0.000 O
BRANCH 19 23
ATOM     20  C1  SGN C   2      57.329 106.294  95.3820  0.00  0.00     0.000 C
ATOM     21  C2  SGN C   2      57.855 106.307  96.8220  0.00  0.00     0.000 C
ATOM     22  C3  SGN C   2      59.326 105.896  96.8370  0.00  0.00     0.000 C
ATOM     23  C4  SGN C   2      59.482 104.527  96.1850  0.00  0.00     0.000 C
ATOM     24  C5  SGN C   2      58.863 104.545  94.7850  0.00  0.00     0.000 C
ATOM     25  O5  SGN C   2      57.495 104.985  94.8620  0.00  0.00     0.000 O
ATOM     26   O  SGN C   2      59.827 105.888  98.1690  0.00  0.00     0.000 O
ATOM     28  HD  SGN C   2      60.070 105.974  98.9960  0.00  0.00     0.000 HD
BRANCH 21 30
ATOM     28   N  SGN C   2      57.176 107.592  97.0350  0.00  0.00     0.000 N
ATOM     30  HD  SGN C   2      57.584 108.193  97.5060  0.00  0.00     0.000 HD
ATOM     30   S  SGN C   2      56.298 107.859  98.3450  0.00  0.00     0.000 S
ATOM     31   O  SGN C   2      57.157 107.558  99.4410  0.00  0.00     0.000 OA
ATOM     32   O  SGN C   2      55.710 109.142  98.2390  0.00  0.00     0.000 OA
ATOM     33   O  SGN C   2      55.136 106.812  98.2440  0.00  0.00     0.000 OA
ENDBRANCH 21 30
BRANCH 24 34
ATOM     34   C  SGN C   2      58.838 103.191  94.1150  0.00  0.00     0.000 C
ATOM     35   O  SGN C   2      59.825 103.169  93.0690  0.00  0.00     0.000 O
ATOM     36   S  SGN C   2      59.662 102.049  91.9420  0.00  0.00     0.000 S
ATOM     37   O  SGN C   2      58.310 102.219  91.4470  0.00  0.00     0.000 OA
ATOM     38   O  SGN C   2      60.675 102.340  90.9560  0.00  0.00     0.000 OA
ATOM     39   O  SGN C   2      59.876 100.810  92.6480  0.00  0.00     0.000 OA
ENDBRANCH 24 34
BRANCH 20 40
ATOM     40  O4  IDS C   3      57.848 107.173  94.5290  0.00  0.00     0.000 O
BRANCH 40 44
ATOM     41  C1  IDS C   3      58.960 109.797  92.4530  0.00  0.00     0.000 C
ATOM     42  C2  IDS C   3      58.331 110.070  93.8170  0.00  0.00     0.000 C
ATOM     43  C3  IDS C   3      56.990 109.351  93.9370  0.00  0.00     0.000 C
ATOM     44  C4  IDS C   3      57.099 107.886  93.5420  0.00  0.00     0.000 C
ATOM     45  C5  IDS C   3      57.796 107.763  92.1700  0.00  0.00     0.000 C
ATOM     46  O5  IDS C   3      59.076 108.395  92.2280  0.00  0.00     0.000 O
ATOM     47   O  IDS C   3      56.027 110.005  93.1150  0.00  0.00     0.000 O
ATOM     49  HD  IDS C   3      56.521 109.952  93.8240  0.00  0.00     0.000 HD
BRANCH 42 49
ATOM     49   O  IDS C   3      59.225 109.588  94.8950  0.00  0.00     0.000 O
ATOM     50   S  IDS C   3      59.552 110.542  96.1400  0.00  0.00     0.000 S
ATOM     51   O  IDS C   3      58.310 110.562  96.8810  0.00  0.00     0.000 OA
ATOM     52   O  IDS C   3      59.932 111.859  95.6530  0.00  0.00     0.000 OA
ATOM     53   O  IDS C   3      60.629 109.899  96.8620  0.00  0.00     0.000 OA
ENDBRANCH 42 49
BRANCH 45 54
ATOM     54   C  IDS C   3      57.981 106.323  91.7160  0.00  0.00     0.000 C
ATOM     55   O  IDS C   3      59.078 105.931  91.4120  0.00  0.00     0.000 OA
ATOM     56   O  IDS C   3      57.022 105.581  91.6460  0.00  0.00     0.000 OA
ENDBRANCH 45 54
BRANCH 41 57
ATOM     57  O4  SGN C   4      58.343 110.594  91.5720  0.00  0.00     0.000 O
BRANCH 57 61
ATOM     58  C1  SGN C   4      58.728 111.690  87.5490  0.00  0.00     0.000 C
ATOM     59  C2  SGN C   4      58.438 110.208  87.8370  0.00  0.00     0.000 C
ATOM     60  C3  SGN C   4      57.919 110.012  89.2690  0.00  0.00     0.000 C
ATOM     61  C4  SGN C   4      58.894 110.638  90.2520  0.00  0.00     0.000 C
ATOM     62  C5  SGN C   4      59.158 112.099  89.8880  0.00  0.00     0.000 C
ATOM     63  O5  SGN C   4      59.617 112.208  88.5280  0.00  0.00     0.000 O
BRANCH 59 66
ATOM     64   N  SGN C   4      57.580 109.793  86.7230  0.00  0.00     0.000 N
ATOM     66  HD  SGN C   4      57.977 109.848  87.4900  0.00  0.00     0.000 HD
ATOM     66   O  SGN C   4      56.942 108.331  84.8820  0.00  0.00     0.000 OA
ATOM     67   O  SGN C   4      59.311 108.872  85.2550  0.00  0.00     0.000 OA
ATOM     68   S  SGN C   4      57.936 108.468  85.8910  0.00  0.00     0.000 S
ATOM     69   O  SGN C   4      58.147 107.407  86.8090  0.00  0.00     0.000 OA
ENDBRANCH 59 66
BRANCH 62 70
ATOM     70   C  SGN C   4      60.223 112.705  90.7670  0.00  0.00     0.000 C
ATOM     71   S  SGN C   4      62.574 112.321  91.7120  0.00  0.00     0.000 S
ATOM     72   O  SGN C   4      62.917 113.689  91.3780  0.00  0.00     0.000 OA
ATOM     73   O  SGN C   4      62.006 112.178  93.0380  0.00  0.00     0.000 OA
ATOM     74   O  SGN C   4      63.629 111.375  91.4260  0.00  0.00     0.000 OA
ATOM     75   O  SGN C   4      61.425 111.930  90.6890  0.00  0.00     0.000 O
ENDBRANCH 62 70
ENDBRANCH 57 61
ENDBRANCH 41 57
ENDBRANCH 40 44
ENDBRANCH 20 40
ENDBRANCH 19 23
ENDBRANCH 1 19
TORSDOF 14
ENDMDL
MODEL 45
REMARK VINA RESULT:      -0.7     65.898     71.057
ROOT
ATOM      1  C1  IDS C   1      53.992  42.136  91.5380  0.00  0.00     0.000 C
ATOM      2  C2  IDS C   1      54.710  41.156  92.4490  0.00  0.00     0.000 C
ATOM      3  C3  IDS C   1      56.202  41.460  92.5020  0.00  0.00     0.000 C
ATOM      4  C4  IDS C   1      56.454  42.934  92.8230  0.00  0.00     0.000 C
ATOM      5  C5  IDS C   1      55.605  43.833  91.9020  0.00  0.00     0.000 C
ATOM      6  O5  IDS C   1      54.230  43.471  91.9810  0.00  0.00     0.000 O
ATOM      7   O  IDS C   1      56.804  41.110  91.2550  0.00  0.00     0.000 O
ATOM      9  HD  IDS C   1      57.345  41.730  91.5250  0.00  0.00     0.000 HD
ATOM      9   O  IDS C   1      56.096  43.181  94.1910  0.00  0.00     0.000 O
ATOM     11  HD  IDS C   1      56.637  43.801  94.4610  0.00  0.00     0.000 HD
ENDROOT
BRANCH 2 11
ATOM     11   O  IDS C   1      54.181  41.259  93.8280  0.00  0.00     0.000 O
ATOM     12   S  IDS C   1      53.359  40.052  94.4760  0.00  0.00     0.000 S
ATOM     13   O  IDS C   1      53.749  40.127  95.8670  0.00  0.00     0.000 OA
ATOM     14   O  IDS C   1      53.750  38.814  93.8470  0.00  0.00     0.000 OA
ATOM     15   O  IDS C   1      51.976  40.392  94.2500  0.00  0.00     0.000 OA
ENDBRANCH 2 11
BRANCH 5 16
ATOM     16   C  IDS C   1      55.714  45.309  92.2380  0.00  0.00     0.000 C
ATOM     17   O  IDS C   1      54.948  46.087  91.7100  0.00  0.00     0.000 OA
ATOM     18   O  IDS C   1      56.553  45.706  92.9990  0.00  0.00     0.000 OA
ENDBRANCH 5 16
BRANCH 1 19
ATOM     19  O4  SGN C   2      54.034  41.942  90.2170  0.00  0.00     0.000 O
BRANCH 19 23
ATOM     20  C1  SGN C   2      51.985  42.430  86.6130  0.00  0.00     0.000 C
ATOM     21  C2  SGN C   2      52.527  43.705  87.2700  0.00  0.00     0.000 C
ATOM     22  C3  SGN C   2      53.592  43.340  88.3010  0.00  0.00     0.000 C
ATOM     23  C4  SGN C   2      53.005  42.376  89.3250  0.00  0.00     0.000 C
ATOM     24  C5  SGN C   2      52.400  41.164  88.6110  0.00  0.00     0.000 C
ATOM     25  O5  SGN C   2      51.443  41.603  87.6300  0.00  0.00     0.000 O
ATOM     26   O  SGN C   2      54.096  44.512  88.9330  0.00  0.00     0.000 O
ATOM     28  HD  SGN C   2      54.395  45.273  89.2170  0.00  0.00     0.000 HD
BRANCH 21 30
ATOM     28   N  SGN C   2      52.759  44.416  86.0060  0.00  0.00     0.000 N
ATOM     30  HD  SGN C   2      53.373  45.027  85.9900  0.00  0.00     0.000 HD
ATOM     30   S  SGN C   2      52.045  45.814  85.6980  0.00  0.00     0.000 S
ATOM     31   O  SGN C   2      52.358  46.650  86.8070  0.00  0.00     0.000 OA
ATOM     32   O  SGN C   2      52.395  46.218  84.3870  0.00  0.00     0.000 OA
ATOM     33   O  SGN C   2      50.518  45.464  85.6760  0.00  0.00     0.000 OA
ENDBRANCH 21 30
BRANCH 24 34
ATOM     34   C  SGN C   2      51.663  40.222  89.5330  0.00  0.00     0.000 C
ATOM     35   O  SGN C   2      52.487  39.068  89.7790  0.00  0.00     0.000 O
ATOM     36   S  SGN C   2      51.754  37.756  90.3180  0.00  0.00     0.000 S
ATOM     37   O  SGN C   2      50.693  37.506  89.3620  0.00  0.00     0.000 OA
ATOM     38   O  SGN C   2      52.765  36.726  90.3350  0.00  0.00     0.000 OA
ATOM     39   O  SGN C   2      51.285  38.133  91.6290  0.00  0.00     0.000 OA
ENDBRANCH 24 34
BRANCH 20 40
ATOM     40  O4  IDS C   3      52.826  41.715  85.8690  0.00  0.00     0.000 O
BRANCH 40 44
ATOM     41  C1  IDS C   3      54.983  40.111  83.5880  0.00  0.00     0.000 C
ATOM     42  C2  IDS C   3      54.658  41.597  83.4690  0.00  0.00     0.000 C
ATOM     43  C3  IDS C   3      53.147  41.813  83.4780  0.00  0.00     0.000 C
ATOM     44  C4  IDS C   3      52.481  41.083  84.6340  0.00  0.00     0.000 C
ATOM     45  C5  IDS C   3      52.939  39.610  84.6580  0.00  0.00     0.000 C
ATOM     46  O5  IDS C   3      54.364  39.555  84.7460  0.00  0.00     0.000 O
ATOM     47   O  IDS C   3      52.598  41.367  82.2410  0.00  0.00     0.000 O
ATOM     49  HD  IDS C   3      53.038  41.934  82.7250  0.00  0.00     0.000 HD
BRANCH 42 49
ATOM     49   O  IDS C   3      55.250  42.341  84.6060  0.00  0.00     0.000 O
ATOM     50   S  IDS C   3      56.180  43.614  84.3230  0.00  0.00     0.000 S
ATOM     51   O  IDS C   3      55.242  44.619  83.8720  0.00  0.00     0.000 OA
ATOM     52   O  IDS C   3      57.166  43.277  83.3100  0.00  0.00     0.000 OA
ATOM     53   O  IDS C   3      56.795  43.947  85.5900  0.00  0.00     0.000 OA
ENDBRANCH 42 49
BRANCH 45 54
ATOM     54   C  IDS C   3      52.348  38.814  85.8110  0.00  0.00     0.000 C
ATOM     55   O  IDS C   3      53.079  38.264  86.5930  0.00  0.00     0.000 OA
ATOM     56   O  IDS C   3      51.141  38.722  85.9300  0.00  0.00     0.000 OA
ENDBRANCH 45 54
BRANCH 41 57
ATOM     57  O4  SGN C   4      54.801  39.572  82.3770  0.00  0.00     0.000 O
BRANCH 57 61
ATOM     58  C1  SGN C   4      55.525  35.935  80.4340  0.00  0.00     0.000 C
ATOM     59  C2  SGN C   4      54.506  35.913  81.5840  0.00  0.00     0.000 C
ATOM     60  C3  SGN C   4      54.029  37.330  81.9290  0.00  0.00     0.000 C
ATOM     61  C4  SGN C   4      55.231  38.218  82.2050  0.00  0.00     0.000 C
ATOM     62  C5  SGN C   4      56.213  38.169  81.0350  0.00  0.00     0.000 C
ATOM     63  O5  SGN C   4      56.597  36.810  80.7530  0.00  0.00     0.000 O
BRANCH 59 66
ATOM     64   N  SGN C   4      53.504  34.932  81.1560  0.00  0.00     0.000 N
ATOM     66  HD  SGN C   4      53.909  35.590  81.5470  0.00  0.00     0.000 HD
ATOM     66   O  SGN C   4      52.110  32.957  81.4590  0.00  0.00     0.000 OA
ATOM     67   O  SGN C   4      54.430  32.957  82.2710  0.00  0.00     0.000 OA
ATOM     68   S  SGN C   4      53.079  33.742  82.1450  0.00  0.00     0.000 S
ATOM     69   O  SGN C   4      52.753  34.304  83.4070  0.00  0.00     0.000 OA
ENDBRANCH 59 66
BRANCH 62 70
ATOM     70   C  SGN C   4      57.476  38.935  81.3390  0.00  0.00     0.000 C
ATOM     71   S  SGN C   4      59.409  39.133  83.0110  0.00  0.00     0.000 S
ATOM     72   O  SGN C   4      60.340  39.214  81.9030  0.00  0.00     0.000 OA
ATOM     73   O  SGN C   4      58.900  40.424  83.4290  0.00  0.00     0.000 OA
ATOM     74   O  SGN C   4      59.880  38.311  84.1020  0.00  0.00     0.000 OA
ATOM     75   O  SGN C   4      58.166  38.327  82.4380  0.00  0.00     0.000 O
ENDBRANCH 62 70
ENDBRANCH 57 61
ENDBRANCH 41 57
ENDBRANCH 40 44
ENDBRANCH 20 40
ENDBRANCH 19 23
ENDBRANCH 1 19
TORSDOF 14
ENDMDL
MODEL 46
REMARK VINA RESULT:      -0.7     66.017     70.374
ROOT
ATOM      1  C1  IDS C   1      27.113  69.741  53.9480  0.00  0.00     0.000 C
ATOM      2  C2  IDS C   1      26.563  70.879  53.1070  0.00  0.00     0.000 C
ATOM      3  C3  IDS C   1      27.625  71.406  52.1500  0.00  0.00     0.000 C
ATOM      4  C4  IDS C   1      28.260  70.269  51.3500  0.00  0.00     0.000 C
ATOM      5  C5  IDS C   1      28.696  69.130  52.2940  0.00  0.00     0.000 C
ATOM      6  O5  IDS C   1      27.601  68.704  53.0980  0.00  0.00     0.000 O
ATOM      7   O  IDS C   1      28.622  72.115  52.8890  0.00  0.00     0.000 O
ATOM      9  HD  IDS C   1      29.084  71.856  52.2040  0.00  0.00     0.000 HD
ATOM      9   O  IDS C   1      27.299  69.767  50.4090  0.00  0.00     0.000 O
ATOM     11  HD  IDS C   1      27.761  69.508  49.7240  0.00  0.00     0.000 HD
ENDROOT
BRANCH 2 11
ATOM     11   O  IDS C   1      25.420  70.408  52.2940  0.00  0.00     0.000 O
ATOM     12   S  IDS C   1      23.976  71.073  52.4580  0.00  0.00     0.000 S
ATOM     13   O  IDS C   1      23.457  71.014  51.1090  0.00  0.00     0.000 OA
ATOM     14   O  IDS C   1      24.124  72.423  52.9460  0.00  0.00     0.000 OA
ATOM     15   O  IDS C   1      23.281  70.209  53.3790  0.00  0.00     0.000 OA
ENDBRANCH 2 11
BRANCH 5 16
ATOM     16   C  IDS C   1      29.231  67.914  51.5600  0.00  0.00     0.000 C
ATOM     17   O  IDS C   1      29.680  68.057  50.4420  0.00  0.00     0.000 OA
ATOM     18   O  IDS C   1      29.198  66.826  52.0660  0.00  0.00     0.000 OA
ENDBRANCH 5 16
BRANCH 1 19
ATOM     19  O4  SGN C   2      27.868  70.027  55.0130  0.00  0.00     0.000 O
BRANCH 19 23
ATOM     20  C1  SGN C   2      28.795  68.963  58.9420  0.00  0.00     0.000 C
ATOM     21  C2  SGN C   2      29.309  68.029  57.8400  0.00  0.00     0.000 C
ATOM     22  C3  SGN C   2      29.280  68.751  56.4960  0.00  0.00     0.000 C
ATOM     23  C4  SGN C   2      27.867  69.247  56.2100  0.00  0.00     0.000 C
ATOM     24  C5  SGN C   2      27.370  70.102  57.3790  0.00  0.00     0.000 C
ATOM     25  O5  SGN C   2      27.475  69.359  58.6070  0.00  0.00     0.000 O
ATOM     26   O  SGN C   2      29.740  67.893  55.4590  0.00  0.00     0.000 O
ATOM     28  HD  SGN C   2      30.094  67.333  54.9010  0.00  0.00     0.000 HD
BRANCH 21 30
ATOM     28   N  SGN C   2      30.520  67.613  58.5590  0.00  0.00     0.000 N
ATOM     30  HD  SGN C   2      31.198  67.346  58.0900  0.00  0.00     0.000 HD
ATOM     30   S  SGN C   2      30.785  66.076  58.9190  0.00  0.00     0.000 S
ATOM     31   O  SGN C   2      30.668  65.375  57.6860  0.00  0.00     0.000 OA
ATOM     32   O  SGN C   2      31.981  65.991  59.6710  0.00  0.00     0.000 OA
ATOM     33   O  SGN C   2      29.609  65.705  59.8860  0.00  0.00     0.000 OA
ENDBRANCH 21 30
BRANCH 24 34
ATOM     34   C  SGN C   2      25.923  70.518  57.2550  0.00  0.00     0.000 C
ATOM     35   O  SGN C   2      25.866  71.914  56.9100  0.00  0.00     0.000 O
ATOM     36   S  SGN C   2      24.489  72.673  57.1860  0.00  0.00     0.000 S
ATOM     37   O  SGN C   2      24.202  72.419  58.5840  0.00  0.00     0.000 OA
ATOM     38   O  SGN C   2      24.747  74.063  56.8970  0.00  0.00     0.000 OA
ATOM     39   O  SGN C   2      23.560  72.052  56.2750  0.00  0.00     0.000 OA
ENDBRANCH 24 34
BRANCH 20 40
ATOM     40  O4  IDS C   3      29.519  70.045  59.2190  0.00  0.00     0.000 O
BRANCH 40 44
ATOM     41  C1  IDS C   3      31.623  72.709  60.1690  0.00  0.00     0.000 C
ATOM     42  C2  IDS C   3      32.129  71.270  60.1220  0.00  0.00     0.000 C
ATOM     43  C3  IDS C   3      31.204  70.355  60.9200  0.00  0.00     0.000 C
ATOM     44  C4  IDS C   3      29.746  70.555  60.5350  0.00  0.00     0.000 C
ATOM     45  C5  IDS C   3      29.391  72.056  60.5800  0.00  0.00     0.000 C
ATOM     46  O5  IDS C   3      30.272  72.779  59.7180  0.00  0.00     0.000 O
ATOM     47   O  IDS C   3      31.377  70.605  62.3120  0.00  0.00     0.000 O
ATOM     49  HD  IDS C   3      31.633  70.273  61.5540  0.00  0.00     0.000 HD
BRANCH 42 49
ATOM     49   O  IDS C   3      32.175  70.792  58.7200  0.00  0.00     0.000 O
ATOM     50   S  IDS C   3      33.470  70.012  58.1910  0.00  0.00     0.000 S
ATOM     51   O  IDS C   3      33.382  68.730  58.8540  0.00  0.00     0.000 OA
ATOM     52   O  IDS C   3      34.666  70.751  58.5620  0.00  0.00     0.000 OA
ATOM     53   O  IDS C   3      33.316  69.915  56.7540  0.00  0.00     0.000 OA
ENDBRANCH 42 49
BRANCH 45 54
ATOM     54   C  IDS C   3      27.957  72.348  60.1690  0.00  0.00     0.000 C
ATOM     55   O  IDS C   3      27.740  73.102  59.2550  0.00  0.00     0.000 OA
ATOM     56   O  IDS C   3      27.036  71.835  60.7740  0.00  0.00     0.000 OA
ENDBRANCH 45 54
BRANCH 41 57
ATOM     57  O4  SGN C   4      31.986  73.213  61.3550  0.00  0.00     0.000 O
BRANCH 57 61
ATOM     58  C1  SGN C   4      32.160  76.948  63.2400  0.00  0.00     0.000 C
ATOM     59  C2  SGN C   4      30.759  76.391  62.9360  0.00  0.00     0.000 C
ATOM     60  C3  SGN C   4      30.813  74.886  62.6380  0.00  0.00     0.000 C
ATOM     61  C4  SGN C   4      31.820  74.624  61.5310  0.00  0.00     0.000 C
ATOM     62  C5  SGN C   4      33.178  75.228  61.8860  0.00  0.00     0.000 C
ATOM     63  O5  SGN C   4      33.047  76.633  62.1760  0.00  0.00     0.000 O
BRANCH 59 66
ATOM     64   N  SGN C   4      29.941  76.840  64.0670  0.00  0.00     0.000 N
ATOM     66  HD  SGN C   4      30.246  76.407  63.3820  0.00  0.00     0.000 HD
ATOM     66   O  SGN C   4      28.001  77.922  65.0670  0.00  0.00     0.000 OA
ATOM     67   O  SGN C   4      29.071  78.909  63.0860  0.00  0.00     0.000 OA
ATOM     68   S  SGN C   4      28.558  77.608  63.7950  0.00  0.00     0.000 S
ATOM     69   O  SGN C   4      27.798  76.848  62.8700  0.00  0.00     0.000 OA
ENDBRANCH 59 66
BRANCH 62 70
ATOM     70   C  SGN C   4      34.157  75.099  60.7470  0.00  0.00     0.000 C
ATOM     71   S  SGN C   4      34.430  75.435  58.2200  0.00  0.00     0.000 S
ATOM     72   O  SGN C   4      35.711  76.072  58.4580  0.00  0.00     0.000 OA
ATOM     73   O  SGN C   4      34.527  73.999  58.0520  0.00  0.00     0.000 OA
ATOM     74   O  SGN C   4      33.639  76.089  57.2040  0.00  0.00     0.000 OA
ATOM     75   O  SGN C   4      33.605  75.673  59.5560  0.00  0.00     0.000 O
ENDBRANCH 62 70
ENDBRANCH 57 61
ENDBRANCH 41 57
ENDBRANCH 40 44
ENDBRANCH 20 40
ENDBRANCH 19 23
ENDBRANCH 1 19
TORSDOF 14
ENDMDL
MODEL 47
REMARK VINA RESULT:      -0.7    143.042    147.351
ROOT
ATOM      1  C1  IDS C   1     109.170  88.541 112.2070  0.00  0.00     0.000 C
ATOM      2  C2  IDS C   1     109.903  87.408 111.5120  0.00  0.00     0.000 C
ATOM      3  C3  IDS C   1     110.843  86.698 112.4790  0.00  0.00     0.000 C
ATOM      4  C4  IDS C   1     110.115  86.297 113.7620  0.00  0.00     0.000 C
ATOM      5  C5  IDS C   1     109.330  87.497 114.3280  0.00  0.00     0.000 C
ATOM      6  O5  IDS C   1     108.461  88.036 113.3370  0.00  0.00     0.000 O
ATOM      7   O  IDS C   1     111.950  87.550 112.7790  0.00  0.00     0.000 O
ATOM      9  HD  IDS C   1     111.921  87.067 113.4970  0.00  0.00     0.000 HD
ATOM      9   O  IDS C   1     109.202  85.228 113.4650  0.00  0.00     0.000 O
ATOM     11  HD  IDS C   1     109.173  84.746 114.1840  0.00  0.00     0.000 HD
ENDROOT
BRANCH 2 11
ATOM     11   O  IDS C   1     108.937  86.407 111.0090  0.00  0.00     0.000 O
ATOM     12   S  IDS C   1     108.898  86.020 109.4580  0.00  0.00     0.000 S
ATOM     13   O  IDS C   1     108.553  84.617 109.5010  0.00  0.00     0.000 OA
ATOM     14   O  IDS C   1     110.194  86.265 108.8720  0.00  0.00     0.000 OA
ATOM     15   O  IDS C   1     107.859  86.851 108.9030  0.00  0.00     0.000 OA
ENDBRANCH 2 11
BRANCH 5 16
ATOM     16   C  IDS C   1     108.487  87.145 115.5400  0.00  0.00     0.000 C
ATOM     17   O  IDS C   1     107.543  87.853 115.8220  0.00  0.00     0.000 OA
ATOM     18   O  IDS C   1     108.755  86.193 116.2200  0.00  0.00     0.000 OA
ENDBRANCH 5 16
BRANCH 1 19
ATOM     19  O4  SGN C   2     109.797  89.708 112.3850  0.00  0.00     0.000 O
BRANCH 19 23
ATOM     20  C1  SGN C   2     109.396  93.862 112.2910  0.00  0.00     0.000 C
ATOM     21  C2  SGN C   2     108.753  93.138 113.4800  0.00  0.00     0.000 C
ATOM     22  C3  SGN C   2     109.340  91.735 113.6090  0.00  0.00     0.000 C
ATOM     23  C4  SGN C   2     109.142  90.974 112.3030  0.00  0.00     0.000 C
ATOM     24  C5  SGN C   2     109.724  91.780 111.1390  0.00  0.00     0.000 C
ATOM     25  O5  SGN C   2     109.148  93.099 111.1210  0.00  0.00     0.000 O
ATOM     26   O  SGN C   2     108.742  91.043 114.6990  0.00  0.00     0.000 O
ATOM     28  HD  SGN C   2     108.381  90.720 115.4170  0.00  0.00     0.000 HD
BRANCH 21 30
ATOM     28   N  SGN C   2     108.868  94.414 114.1990  0.00  0.00     0.000 N
ATOM     30  HD  SGN C   2     109.177  94.398 115.0080  0.00  0.00     0.000 HD
ATOM     30   S  SGN C   2     107.705  94.925 115.1720  0.00  0.00     0.000 S
ATOM     31   O  SGN C   2     107.480  93.855 116.0840  0.00  0.00     0.000 OA
ATOM     32   O  SGN C   2     108.058  96.207 115.6590  0.00  0.00     0.000 OA
ATOM     33   O  SGN C   2     106.473  95.119 114.2230  0.00  0.00     0.000 OA
ENDBRANCH 21 30
BRANCH 24 34
ATOM     34   C  SGN C   2     109.445  91.175 109.7830  0.00  0.00     0.000 C
ATOM     35   O  SGN C   2     110.650  90.569 109.2840  0.00  0.00     0.000 O
ATOM     36   S  SGN C   2     110.728  90.295 107.7130  0.00  0.00     0.000 S
ATOM     37   O  SGN C   2     110.439  91.577 107.1010  0.00  0.00     0.000 OA
ATOM     38   O  SGN C   2     112.071  89.831 107.4650  0.00  0.00     0.000 OA
ATOM     39   O  SGN C   2     109.715  89.295 107.4830  0.00  0.00     0.000 OA
ENDBRANCH 24 34
BRANCH 20 40
ATOM     40  O4  IDS C   3     110.697  94.135 112.3670  0.00  0.00     0.000 O
BRANCH 40 44
ATOM     41  C1  IDS C   3     114.027  95.197 112.8240  0.00  0.00     0.000 C
ATOM     42  C2  IDS C   3     112.932  95.553 113.8250  0.00  0.00     0.000 C
ATOM     43  C3  IDS C   3     111.740  96.182 113.1070  0.00  0.00     0.000 C
ATOM     44  C4  IDS C   3     111.298  95.350 111.9140  0.00  0.00     0.000 C
ATOM     45  C5  IDS C   3     112.514  95.027 111.0200  0.00  0.00     0.000 C
ATOM     46  O5  IDS C   3     113.510  94.357 111.7950  0.00  0.00     0.000 O
ATOM     47   O  IDS C   3     112.086  97.498 112.6810  0.00  0.00     0.000 O
ATOM     49  HD  IDS C   3     111.867  96.921 113.2890  0.00  0.00     0.000 HD
BRANCH 42 49
ATOM     49   O  IDS C   3     112.470  94.334 114.5300  0.00  0.00     0.000 O
ATOM     50   S  IDS C   3     112.294  94.358 116.1220  0.00  0.00     0.000 S
ATOM     51   O  IDS C   3     111.118  95.178 116.3150  0.00  0.00     0.000 OA
ATOM     52   O  IDS C   3     113.482  94.933 116.7320  0.00  0.00     0.000 OA
ATOM     53   O  IDS C   3     112.091  92.980 116.5200  0.00  0.00     0.000 OA
ENDBRANCH 42 49
BRANCH 45 54
ATOM     54   C  IDS C   3     112.165  94.161 109.8190  0.00  0.00     0.000 C
ATOM     55   O  IDS C   3     112.713  93.100 109.6700  0.00  0.00     0.000 OA
ATOM     56   O  IDS C   3     111.349  94.550 109.0070  0.00  0.00     0.000 OA
ENDBRANCH 45 54
BRANCH 41 57
ATOM     57  O4  SGN C   4     114.676  96.331 112.5350  0.00  0.00     0.000 O
BRANCH 57 61
ATOM     58  C1  SGN C   4     118.107  97.522 110.4510  0.00  0.00     0.000 C
ATOM     59  C2  SGN C   4     117.016  96.810 109.6360  0.00  0.00     0.000 C
ATOM     60  C3  SGN C   4     115.679  96.799 110.3900  0.00  0.00     0.000 C
ATOM     61  C4  SGN C   4     115.882  96.205 111.7740  0.00  0.00     0.000 C
ATOM     62  C5  SGN C   4     116.999  96.939 112.5140  0.00  0.00     0.000 C
ATOM     63  O5  SGN C   4     118.212  96.931 111.7390  0.00  0.00     0.000 O
BRANCH 59 66
ATOM     64   N  SGN C   4     117.004  97.460 108.3210  0.00  0.00     0.000 N
ATOM     66  HD  SGN C   4     116.795  96.990 109.0180  0.00  0.00     0.000 HD
ATOM     66   O  SGN C   4     117.207  97.484 105.8940  0.00  0.00     0.000 OA
ATOM     67   O  SGN C   4     118.749  96.123 107.2400  0.00  0.00     0.000 OA
ATOM     68   S  SGN C   4     117.272  96.590 106.9990  0.00  0.00     0.000 S
ATOM     69   O  SGN C   4     116.419  95.457 107.0290  0.00  0.00     0.000 OA
ENDBRANCH 59 66
BRANCH 62 70
ATOM     70   C  SGN C   4     117.311  96.284 113.8360  0.00  0.00     0.000 C
ATOM     71   S  SGN C   4     117.806  94.028 114.9480  0.00  0.00     0.000 S
ATOM     72   O  SGN C   4     118.899  94.643 115.6760  0.00  0.00     0.000 OA
ATOM     73   O  SGN C   4     116.538  94.107 115.6440  0.00  0.00     0.000 OA
ATOM     74   O  SGN C   4     118.115  92.709 114.4470  0.00  0.00     0.000 OA
ATOM     75   O  SGN C   4     117.649  94.907 113.6350  0.00  0.00     0.000 O
ENDBRANCH 62 70
ENDBRANCH 57 61
ENDBRANCH 41 57
ENDBRANCH 40 44
ENDBRANCH 20 40
ENDBRANCH 19 23
ENDBRANCH 1 19
TORSDOF 14
ENDMDL
MODEL 48
REMARK VINA RESULT:      -0.7     78.653     83.112
ROOT
ATOM      1  C1  IDS C   1      17.516  78.906  66.3580  0.00  0.00     0.000 C
ATOM      2  C2  IDS C   1      18.774  78.432  67.0630  0.00  0.00     0.000 C
ATOM      3  C3  IDS C   1      18.839  78.983  68.4830  0.00  0.00     0.000 C
ATOM      4  C4  IDS C   1      17.540  78.710  69.2410  0.00  0.00     0.000 C
ATOM      5  C5  IDS C   1      16.326  79.144  68.3930  0.00  0.00     0.000 C
ATOM      6  O5  IDS C   1      16.366  78.525  67.1120  0.00  0.00     0.000 O
ATOM      7   O  IDS C   1      19.106  80.386  68.4370  0.00  0.00     0.000 O
ATOM      9  HD  IDS C   1      18.683  80.328  69.1900  0.00  0.00     0.000 HD
ATOM      9   O  IDS C   1      17.448  77.304  69.5190  0.00  0.00     0.000 O
ATOM     11  HD  IDS C   1      17.025  77.247  70.2720  0.00  0.00     0.000 HD
ENDROOT
BRANCH 2 11
ATOM     11   O  IDS C   1      18.783  76.955  67.1540  0.00  0.00     0.000 O
ATOM     12   S  IDS C   1      19.949  76.104  66.4680  0.00  0.00     0.000 S
ATOM     13   O  IDS C   1      20.104  74.999  67.3880  0.00  0.00     0.000 OA
ATOM     14   O  IDS C   1      21.136  76.919  66.3610  0.00  0.00     0.000 OA
ATOM     15   O  IDS C   1      19.410  75.716  65.1890  0.00  0.00     0.000 OA
ENDBRANCH 2 11
BRANCH 5 16
ATOM     16   C  IDS C   1      14.994  78.798  69.0330  0.00  0.00     0.000 C
ATOM     17   O  IDS C   1      14.009  78.727  68.3290  0.00  0.00     0.000 OA
ATOM     18   O  IDS C   1      14.909  78.614  70.2160  0.00  0.00     0.000 OA
ENDBRANCH 5 16
BRANCH 1 19
ATOM     19  O4  SGN C   2      17.490  80.136  65.8350  0.00  0.00     0.000 O
BRANCH 19 23
ATOM     20  C1  SGN C   2      16.145  82.475  62.6500  0.00  0.00     0.000 C
ATOM     21  C2  SGN C   2      15.090  82.045  63.6770  0.00  0.00     0.000 C
ATOM     22  C3  SGN C   2      15.777  81.594  64.9630  0.00  0.00     0.000 C
ATOM     23  C4  SGN C   2      16.762  80.473  64.6530  0.00  0.00     0.000 C
ATOM     24  C5  SGN C   2      17.736  80.924  63.5610  0.00  0.00     0.000 C
ATOM     25  O5  SGN C   2      17.003  81.372  62.4070  0.00  0.00     0.000 O
ATOM     26   O  SGN C   2      14.813  81.176  65.9230  0.00  0.00     0.000 O
ATOM     28  HD  SGN C   2      14.163  81.006  66.4690  0.00  0.00     0.000 HD
BRANCH 21 30
ATOM     28   N  SGN C   2      14.307  83.228  63.2960  0.00  0.00     0.000 N
ATOM     30  HD  SGN C   2      13.923  83.681  63.9260  0.00  0.00     0.000 HD
ATOM     30   S  SGN C   2      12.727  83.136  63.0640  0.00  0.00     0.000 S
ATOM     31   O  SGN C   2      12.205  82.552  64.2530  0.00  0.00     0.000 OA
ATOM     32   O  SGN C   2      12.262  84.403  62.6360  0.00  0.00     0.000 OA
ATOM     33   O  SGN C   2      12.576  82.158  61.8490  0.00  0.00     0.000 OA
ENDBRANCH 21 30
BRANCH 24 34
ATOM     34   C  SGN C   2      18.659  79.829  63.0810  0.00  0.00     0.000 C
ATOM     35   O  SGN C   2      19.964  80.034  63.6500  0.00  0.00     0.000 O
ATOM     36   S  SGN C   2      21.191  79.306  62.9330  0.00  0.00     0.000 S
ATOM     37   O  SGN C   2      21.103  79.716  61.5450  0.00  0.00     0.000 OA
ATOM     38   O  SGN C   2      22.375  79.790  63.6010  0.00  0.00     0.000 OA
ATOM     39   O  SGN C   2      20.935  77.902  63.1450  0.00  0.00     0.000 OA
ENDBRANCH 24 34
BRANCH 20 40
ATOM     40  O4  IDS C   3      16.880  83.547  62.9360  0.00  0.00     0.000 O
BRANCH 40 44
ATOM     41  C1  IDS C   3      18.545  86.591  63.5580  0.00  0.00     0.000 C
ATOM     42  C2  IDS C   3      17.022  86.499  63.5670  0.00  0.00     0.000 C
ATOM     43  C3  IDS C   3      16.522  85.843  62.2820  0.00  0.00     0.000 C
ATOM     44  C4  IDS C   3      17.261  84.547  61.9870  0.00  0.00     0.000 C
ATOM     45  C5  IDS C   3      18.784  84.782  62.0610  0.00  0.00     0.000 C
ATOM     46  O5  IDS C   3      19.124  85.306  63.3460  0.00  0.00     0.000 O
ATOM     47   O  IDS C   3      16.682  86.751  61.1950  0.00  0.00     0.000 O
ATOM     49  HD  IDS C   3      16.282  86.474  61.9110  0.00  0.00     0.000 HD
BRANCH 42 49
ATOM     49   O  IDS C   3      16.568  85.687  64.7200  0.00  0.00     0.000 O
ATOM     50   S  IDS C   3      15.343  86.199  65.6170  0.00  0.00     0.000 S
ATOM     51   O  IDS C   3      14.197  86.010  64.7550  0.00  0.00     0.000 OA
ATOM     52   O  IDS C   3      15.552  87.594  65.9700  0.00  0.00     0.000 OA
ATOM     53   O  IDS C   3      15.319  85.341  66.7830  0.00  0.00     0.000 OA
ENDBRANCH 42 49
BRANCH 45 54
ATOM     54   C  IDS C   3      19.600  83.522  61.8160  0.00  0.00     0.000 C
ATOM     55   O  IDS C   3      20.421  83.176  62.6260  0.00  0.00     0.000 OA
ATOM     56   O  IDS C   3      19.433  82.879  60.7980  0.00  0.00     0.000 OA
ENDBRANCH 45 54
BRANCH 41 57
ATOM     57  O4  SGN C   4      18.870  87.635  62.7840  0.00  0.00     0.000 O
BRANCH 57 61
ATOM     58  C1  SGN C   4      22.219  90.028  62.0220  0.00  0.00     0.000 C
ATOM     59  C2  SGN C   4      22.253  88.595  61.4680  0.00  0.00     0.000 C
ATOM     60  C3  SGN C   4      20.849  87.975  61.4480  0.00  0.00     0.000 C
ATOM     61  C4  SGN C   4      20.231  88.072  62.8330  0.00  0.00     0.000 C
ATOM     62  C5  SGN C   4      20.257  89.516  63.3310  0.00  0.00     0.000 C
ATOM     63  O5  SGN C   4      21.599  90.039  63.3000  0.00  0.00     0.000 O
BRANCH 59 66
ATOM     64   N  SGN C   4      22.995  88.744  60.2120  0.00  0.00     0.000 N
ATOM     66  HD  SGN C   4      22.459  88.466  60.8320  0.00  0.00     0.000 HD
ATOM     66   O  SGN C   4      24.706  88.115  58.5960  0.00  0.00     0.000 OA
ATOM     67   O  SGN C   4      25.198  88.021  61.0030  0.00  0.00     0.000 OA
ATOM     68   S  SGN C   4      24.174  87.716  59.8550  0.00  0.00     0.000 S
ATOM     69   O  SGN C   4      23.681  86.396  60.0160  0.00  0.00     0.000 OA
ENDBRANCH 59 66
BRANCH 62 70
ATOM     70   C  SGN C   4      19.773  89.619  64.7560  0.00  0.00     0.000 C
ATOM     71   S  SGN C   4      20.056  88.625  67.1020  0.00  0.00     0.000 S
ATOM     72   O  SGN C   4      20.094  89.967  67.6500  0.00  0.00     0.000 OA
ATOM     73   O  SGN C   4      18.717  88.077  67.0180  0.00  0.00     0.000 OA
ATOM     74   O  SGN C   4      21.016  87.728  67.7020  0.00  0.00     0.000 OA
ATOM     75   O  SGN C   4      20.567  88.784  65.6070  0.00  0.00     0.000 O
ENDBRANCH 62 70
ENDBRANCH 57 61
ENDBRANCH 41 57
ENDBRANCH 40 44
ENDBRANCH 20 40
ENDBRANCH 19 23
ENDBRANCH 1 19
TORSDOF 14
ENDMDL
MODEL 49
REMARK VINA RESULT:      -0.7     47.241     52.455
ROOT
ATOM      1  C1  IDS C   1       6.513  29.231  79.9610  0.00  0.00     0.000 C
ATOM      2  C2  IDS C   1       7.538  28.277  80.5470  0.00  0.00     0.000 C
ATOM      3  C3  IDS C   1       8.085  28.813  81.8650  0.00  0.00     0.000 C
ATOM      4  C4  IDS C   1       6.952  29.197  82.8170  0.00  0.00     0.000 C
ATOM      5  C5  IDS C   1       5.924  30.087  82.0900  0.00  0.00     0.000 C
ATOM      6  O5  IDS C   1       5.464  29.451  80.9030  0.00  0.00     0.000 O
ATOM      7   O  IDS C   1       8.926  29.938  81.6090  0.00  0.00     0.000 O
ATOM      9  HD  IDS C   1       8.659  30.118  82.4130  0.00  0.00     0.000 HD
ATOM      9   O  IDS C   1       6.304  28.001  83.2780  0.00  0.00     0.000 O
ATOM     11  HD  IDS C   1       6.037  28.180  84.0820  0.00  0.00     0.000 HD
ENDROOT
BRANCH 2 11
ATOM     11   O  IDS C   1       6.915  26.962  80.8200  0.00  0.00     0.000 O
ATOM     12   S  IDS C   1       7.480  25.635  80.1320  0.00  0.00     0.000 S
ATOM     13   O  IDS C   1       7.270  24.642  81.1620  0.00  0.00     0.000 OA
ATOM     14   O  IDS C   1       8.874  25.822  79.8050  0.00  0.00     0.000 OA
ATOM     15   O  IDS C   1       6.646  25.445  78.9710  0.00  0.00     0.000 OA
ENDBRANCH 2 11
BRANCH 5 16
ATOM     16   C  IDS C   1       4.709  30.415  82.9390  0.00  0.00     0.000 C
ATOM     17   O  IDS C   1       3.687  30.766  82.3870  0.00  0.00     0.000 OA
ATOM     18   O  IDS C   1       4.758  30.347  84.1360  0.00  0.00     0.000 OA
ENDBRANCH 5 16
BRANCH 1 19
ATOM     19  O4  SGN C   2       6.936  30.310  79.2960  0.00  0.00     0.000 O
BRANCH 19 23
ATOM     20  C1  SGN C   2       6.267  32.777  75.9960  0.00  0.00     0.000 C
ATOM     21  C2  SGN C   2       5.316  32.952  77.1860  0.00  0.00     0.000 C
ATOM     22  C3  SGN C   2       5.931  32.327  78.4350  0.00  0.00     0.000 C
ATOM     23  C4  SGN C   2       6.251  30.860  78.1700  0.00  0.00     0.000 C
ATOM     24  C5  SGN C   2       7.131  30.737  76.9230  0.00  0.00     0.000 C
ATOM     25  O5  SGN C   2       6.494  31.390  75.8100  0.00  0.00     0.000 O
ATOM     26   O  SGN C   2       5.054  32.466  79.5460  0.00  0.00     0.000 O
ATOM     28  HD  SGN C   2       4.496  32.652  80.1820  0.00  0.00     0.000 HD
BRANCH 21 30
ATOM     28   N  SGN C   2       5.086  34.387  76.9750  0.00  0.00     0.000 N
ATOM     30  HD  SGN C   2       4.861  34.867  77.6600  0.00  0.00     0.000 HD
ATOM     30   S  SGN C   2       3.617  34.961  76.7040  0.00  0.00     0.000 S
ATOM     31   O  SGN C   2       2.820  34.479  77.7810  0.00  0.00     0.000 OA
ATOM     32   O  SGN C   2       3.715  36.353  76.4640  0.00  0.00     0.000 OA
ATOM     33   O  SGN C   2       3.191  34.292  75.3520  0.00  0.00     0.000 OA
ENDBRANCH 21 30
BRANCH 24 34
ATOM     34   C  SGN C   2       7.379  29.309  76.4940  0.00  0.00     0.000 C
ATOM     35   O  SGN C   2       8.750  28.972  76.7670  0.00  0.00     0.000 O
ATOM     36   S  SGN C   2       9.357  27.719  75.9850  0.00  0.00     0.000 S
ATOM     37   O  SGN C   2       9.106  28.000  74.5850  0.00  0.00     0.000 OA
ATOM     38   O  SGN C   2      10.760  27.692  76.3230  0.00  0.00     0.000 OA
ATOM     39   O  SGN C   2       8.614  26.594  76.4990  0.00  0.00     0.000 OA
ENDBRANCH 24 34
BRANCH 20 40
ATOM     40  O4  IDS C   3       7.438  33.409  76.0470  0.00  0.00     0.000 O
BRANCH 40 44
ATOM     41  C1  IDS C   3      10.310  35.453  76.0650  0.00  0.00     0.000 C
ATOM     42  C2  IDS C   3       8.911  36.040  76.2340  0.00  0.00     0.000 C
ATOM     43  C3  IDS C   3       7.996  35.563  75.1100  0.00  0.00     0.000 C
ATOM     44  C4  IDS C   3       8.061  34.054  74.9330  0.00  0.00     0.000 C
ATOM     45  C5  IDS C   3       9.532  33.600  74.8260  0.00  0.00     0.000 C
ATOM     46  O5  IDS C   3      10.249  34.032  75.9840  0.00  0.00     0.000 O
ATOM     47   O  IDS C   3       8.362  36.210  73.8940  0.00  0.00     0.000 O
ATOM     49  HD  IDS C   3       7.993  36.201  74.6770  0.00  0.00     0.000 HD
BRANCH 42 49
ATOM     49   O  IDS C   3       8.333  35.614  77.5300  0.00  0.00     0.000 O
ATOM     50   S  IDS C   3       7.735  36.713  78.5310  0.00  0.00     0.000 S
ATOM     51   O  IDS C   3       6.516  37.132  77.8770  0.00  0.00     0.000 OA
ATOM     52   O  IDS C   3       8.689  37.799  78.6820  0.00  0.00     0.000 OA
ATOM     53   O  IDS C   3       7.496  36.023  79.7810  0.00  0.00     0.000 OA
ENDBRANCH 42 49
BRANCH 45 54
ATOM     54   C  IDS C   3       9.690  32.094  74.6860  0.00  0.00     0.000 C
ATOM     55   O  IDS C   3       9.126  31.516  73.7930  0.00  0.00     0.000 OA
ATOM     56   O  IDS C   3      10.368  31.479  75.4850  0.00  0.00     0.000 OA
ENDBRANCH 45 54
BRANCH 41 57
ATOM     57  O4  SGN C   4      10.927  36.177  75.1230  0.00  0.00     0.000 O
BRANCH 57 61
ATOM     58  C1  SGN C   4      14.776  36.598  73.5300  0.00  0.00     0.000 C
ATOM     59  C2  SGN C   4      14.065  35.259  73.2750  0.00  0.00     0.000 C
ATOM     60  C3  SGN C   4      12.557  35.374  73.5350  0.00  0.00     0.000 C
ATOM     61  C4  SGN C   4      12.323  35.925  74.9320  0.00  0.00     0.000 C
ATOM     62  C5  SGN C   4      13.081  37.238  75.1240  0.00  0.00     0.000 C
ATOM     63  O5  SGN C   4      14.481  37.061  74.8400  0.00  0.00     0.000 O
BRANCH 59 66
ATOM     64   N  SGN C   4      14.504  34.868  71.9320  0.00  0.00     0.000 N
ATOM     66  HD  SGN C   4      14.059  34.947  72.6700  0.00  0.00     0.000 HD
ATOM     66   O  SGN C   4      15.452  33.322  70.3060  0.00  0.00     0.000 OA
ATOM     67   O  SGN C   4      16.409  33.465  72.5660  0.00  0.00     0.000 OA
ATOM     68   S  SGN C   4      15.113  33.404  71.6850  0.00  0.00     0.000 S
ATOM     69   O  SGN C   4      14.222  32.450  72.2410  0.00  0.00     0.000 OA
ENDBRANCH 59 66
BRANCH 62 70
ATOM     70   C  SGN C   4      12.974  37.736  76.5430  0.00  0.00     0.000 C
ATOM     71   S  SGN C   4      13.318  37.062  78.9920  0.00  0.00     0.000 S
ATOM     72   O  SGN C   4      13.984  38.326  79.2320  0.00  0.00     0.000 OA
ATOM     73   O  SGN C   4      11.884  37.120  79.1970  0.00  0.00     0.000 OA
ATOM     74   O  SGN C   4      13.954  35.940  79.6440  0.00  0.00     0.000 OA
ATOM     75   O  SGN C   4      13.536  36.776  77.4450  0.00  0.00     0.000 O
ENDBRANCH 62 70
ENDBRANCH 57 61
ENDBRANCH 41 57
ENDBRANCH 40 44
ENDBRANCH 20 40
ENDBRANCH 19 23
ENDBRANCH 1 19
TORSDOF 14
ENDMDL
MODEL 50
REMARK VINA RESULT:      -0.7     90.488     94.817
ROOT
ATOM      1  C1  IDS C   1      65.227  24.819 118.0210  0.00  0.00     0.000 C
ATOM      2  C2  IDS C   1      66.400  24.641 118.9700  0.00  0.00     0.000 C
ATOM      3  C3  IDS C   1      66.336  25.656 120.1040  0.00  0.00     0.000 C
ATOM      4  C4  IDS C   1      64.963  25.648 120.7760  0.00  0.00     0.000 C
ATOM      5  C5  IDS C   1      63.849  25.739 119.7150  0.00  0.00     0.000 C
ATOM      6  O5  IDS C   1      64.001  24.710 118.7430  0.00  0.00     0.000 O
ATOM      7   O  IDS C   1      66.637  26.957 119.5960  0.00  0.00     0.000 O
ATOM      9  HD  IDS C   1      66.140  27.162 120.2760  0.00  0.00     0.000 HD
ATOM      9   O  IDS C   1      64.815  24.428 121.5200  0.00  0.00     0.000 O
ATOM     11  HD  IDS C   1      64.319  24.633 122.1990  0.00  0.00     0.000 HD
ENDROOT
BRANCH 2 11
ATOM     11   O  IDS C   1      66.368  23.290 119.5730  0.00  0.00     0.000 O
ATOM     12   S  IDS C   1      67.589  22.279 119.3710  0.00  0.00     0.000 S
ATOM     13   O  IDS C   1      67.613  21.570 120.6310  0.00  0.00     0.000 OA
ATOM     14   O  IDS C   1      68.796  23.030 119.1230  0.00  0.00     0.000 OA
ATOM     15   O  IDS C   1      67.195  21.454 118.2550  0.00  0.00     0.000 OA
ENDBRANCH 2 11
BRANCH 5 16
ATOM     16   C  IDS C   1      62.453  25.620 120.2990  0.00  0.00     0.000 C
ATOM     17   O  IDS C   1      62.281  25.906 121.4650  0.00  0.00     0.000 OA
ATOM     18   O  IDS C   1      61.536  25.236 119.6270  0.00  0.00     0.000 OA
ENDBRANCH 5 16
BRANCH 1 19
ATOM     19  O4  SGN C   2      65.279  25.786 117.1000  0.00  0.00     0.000 O
BRANCH 19 23
ATOM     20  C1  SGN C   2      64.369  26.812 113.1580  0.00  0.00     0.000 C
ATOM     21  C2  SGN C   2      63.190  26.737 114.1350  0.00  0.00     0.000 C
ATOM     22  C3  SGN C   2      63.706  26.789 115.5710  0.00  0.00     0.000 C
ATOM     23  C4  SGN C   2      64.708  25.662 115.7970  0.00  0.00     0.000 C
ATOM     24  C5  SGN C   2      65.815  25.731 114.7420  0.00  0.00     0.000 C
ATOM     25  O5  SGN C   2      65.236  25.722 113.4250  0.00  0.00     0.000 O
ATOM     26   O  SGN C   2      62.626  26.705 116.4920  0.00  0.00     0.000 O
ATOM     28  HD  SGN C   2      61.911  26.718 116.9810  0.00  0.00     0.000 HD
BRANCH 21 30
ATOM     28   N  SGN C   2      62.518  27.553 113.1150  0.00  0.00     0.000 N
ATOM     30  HD  SGN C   2      62.178  28.310 113.3610  0.00  0.00     0.000 HD
ATOM     30   S  SGN C   2      60.935  27.468 112.8970  0.00  0.00     0.000 S
ATOM     31   O  SGN C   2      60.364  27.700 114.1810  0.00  0.00     0.000 OA
ATOM     32   O  SGN C   2      60.587  28.301 111.8070  0.00  0.00     0.000 OA
ATOM     33   O  SGN C   2      60.694  25.989 112.4380  0.00  0.00     0.000 OA
ENDBRANCH 21 30
BRANCH 24 34
ATOM     34   C  SGN C   2      66.776  24.567 114.7940  0.00  0.00     0.000 C
ATOM     35   O  SGN C   2      68.024  25.014 115.3530  0.00  0.00     0.000 O
ATOM     36   S  SGN C   2      69.310  24.111 115.0740  0.00  0.00     0.000 S
ATOM     37   O  SGN C   2      69.351  23.964 113.6320  0.00  0.00     0.000 OA
ATOM     38   O  SGN C   2      70.428  24.850 115.6080  0.00  0.00     0.000 OA
ATOM     39   O  SGN C   2      69.033  22.883 115.7790  0.00  0.00     0.000 OA
ENDBRANCH 24 34
BRANCH 20 40
ATOM     40  O4  IDS C   3      65.078  27.938 113.1330  0.00  0.00     0.000 O
BRANCH 40 44
ATOM     41  C1  IDS C   3      66.655  31.077 112.8300  0.00  0.00     0.000 C
ATOM     42  C2  IDS C   3      65.144  30.925 112.6790  0.00  0.00     0.000 C
ATOM     43  C3  IDS C   3      64.818  29.834 111.6620  0.00  0.00     0.000 C
ATOM     44  C4  IDS C   3      65.585  28.552 111.9460  0.00  0.00     0.000 C
ATOM     45  C5  IDS C   3      67.086  28.866 112.1230  0.00  0.00     0.000 C
ATOM     46  O5  IDS C   3      67.252  29.827 113.1670  0.00  0.00     0.000 O
ATOM     47   O  IDS C   3      65.125  30.303 110.3510  0.00  0.00     0.000 O
ATOM     49  HD  IDS C   3      64.632  30.281 111.0620  0.00  0.00     0.000 HD
BRANCH 42 49
ATOM     49   O  IDS C   3      64.536  30.556 113.9790  0.00  0.00     0.000 O
ATOM     50   S  IDS C   3      63.175  31.260 114.4470  0.00  0.00     0.000 S
ATOM     51   O  IDS C   3      62.181  30.679 113.5710  0.00  0.00     0.000 OA
ATOM     52   O  IDS C   3      63.293  32.699 114.2800  0.00  0.00     0.000 OA
ATOM     53   O  IDS C   3      62.991  30.887 115.8330  0.00  0.00     0.000 OA
ENDBRANCH 42 49
BRANCH 45 54
ATOM     54   C  IDS C   3      67.923  27.639 112.4510  0.00  0.00     0.000 C
ATOM     55   O  IDS C   3      67.916  26.695 111.7030  0.00  0.00     0.000 OA
ATOM     56   O  IDS C   3      68.581  27.609 113.4720  0.00  0.00     0.000 OA
ENDBRANCH 45 54
BRANCH 41 57
ATOM     57  O4  SGN C   4      67.083  31.791 111.7820  0.00  0.00     0.000 O
BRANCH 57 61
ATOM     58  C1  SGN C   4      70.548  33.813 110.5860  0.00  0.00     0.000 C
ATOM     59  C2  SGN C   4      70.656  32.287 110.7390  0.00  0.00     0.000 C
ATOM     60  C3  SGN C   4      69.268  31.634 110.7710  0.00  0.00     0.000 C
ATOM     61  C4  SGN C   4      68.423  32.290 111.8500  0.00  0.00     0.000 C
ATOM     62  C5  SGN C   4      68.384  33.804 111.6530  0.00  0.00     0.000 C
ATOM     63  O5  SGN C   4      69.718  34.344 111.6080  0.00  0.00     0.000 O
BRANCH 59 66
ATOM     64   N  SGN C   4      71.584  31.885 109.6760  0.00  0.00     0.000 N
ATOM     66  HD  SGN C   4      70.967  31.888 110.2840  0.00  0.00     0.000 HD
ATOM     66   O  SGN C   4      73.559  30.751 108.8130  0.00  0.00     0.000 OA
ATOM     67   O  SGN C   4      73.660  31.915 110.9750  0.00  0.00     0.000 OA
ATOM     68   S  SGN C   4      72.849  30.964 110.0280  0.00  0.00     0.000 S
ATOM     69   O  SGN C   4      72.396  29.847 110.7750  0.00  0.00     0.000 OA
ENDBRANCH 59 66
BRANCH 62 70
ATOM     70   C  SGN C   4      67.664  34.492 112.7860  0.00  0.00     0.000 C
ATOM     71   S  SGN C   4      67.521  34.647 115.3400  0.00  0.00     0.000 S
ATOM     72   O  SGN C   4      67.487  36.092 115.2370  0.00  0.00     0.000 OA
ATOM     73   O  SGN C   4      66.208  34.037 115.2930  0.00  0.00     0.000 OA
ATOM     74   O  SGN C   4      68.349  34.164 116.4230  0.00  0.00     0.000 OA
ATOM     75   O  SGN C   4      68.285  34.165 114.0340  0.00  0.00     0.000 O
ENDBRANCH 62 70
ENDBRANCH 57 61
ENDBRANCH 41 57
ENDBRANCH 40 44
ENDBRANCH 20 40
ENDBRANCH 19 23
ENDBRANCH 1 19
TORSDOF 14
ENDMDL
MODEL 51
REMARK VINA RESULT:      -0.7     83.279     86.884
ROOT
ATOM      1  C1  IDS C   1      86.352  45.097  71.3680  0.00  0.00     0.000 C
ATOM      2  C2  IDS C   1      85.133  45.217  72.2650  0.00  0.00     0.000 C
ATOM      3  C3  IDS C   1      85.312  46.346  73.2730  0.00  0.00     0.000 C
ATOM      4  C4  IDS C   1      85.726  47.644  72.5810  0.00  0.00     0.000 C
ATOM      5  C5  IDS C   1      86.909  47.386  71.6260  0.00  0.00     0.000 C
ATOM      6  O5  IDS C   1      86.593  46.341  70.7120  0.00  0.00     0.000 O
ATOM      7   O  IDS C   1      86.286  45.965  74.2460  0.00  0.00     0.000 O
ATOM      9  HD  IDS C   1      86.366  46.827  74.2690  0.00  0.00     0.000 HD
ATOM      9   O  IDS C   1      84.610  48.149  71.8300  0.00  0.00     0.000 O
ATOM     11  HD  IDS C   1      84.690  49.011  71.8530  0.00  0.00     0.000 HD
ENDROOT
BRANCH 2 11
ATOM     11   O  IDS C   1      83.932  45.523  71.4560  0.00  0.00     0.000 O
ATOM     12   S  IDS C   1      82.666  44.548  71.4790  0.00  0.00     0.000 S
ATOM     13   O  IDS C   1      81.564  45.475  71.3420  0.00  0.00     0.000 OA
ATOM     14   O  IDS C   1      82.642  43.824  72.7260  0.00  0.00     0.000 OA
ATOM     15   O  IDS C   1      82.844  43.695  70.3300  0.00  0.00     0.000 OA
ENDBRANCH 2 11
BRANCH 5 16
ATOM     16   C  IDS C   1      87.303  48.607  70.8150  0.00  0.00     0.000 C
ATOM     17   O  IDS C   1      87.926  48.449  69.7870  0.00  0.00     0.000 OA
ATOM     18   O  IDS C   1      87.019  49.711  71.1890  0.00  0.00     0.000 OA
ENDBRANCH 5 16
BRANCH 1 19
ATOM     19  O4  SGN C   2      87.434  44.459  71.8260  0.00  0.00     0.000 O
BRANCH 19 23
ATOM     20  C1  SGN C   2      90.580  41.905  70.8260  0.00  0.00     0.000 C
ATOM     21  C2  SGN C   2      90.692  43.353  70.3360  0.00  0.00     0.000 C
ATOM     22  C3  SGN C   2      89.731  44.240  71.1240  0.00  0.00     0.000 C
ATOM     23  C4  SGN C   2      88.311  43.701  70.9910  0.00  0.00     0.000 C
ATOM     24  C5  SGN C   2      88.273  42.228  71.4100  0.00  0.00     0.000 C
ATOM     25  O5  SGN C   2      89.239  41.480  70.6490  0.00  0.00     0.000 O
ATOM     26   O  SGN C   2      89.811  45.586  70.6710  0.00  0.00     0.000 O
ATOM     28  HD  SGN C   2      89.969  46.389  70.3860  0.00  0.00     0.000 HD
BRANCH 21 30
ATOM     28   N  SGN C   2      92.121  43.031  70.2190  0.00  0.00     0.000 N
ATOM     30  HD  SGN C   2      92.687  43.546  70.6240  0.00  0.00     0.000 HD
ATOM     30   S  SGN C   2      93.037  43.717  69.1010  0.00  0.00     0.000 S
ATOM     31   O  SGN C   2      92.852  45.119  69.2710  0.00  0.00     0.000 OA
ATOM     32   O  SGN C   2      94.336  43.160  69.1820  0.00  0.00     0.000 OA
ATOM     33   O  SGN C   2      92.413  43.232  67.7480  0.00  0.00     0.000 OA
ENDBRANCH 21 30
BRANCH 24 34
ATOM     34   C  SGN C   2      86.937  41.565  71.1730  0.00  0.00     0.000 C
ATOM     35   O  SGN C   2      86.237  41.464  72.4250  0.00  0.00     0.000 O
ATOM     36   S  SGN C   2      85.048  40.401  72.5080  0.00  0.00     0.000 S
ATOM     37   O  SGN C   2      85.643  39.149  72.0850  0.00  0.00     0.000 OA
ATOM     38   O  SGN C   2      84.624  40.399  73.8870  0.00  0.00     0.000 OA
ATOM     39   O  SGN C   2      84.056  40.916  71.5960  0.00  0.00     0.000 OA
ENDBRANCH 24 34
BRANCH 20 40
ATOM     40  O4  IDS C   3      90.961  41.646  72.0740  0.00  0.00     0.000 O
BRANCH 40 44
ATOM     41  C1  IDS C   3      92.368  40.964  75.2340  0.00  0.00     0.000 C
ATOM     42  C2  IDS C   3      93.167  41.663  74.1390  0.00  0.00     0.000 C
ATOM     43  C3  IDS C   3      93.110  40.859  72.8420  0.00  0.00     0.000 C
ATOM     44  C4  IDS C   3      91.683  40.480  72.4780  0.00  0.00     0.000 C
ATOM     45  C5  IDS C   3      90.985  39.830  73.6920  0.00  0.00     0.000 C
ATOM     46  O5  IDS C   3      91.030  40.727  74.8030  0.00  0.00     0.000 O
ATOM     47   O  IDS C   3      93.904  39.683  72.9790  0.00  0.00     0.000 O
ATOM     49  HD  IDS C   3      93.809  40.537  72.8690  0.00  0.00     0.000 HD
BRANCH 42 49
ATOM     49   O  IDS C   3      92.611  43.012  73.8840  0.00  0.00     0.000 O
ATOM     50   S  IDS C   3      93.601  44.260  73.7130  0.00  0.00     0.000 S
ATOM     51   O  IDS C   3      94.208  44.029  72.4210  0.00  0.00     0.000 OA
ATOM     52   O  IDS C   3      94.572  44.258  74.7940  0.00  0.00     0.000 OA
ATOM     53   O  IDS C   3      92.762  45.440  73.7380  0.00  0.00     0.000 OA
ENDBRANCH 42 49
BRANCH 45 54
ATOM     54   C  IDS C   3      89.536  39.456  73.4240  0.00  0.00     0.000 C
ATOM     55   O  IDS C   3      89.273  38.688  72.5350  0.00  0.00     0.000 OA
ATOM     56   O  IDS C   3      88.649  39.944  74.0970  0.00  0.00     0.000 OA
ENDBRANCH 45 54
BRANCH 41 57
ATOM     57  O4  SGN C   4      93.132  39.970  75.7030  0.00  0.00     0.000 O
BRANCH 57 61
ATOM     58  C1  SGN C   4      93.139  37.279  78.9100  0.00  0.00     0.000 C
ATOM     59  C2  SGN C   4      91.990  37.145  77.8980  0.00  0.00     0.000 C
ATOM     60  C3  SGN C   4      92.315  37.880  76.5900  0.00  0.00     0.000 C
ATOM     61  C4  SGN C   4      92.683  39.322  76.8970  0.00  0.00     0.000 C
ATOM     62  C5  SGN C   4      93.807  39.380  77.9300  0.00  0.00     0.000 C
ATOM     63  O5  SGN C   4      93.444  38.651  79.1170  0.00  0.00     0.000 O
BRANCH 59 66
ATOM     64   N  SGN C   4      91.737  35.702  77.8340  0.00  0.00     0.000 N
ATOM     66  HD  SGN C   4      91.779  36.547  77.6510  0.00  0.00     0.000 HD
ATOM     66   O  SGN C   4      90.314  33.726  77.9200  0.00  0.00     0.000 OA
ATOM     67   O  SGN C   4      89.947  35.573  79.5010  0.00  0.00     0.000 OA
ATOM     68   S  SGN C   4      90.244  35.144  78.0220  0.00  0.00     0.000 S
ATOM     69   O  SGN C   4      89.385  35.864  77.1520  0.00  0.00     0.000 OA
ENDBRANCH 59 66
BRANCH 62 70
ATOM     70   C  SGN C   4      94.100  40.798  78.3510  0.00  0.00     0.000 C
ATOM     71   S  SGN C   4      93.000  42.998  79.0740  0.00  0.00     0.000 S
ATOM     72   O  SGN C   4      93.970  43.115  80.1450  0.00  0.00     0.000 OA
ATOM     73   O  SGN C   4      93.437  43.610  77.8350  0.00  0.00     0.000 OA
ATOM     74   O  SGN C   4      91.659  43.369  79.4650  0.00  0.00     0.000 OA
ATOM     75   O  SGN C   4      92.896  41.440  78.7890  0.00  0.00     0.000 O
ENDBRANCH 62 70
ENDBRANCH 57 61
ENDBRANCH 41 57
ENDBRANCH 40 44
ENDBRANCH 20 40
ENDBRANCH 19 23
ENDBRANCH 1 19
TORSDOF 14
ENDMDL
MODEL 52
REMARK VINA RESULT:      -0.7     52.862     57.358
ROOT
ATOM      1  C1  IDS C   1      25.475  58.181   9.1050  0.00  0.00     0.000 C
ATOM      2  C2  IDS C   1      24.594  57.258   9.9280  0.00  0.00     0.000 C
ATOM      3  C3  IDS C   1      25.158  57.082  11.3320  0.00  0.00     0.000 C
ATOM      4  C4  IDS C   1      25.452  58.433  11.9830  0.00  0.00     0.000 C
ATOM      5  C5  IDS C   1      26.270  59.321  11.0240  0.00  0.00     0.000 C
ATOM      6  O5  IDS C   1      25.610  59.437   9.7670  0.00  0.00     0.000 O
ATOM      7   O  IDS C   1      26.344  56.287  11.2720  0.00  0.00     0.000 O
ATOM      9  HD  IDS C   1      26.498  56.750  11.9880  0.00  0.00     0.000 HD
ATOM      9   O  IDS C   1      24.208  59.083  12.2890  0.00  0.00     0.000 O
ATOM     11  HD  IDS C   1      24.362  59.546  13.0050  0.00  0.00     0.000 HD
ENDROOT
BRANCH 2 11
ATOM     11   O  IDS C   1      23.235  57.831  10.0580  0.00  0.00     0.000 O
ATOM     12   S  IDS C   1      21.959  57.029   9.5260  0.00  0.00     0.000 S
ATOM     13   O  IDS C   1      20.943  57.398  10.4860  0.00  0.00     0.000 OA
ATOM     14   O  IDS C   1      22.249  55.615   9.5270  0.00  0.00     0.000 OA
ATOM     15   O  IDS C   1      21.722  57.559   8.2060  0.00  0.00     0.000 OA
ENDBRANCH 2 11
BRANCH 5 16
ATOM     16   C  IDS C   1      26.502  60.723  11.5560  0.00  0.00     0.000 C
ATOM     17   O  IDS C   1      25.607  61.537  11.4680  0.00  0.00     0.000 OA
ATOM     18   O  IDS C   1      27.556  61.031  12.0400  0.00  0.00     0.000 OA
ENDBRANCH 5 16
BRANCH 1 19
ATOM     19  O4  SGN C   2      26.587  57.691   8.5490  0.00  0.00     0.000 O
BRANCH 19 23
ATOM     20  C1  SGN C   2      29.050  57.760   5.1800  0.00  0.00     0.000 C
ATOM     21  C2  SGN C   2      29.107  58.989   6.0950  0.00  0.00     0.000 C
ATOM     22  C3  SGN C   2      28.517  58.644   7.4590  0.00  0.00     0.000 C
ATOM     23  C4  SGN C   2      27.093  58.127   7.2860  0.00  0.00     0.000 C
ATOM     24  C5  SGN C   2      27.082  56.958   6.2970  0.00  0.00     0.000 C
ATOM     25  O5  SGN C   2      27.695  57.360   5.0590  0.00  0.00     0.000 O
ATOM     26   O  SGN C   2      28.547  59.779   8.3170  0.00  0.00     0.000 O
ATOM     28  HD  SGN C   2      28.665  60.492   8.7930  0.00  0.00     0.000 HD
BRANCH 21 30
ATOM     28   N  SGN C   2      30.465  59.232   5.5900  0.00  0.00     0.000 N
ATOM     30  HD  SGN C   2      31.074  59.465   6.1600  0.00  0.00     0.000 HD
ATOM     30   S  SGN C   2      30.954  60.704   5.2000  0.00  0.00     0.000 S
ATOM     31   O  SGN C   2      30.697  61.504   6.3500  0.00  0.00     0.000 OA
ATOM     32   O  SGN C   2      32.268  60.618   4.6780  0.00  0.00     0.000 OA
ATOM     33   O  SGN C   2      30.017  61.114   4.0140  0.00  0.00     0.000 OA
ENDBRANCH 21 30
BRANCH 24 34
ATOM     34   C  SGN C   2      25.694  56.473   5.9470  0.00  0.00     0.000 C
ATOM     35   O  SGN C   2      25.437  55.245   6.6520  0.00  0.00     0.000 O
ATOM     36   S  SGN C   2      24.263  54.320   6.0910  0.00  0.00     0.000 S
ATOM     37   O  SGN C   2      24.588  54.118   4.6930  0.00  0.00     0.000 OA
ATOM     38   O  SGN C   2      24.316  53.108   6.8740  0.00  0.00     0.000 OA
ATOM     39   O  SGN C   2      23.070  55.101   6.3080  0.00  0.00     0.000 OA
ENDBRANCH 24 34
BRANCH 20 40
ATOM     40  O4  IDS C   3      29.790  56.707   5.5180  0.00  0.00     0.000 O
BRANCH 40 44
ATOM     41  C1  IDS C   3      32.043  54.095   6.2440  0.00  0.00     0.000 C
ATOM     42  C2  IDS C   3      32.517  55.537   6.0850  0.00  0.00     0.000 C
ATOM     43  C3  IDS C   3      32.009  56.121   4.7690  0.00  0.00     0.000 C
ATOM     44  C4  IDS C   3      30.515  55.893   4.5930  0.00  0.00     0.000 C
ATOM     45  C5  IDS C   3      30.178  54.406   4.8310  0.00  0.00     0.000 C
ATOM     46  O5  IDS C   3      30.625  54.019   6.1320  0.00  0.00     0.000 O
ATOM     47   O  IDS C   3      32.721  55.532   3.6840  0.00  0.00     0.000 O
ATOM     49  HD  IDS C   3      32.658  56.073   4.3570  0.00  0.00     0.000 HD
BRANCH 42 49
ATOM     49   O  IDS C   3      32.007  56.367   7.2000  0.00  0.00     0.000 O
ATOM     50   S  IDS C   3      32.995  57.381   7.9510  0.00  0.00     0.000 S
ATOM     51   O  IDS C   3      33.200  58.430   6.9770  0.00  0.00     0.000 OA
ATOM     52   O  IDS C   3      34.227  56.690   8.2950  0.00  0.00     0.000 OA
ATOM     53   O  IDS C   3      32.281  57.835   9.1260  0.00  0.00     0.000 OA
ENDBRANCH 42 49
BRANCH 45 54
ATOM     54   C  IDS C   3      28.694  54.099   4.7120  0.00  0.00     0.000 C
ATOM     55   O  IDS C   3      28.122  53.560   5.6240  0.00  0.00     0.000 OA
ATOM     56   O  IDS C   3      28.095  54.382   3.6930  0.00  0.00     0.000 OA
ENDBRANCH 45 54
BRANCH 41 57
ATOM     57  O4  SGN C   4      32.842  53.334   5.4860  0.00  0.00     0.000 O
BRANCH 57 61
ATOM     58  C1  SGN C   4      33.586  49.266   4.8360  0.00  0.00     0.000 C
ATOM     59  C2  SGN C   4      32.199  49.788   4.4290  0.00  0.00     0.000 C
ATOM     60  C3  SGN C   4      32.191  51.320   4.3280  0.00  0.00     0.000 C
ATOM     61  C4  SGN C   4      32.703  51.917   5.6280  0.00  0.00     0.000 C
ATOM     62  C5  SGN C   4      34.069  51.332   5.9850  0.00  0.00     0.000 C
ATOM     63  O5  SGN C   4      34.007  49.894   6.0380  0.00  0.00     0.000 O
BRANCH 59 66
ATOM     64   N  SGN C   4      31.864  49.015   3.2280  0.00  0.00     0.000 N
ATOM     66  HD  SGN C   4      31.898  49.627   3.8400  0.00  0.00     0.000 HD
ATOM     66   O  SGN C   4      30.419  47.595   1.8760  0.00  0.00     0.000 OA
ATOM     67   O  SGN C   4      30.594  47.215   4.2990  0.00  0.00     0.000 OA
ATOM     68   S  SGN C   4      30.453  48.257   3.1360  0.00  0.00     0.000 S
ATOM     69   O  SGN C   4      29.427  49.180   3.4660  0.00  0.00     0.000 OA
ENDBRANCH 59 66
BRANCH 62 70
ATOM     70   C  SGN C   4      34.538  51.807   7.3380  0.00  0.00     0.000 C
ATOM     71   S  SGN C   4      33.788  52.186   9.7590  0.00  0.00     0.000 S
ATOM     72   O  SGN C   4      35.010  51.559  10.2210  0.00  0.00     0.000 OA
ATOM     73   O  SGN C   4      33.915  53.616   9.5620  0.00  0.00     0.000 OA
ATOM     74   O  SGN C   4      32.619  51.804  10.5190  0.00  0.00     0.000 OA
ATOM     75   O  SGN C   4      33.529  51.559   8.3230  0.00  0.00     0.000 O
ENDBRANCH 62 70
ENDBRANCH 57 61
ENDBRANCH 41 57
ENDBRANCH 40 44
ENDBRANCH 20 40
ENDBRANCH 19 23
ENDBRANCH 1 19
TORSDOF 14
ENDMDL
MODEL 53
REMARK VINA RESULT:      -0.7    114.928    118.398
ROOT
ATOM      1  C1  IDS C   1     117.055  27.450  98.2360  0.00  0.00     0.000 C
ATOM      2  C2  IDS C   1     116.650  27.228  96.7900  0.00  0.00     0.000 C
ATOM      3  C3  IDS C   1     117.853  27.364  95.8650  0.00  0.00     0.000 C
ATOM      4  C4  IDS C   1     119.018  26.497  96.3430  0.00  0.00     0.000 C
ATOM      5  C5  IDS C   1     119.280  26.735  97.8440  0.00  0.00     0.000 C
ATOM      6  O5  IDS C   1     118.088  26.533  98.5950  0.00  0.00     0.000 O
ATOM      7   O  IDS C   1     118.247  28.735  95.7940  0.00  0.00     0.000 O
ATOM      9  HD  IDS C   1     119.001  28.344  95.6240  0.00  0.00     0.000 HD
ATOM      9   O  IDS C   1     118.690  25.115  96.1300  0.00  0.00     0.000 O
ATOM     11  HD  IDS C   1     119.444  24.724  95.9610  0.00  0.00     0.000 HD
ENDROOT
BRANCH 2 11
ATOM     11   O  IDS C   1     116.102  25.864  96.6170  0.00  0.00     0.000 O
ATOM     12   S  IDS C   1     114.602  25.648  96.1110  0.00  0.00     0.000 S
ATOM     13   O  IDS C   1     114.715  24.444  95.3190  0.00  0.00     0.000 OA
ATOM     14   O  IDS C   1     114.188  26.795  95.3380  0.00  0.00     0.000 OA
ATOM     15   O  IDS C   1     113.834  25.471  97.3190  0.00  0.00     0.000 OA
ENDBRANCH 2 11
BRANCH 5 16
ATOM     16   C  IDS C   1     120.349  25.824  98.4180  0.00  0.00     0.000 C
ATOM     17   O  IDS C   1     121.454  26.278  98.6270  0.00  0.00     0.000 OA
ATOM     18   O  IDS C   1     120.115  24.669  98.6480  0.00  0.00     0.000 OA
ENDBRANCH 5 16
BRANCH 1 19
ATOM     19  O4  SGN C   2     117.203  28.700  98.6840  0.00  0.00     0.000 O
BRANCH 19 23
ATOM     20  C1  SGN C   2     116.640  31.266 101.9290  0.00  0.00     0.000 C
ATOM     21  C2  SGN C   2     117.793  30.261 102.0420  0.00  0.00     0.000 C
ATOM     22  C3  SGN C   2     118.143  29.719 100.6580  0.00  0.00     0.000 C
ATOM     23  C4  SGN C   2     116.904  29.097 100.0230  0.00  0.00     0.000 C
ATOM     24  C5  SGN C   2     115.759  30.113 100.0140  0.00  0.00     0.000 C
ATOM     25  O5  SGN C   2     115.530  30.602 101.3490  0.00  0.00     0.000 O
ATOM     26   O  SGN C   2     119.201  28.772 100.7470  0.00  0.00     0.000 O
ATOM     28  HD  SGN C   2     119.890  28.263 100.8790  0.00  0.00     0.000 HD
BRANCH 21 30
ATOM     28   N  SGN C   2     118.345  31.196 103.0310  0.00  0.00     0.000 N
ATOM     30  HD  SGN C   2     119.173  31.435 102.9470  0.00  0.00     0.000 HD
ATOM     30   S  SGN C   2     119.134  30.670 104.3200  0.00  0.00     0.000 S
ATOM     31   O  SGN C   2     120.156  29.817 103.8120  0.00  0.00     0.000 OA
ATOM     32   O  SGN C   2     119.478  31.784 105.1230  0.00  0.00     0.000 OA
ATOM     33   O  SGN C   2     118.063  29.847 105.1120  0.00  0.00     0.000 OA
ENDBRANCH 21 30
BRANCH 24 34
ATOM     34   C  SGN C   2     114.444  29.542  99.5380  0.00  0.00     0.000 C
ATOM     35   O  SGN C   2     114.193  30.001  98.1980  0.00  0.00     0.000 O
ATOM     36   S  SGN C   2     112.687  29.923  97.6750  0.00  0.00     0.000 S
ATOM     37   O  SGN C   2     111.912  30.632  98.6760  0.00  0.00     0.000 OA
ATOM     38   O  SGN C   2     112.688  30.571  96.3860  0.00  0.00     0.000 OA
ATOM     39   O  SGN C   2     112.411  28.509  97.6160  0.00  0.00     0.000 OA
ENDBRANCH 24 34
BRANCH 20 40
ATOM     40  O4  IDS C   3     116.872  32.395 101.2630  0.00  0.00     0.000 O
BRANCH 40 44
ATOM     41  C1  IDS C   3     117.626  35.520  99.8160  0.00  0.00     0.000 C
ATOM     42  C2  IDS C   3     118.453  34.953 100.9660  0.00  0.00     0.000 C
ATOM     43  C3  IDS C   3     117.544  34.548 102.1240  0.00  0.00     0.000 C
ATOM     44  C4  IDS C   3     116.386  33.682 101.6550  0.00  0.00     0.000 C
ATOM     45  C5  IDS C   3     115.676  34.355 100.4610  0.00  0.00     0.000 C
ATOM     46  O5  IDS C   3     116.622  34.590  99.4160  0.00  0.00     0.000 O
ATOM     47   O  IDS C   3     117.046  35.719 102.7660  0.00  0.00     0.000 O
ATOM     49  HD  IDS C   3     117.672  35.146 102.5920  0.00  0.00     0.000 HD
BRANCH 42 49
ATOM     49   O  IDS C   3     119.204  33.759 100.5130  0.00  0.00     0.000 O
ATOM     50   S  IDS C   3     120.732  33.569 100.9550  0.00  0.00     0.000 S
ATOM     51   O  IDS C   3     120.636  33.243 102.3610  0.00  0.00     0.000 OA
ATOM     52   O  IDS C   3     121.461  34.804 100.7170  0.00  0.00     0.000 OA
ATOM     53   O  IDS C   3     121.244  32.474 100.1570  0.00  0.00     0.000 OA
ENDBRANCH 42 49
BRANCH 45 54
ATOM     54   C  IDS C   3     114.526  33.533  99.9030  0.00  0.00     0.000 C
ATOM     55   O  IDS C   3     113.637  33.177 100.6330  0.00  0.00     0.000 OA
ATOM     56   O  IDS C   3     114.515  33.224  98.7270  0.00  0.00     0.000 OA
ENDBRANCH 45 54
BRANCH 41 57
ATOM     57  O4  SGN C   4     117.316  36.780 100.1410  0.00  0.00     0.000 O
BRANCH 57 61
ATOM     58  C1  SGN C   4     115.652  40.160  98.3120  0.00  0.00     0.000 C
ATOM     59  C2  SGN C   4     114.748  38.921  98.4290  0.00  0.00     0.000 C
ATOM     60  C3  SGN C   4     115.305  37.924  99.4540  0.00  0.00     0.000 C
ATOM     61  C4  SGN C   4     116.745  37.589  99.1060  0.00  0.00     0.000 C
ATOM     62  C5  SGN C   4     117.576  38.864  98.9780  0.00  0.00     0.000 C
ATOM     63  O5  SGN C   4     116.983  39.762  98.0200  0.00  0.00     0.000 O
BRANCH 59 66
ATOM     64   N  SGN C   4     113.410  39.476  98.6600  0.00  0.00     0.000 N
ATOM     66  HD  SGN C   4     114.099  38.952  98.6300  0.00  0.00     0.000 HD
ATOM     66   O  SGN C   4     111.030  39.704  98.1970  0.00  0.00     0.000 OA
ATOM     67   O  SGN C   4     112.628  39.516  96.3390  0.00  0.00     0.000 OA
ATOM     68   S  SGN C   4     112.180  38.996  97.7490  0.00  0.00     0.000 S
ATOM     69   O  SGN C   4     112.161  37.577  97.7330  0.00  0.00     0.000 OA
ENDBRANCH 59 66
BRANCH 62 70
ATOM     70   C  SGN C   4     118.977  38.568  98.5020  0.00  0.00     0.000 C
ATOM     71   S  SGN C   4     120.325  37.221  96.7880  0.00  0.00     0.000 S
ATOM     72   O  SGN C   4     121.124  38.399  96.5120  0.00  0.00     0.000 OA
ATOM     73   O  SGN C   4     120.855  36.407  97.8630  0.00  0.00     0.000 OA
ATOM     74   O  SGN C   4     119.977  36.469  95.6050  0.00  0.00     0.000 OA
ATOM     75   O  SGN C   4     118.933  37.787  97.3020  0.00  0.00     0.000 O
ENDBRANCH 62 70
ENDBRANCH 57 61
ENDBRANCH 41 57
ENDBRANCH 40 44
ENDBRANCH 20 40
ENDBRANCH 19 23
ENDBRANCH 1 19
TORSDOF 14
ENDMDL
MODEL 54
REMARK VINA RESULT:      -0.7     98.616    102.336
ROOT
ATOM      1  C1  IDS C   1      89.335  74.464  64.0970  0.00  0.00     0.000 C
ATOM      2  C2  IDS C   1      89.087  73.985  62.6770  0.00  0.00     0.000 C
ATOM      3  C3  IDS C   1      88.167  72.771  62.6690  0.00  0.00     0.000 C
ATOM      4  C4  IDS C   1      86.901  73.032  63.4860  0.00  0.00     0.000 C
ATOM      5  C5  IDS C   1      87.268  73.602  64.8710  0.00  0.00     0.000 C
ATOM      6  O5  IDS C   1      88.092  74.755  64.7330  0.00  0.00     0.000 O
ATOM      7   O  IDS C   1      88.869  71.638  63.1830  0.00  0.00     0.000 O
ATOM      9  HD  IDS C   1      88.053  71.423  63.3790  0.00  0.00     0.000 HD
ATOM      9   O  IDS C   1      86.080  73.978  62.7840  0.00  0.00     0.000 O
ATOM     11  HD  IDS C   1      85.264  73.763  62.9800  0.00  0.00     0.000 HD
ENDROOT
BRANCH 2 11
ATOM     11   O  IDS C   1      88.432  75.051  61.8860  0.00  0.00     0.000 O
ATOM     12   S  IDS C   1      89.136  75.643  60.5790  0.00  0.00     0.000 S
ATOM     13   O  IDS C   1      88.005  75.924  59.7230  0.00  0.00     0.000 OA
ATOM     14   O  IDS C   1      90.029  74.653  60.0270  0.00  0.00     0.000 OA
ATOM     15   O  IDS C   1      89.817  76.828  61.0390  0.00  0.00     0.000 OA
ENDBRANCH 2 11
BRANCH 5 16
ATOM     16   C  IDS C   1      86.058  73.995  65.6980  0.00  0.00     0.000 C
ATOM     17   O  IDS C   1      85.706  73.267  66.6020  0.00  0.00     0.000 OA
ATOM     18   O  IDS C   1      85.446  74.999  65.4550  0.00  0.00     0.000 OA
ENDBRANCH 5 16
BRANCH 1 19
ATOM     19  O4  SGN C   2      90.240  73.828  64.8470  0.00  0.00     0.000 O
BRANCH 19 23
ATOM     20  C1  SGN C   2      93.247  74.281  67.7070  0.00  0.00     0.000 C
ATOM     21  C2  SGN C   2      91.804  74.443  68.1990  0.00  0.00     0.000 C
ATOM     22  C3  SGN C   2      90.841  73.833  67.1830  0.00  0.00     0.000 C
ATOM     23  C4  SGN C   2      91.055  74.482  65.8210  0.00  0.00     0.000 C
ATOM     24  C5  SGN C   2      92.528  74.369  65.4170  0.00  0.00     0.000 C
ATOM     25  O5  SGN C   2      93.361  74.927  66.4490  0.00  0.00     0.000 O
ATOM     26   O  SGN C   2      89.495  73.989  67.6170  0.00  0.00     0.000 O
ATOM     28  HD  SGN C   2      88.714  74.063  67.9840  0.00  0.00     0.000 HD
BRANCH 21 30
ATOM     28   N  SGN C   2      92.272  74.050  69.5350  0.00  0.00     0.000 N
ATOM     30  HD  SGN C   2      91.778  73.506  69.9940  0.00  0.00     0.000 HD
ATOM     30   S  SGN C   2      91.784  74.827  70.8460  0.00  0.00     0.000 S
ATOM     31   O  SGN C   2      90.361  74.808  70.7880  0.00  0.00     0.000 OA
ATOM     32   O  SGN C   2      92.453  74.280  71.9670  0.00  0.00     0.000 OA
ATOM     33   O  SGN C   2      92.331  76.282  70.6510  0.00  0.00     0.000 OA
ENDBRANCH 21 30
BRANCH 24 34
ATOM     34   C  SGN C   2      92.868  75.113  64.1470  0.00  0.00     0.000 C
ATOM     35   O  SGN C   2      93.018  74.165  63.0760  0.00  0.00     0.000 O
ATOM     36   S  SGN C   2      93.823  74.651  61.7850  0.00  0.00     0.000 S
ATOM     37   O  SGN C   2      95.088  75.135  62.3000  0.00  0.00     0.000 OA
ATOM     38   O  SGN C   2      93.953  73.484  60.9460  0.00  0.00     0.000 OA
ATOM     39   O  SGN C   2      92.987  75.683  61.2210  0.00  0.00     0.000 OA
ENDBRANCH 24 34
BRANCH 20 40
ATOM     40  O4  IDS C   3      93.729  73.044  67.6090  0.00  0.00     0.000 O
BRANCH 40 44
ATOM     41  C1  IDS C   3      95.079  69.790  67.7310  0.00  0.00     0.000 C
ATOM     42  C2  IDS C   3      94.426  70.429  68.9530  0.00  0.00     0.000 C
ATOM     43  C3  IDS C   3      95.032  71.805  69.2200  0.00  0.00     0.000 C
ATOM     44  C4  IDS C   3      95.060  72.661  67.9630  0.00  0.00     0.000 C
ATOM     45  C5  IDS C   3      95.700  71.870  66.8030  0.00  0.00     0.000 C
ATOM     46  O5  IDS C   3      94.978  70.653  66.6010  0.00  0.00     0.000 O
ATOM     47   O  IDS C   3      96.354  71.650  69.7310  0.00  0.00     0.000 O
ATOM     49  HD  IDS C   3      95.492  71.622  69.8100  0.00  0.00     0.000 HD
BRANCH 42 49
ATOM     49   O  IDS C   3      92.971  70.588  68.7300  0.00  0.00     0.000 O
ATOM     50   S  IDS C   3      91.940  70.160  69.8790  0.00  0.00     0.000 S
ATOM     51   O  IDS C   3      92.117  71.185  70.8840  0.00  0.00     0.000 OA
ATOM     52   O  IDS C   3      92.283  68.834  70.3670  0.00  0.00     0.000 OA
ATOM     53   O  IDS C   3      90.628  70.191  69.2680  0.00  0.00     0.000 OA
ENDBRANCH 42 49
BRANCH 45 54
ATOM     54   C  IDS C   3      95.731  72.641  65.4930  0.00  0.00     0.000 C
ATOM     55   O  IDS C   3      96.249  73.727  65.4520  0.00  0.00     0.000 OA
ATOM     56   O  IDS C   3      95.219  72.168  64.4970  0.00  0.00     0.000 OA
ENDBRANCH 45 54
BRANCH 41 57
ATOM     57  O4  SGN C   4      96.260  69.301  68.1280  0.00  0.00     0.000 O
BRANCH 57 61
ATOM     58  C1  SGN C   4      99.297  66.851  66.6110  0.00  0.00     0.000 C
ATOM     59  C2  SGN C   4      99.105  68.216  65.9310  0.00  0.00     0.000 C
ATOM     60  C3  SGN C   4      98.276  69.162  66.8100  0.00  0.00     0.000 C
ATOM     61  C4  SGN C   4      96.967  68.487  67.1880  0.00  0.00     0.000 C
ATOM     62  C5  SGN C   4      97.232  67.126  67.8300  0.00  0.00     0.000 C
ATOM     63  O5  SGN C   4      98.034  66.303  66.9610  0.00  0.00     0.000 O
BRANCH 59 66
ATOM     64   N  SGN C   4     100.464  68.628  65.5650  0.00  0.00     0.000 N
ATOM     66  HD  SGN C   4      99.622  68.626  65.7670  0.00  0.00     0.000 HD
ATOM     66   O  SGN C   4     102.164  69.420  64.0110  0.00  0.00     0.000 OA
ATOM     67   O  SGN C   4     100.499  67.770  63.2710  0.00  0.00     0.000 OA
ATOM     68   S  SGN C   4     100.780  69.094  64.0630  0.00  0.00     0.000 S
ATOM     69   O  SGN C   4      99.821  70.069  63.6860  0.00  0.00     0.000 OA
ENDBRANCH 59 66
BRANCH 62 70
ATOM     70   C  SGN C   4      95.949  66.378  68.0910  0.00  0.00     0.000 C
ATOM     71   S  SGN C   4      93.698  65.728  67.0520  0.00  0.00     0.000 S
ATOM     72   O  SGN C   4      93.884  64.373  67.5310  0.00  0.00     0.000 OA
ATOM     73   O  SGN C   4      93.024  66.587  68.0050  0.00  0.00     0.000 OA
ATOM     74   O  SGN C   4      93.152  65.798  65.7160  0.00  0.00     0.000 OA
ATOM     75   O  SGN C   4      95.168  66.307  66.8930  0.00  0.00     0.000 O
ENDBRANCH 62 70
ENDBRANCH 57 61
ENDBRANCH 41 57
ENDBRANCH 40 44
ENDBRANCH 20 40
ENDBRANCH 19 23
ENDBRANCH 1 19
TORSDOF 14
ENDMDL
MODEL 55
REMARK VINA RESULT:      -0.7    114.578    119.114
ROOT
ATOM      1  C1  IDS C   1       9.546 112.691  81.1820  0.00  0.00     0.000 C
ATOM      2  C2  IDS C   1       9.787 111.357  80.4980  0.00  0.00     0.000 C
ATOM      3  C3  IDS C   1      10.553 110.411  81.4130  0.00  0.00     0.000 C
ATOM      4  C4  IDS C   1       9.890 110.314  82.7870  0.00  0.00     0.000 C
ATOM      5  C5  IDS C   1       9.607 111.724  83.3440  0.00  0.00     0.000 C
ATOM      6  O5  IDS C   1       8.849 112.485  82.4100  0.00  0.00     0.000 O
ATOM      7   O  IDS C   1      11.903 110.860  81.5400  0.00  0.00     0.000 O
ATOM      9  HD  IDS C   1      11.804 110.438  82.2900  0.00  0.00     0.000 HD
ATOM      9   O  IDS C   1       8.653 109.596  82.6580  0.00  0.00     0.000 O
ATOM     11  HD  IDS C   1       8.554 109.173  83.4080  0.00  0.00     0.000 HD
ENDROOT
BRANCH 2 11
ATOM     11   O  IDS C   1       8.496 110.714  80.1640  0.00  0.00     0.000 O
ATOM     12   S  IDS C   1       8.110 110.405  78.6450  0.00  0.00     0.000 S
ATOM     13   O  IDS C   1       7.363 109.172  78.7630  0.00  0.00     0.000 OA
ATOM     14   O  IDS C   1       9.315 110.261  77.8640  0.00  0.00     0.000 OA
ATOM     15   O  IDS C   1       7.302 111.529  78.2400  0.00  0.00     0.000 OA
ENDBRANCH 2 11
BRANCH 5 16
ATOM     16   C  IDS C   1       8.844 111.708  84.6560  0.00  0.00     0.000 C
ATOM     17   O  IDS C   1       7.646 111.520  84.6330  0.00  0.00     0.000 OA
ATOM     18   O  IDS C   1       9.408 111.894  85.6980  0.00  0.00     0.000 OA
ENDBRANCH 5 16
BRANCH 1 19
ATOM     19  O4  SGN C   2      10.533 113.592  81.2140  0.00  0.00     0.000 O
BRANCH 19 23
ATOM     20  C1  SGN C   2      11.472 117.654  81.0110  0.00  0.00     0.000 C
ATOM     21  C2  SGN C   2      10.818 117.167  82.3090  0.00  0.00     0.000 C
ATOM     22  C3  SGN C   2      10.937 115.648  82.4080  0.00  0.00     0.000 C
ATOM     23  C4  SGN C   2      10.312 115.003  81.1770  0.00  0.00     0.000 C
ATOM     24  C5  SGN C   2      10.940 115.587  79.9090  0.00  0.00     0.000 C
ATOM     25  O5  SGN C   2      10.821 117.021  79.9210  0.00  0.00     0.000 O
ATOM     26   O  SGN C   2      10.320 115.177  83.6010  0.00  0.00     0.000 O
ATOM     28  HD  SGN C   2       9.987 114.982  84.3760  0.00  0.00     0.000 HD
BRANCH 21 30
ATOM     28   N  SGN C   2      11.450 118.317  82.9680  0.00  0.00     0.000 N
ATOM     30  HD  SGN C   2      11.834 118.185  83.7330  0.00  0.00     0.000 HD
ATOM     30   S  SGN C   2      10.663 119.182  84.0610  0.00  0.00     0.000 S
ATOM     31   O  SGN C   2      10.203 118.241  85.0260  0.00  0.00     0.000 OA
ATOM     32   O  SGN C   2      11.490 120.259  84.4610  0.00  0.00     0.000 OA
ATOM     33   O  SGN C   2       9.462 119.797  83.2650  0.00  0.00     0.000 OA
ENDBRANCH 21 30
BRANCH 24 34
ATOM     34   C  SGN C   2      10.282 115.116  78.6330  0.00  0.00     0.000 C
ATOM     35   O  SGN C   2      11.115 114.118  78.0180  0.00  0.00     0.000 O
ATOM     36   S  SGN C   2      10.875 113.828  76.4660  0.00  0.00     0.000 S
ATOM     37   O  SGN C   2      10.974 115.127  75.8290  0.00  0.00     0.000 OA
ATOM     38   O  SGN C   2      11.921 112.915  76.0740  0.00  0.00     0.000 OA
ATOM     39   O  SGN C   2       9.553 113.253  76.4210  0.00  0.00     0.000 OA
ENDBRANCH 24 34
BRANCH 20 40
ATOM     40  O4  IDS C   3      12.788 117.493  80.8870  0.00  0.00     0.000 O
BRANCH 40 44
ATOM     41  C1  IDS C   3      16.311 117.406  80.7850  0.00  0.00     0.000 C
ATOM     42  C2  IDS C   3      15.562 118.087  81.9270  0.00  0.00     0.000 C
ATOM     43  C3  IDS C   3      14.541 119.079  81.3760  0.00  0.00     0.000 C
ATOM     44  C4  IDS C   3      13.671 118.451  80.2980  0.00  0.00     0.000 C
ATOM     45  C5  IDS C   3      14.559 117.760  79.2420  0.00  0.00     0.000 C
ATOM     46  O5  IDS C   3      15.395 116.793  79.8820  0.00  0.00     0.000 O
ATOM     47   O  IDS C   3      15.221 120.216  80.8490  0.00  0.00     0.000 O
ATOM     49  HD  IDS C   3      14.927 119.734  81.5050  0.00  0.00     0.000 HD
BRANCH 42 49
ATOM     49   O  IDS C   3      14.848 117.077  82.7430  0.00  0.00     0.000 O
ATOM     50   S  IDS C   3      14.933 117.144  84.3410  0.00  0.00     0.000 S
ATOM     51   O  IDS C   3      14.125 118.298  84.6700  0.00  0.00     0.000 OA
ATOM     52   O  IDS C   3      16.320 117.302  84.7450  0.00  0.00     0.000 OA
ATOM     53   O  IDS C   3      14.364 115.903  84.8220  0.00  0.00     0.000 OA
ENDBRANCH 42 49
BRANCH 45 54
ATOM     54   C  IDS C   3      13.764 117.070  78.1450  0.00  0.00     0.000 C
ATOM     55   O  IDS C   3      13.912 115.891  77.9530  0.00  0.00     0.000 OA
ATOM     56   O  IDS C   3      12.997 117.713  77.4560  0.00  0.00     0.000 OA
ENDBRANCH 45 54
BRANCH 41 57
ATOM     57  O4  SGN C   4      17.238 118.270  80.3550  0.00  0.00     0.000 O
BRANCH 57 61
ATOM     58  C1  SGN C   4      20.527 118.290  77.7650  0.00  0.00     0.000 C
ATOM     59  C2  SGN C   4      19.146 118.070  77.1260  0.00  0.00     0.000 C
ATOM     60  C3  SGN C   4      18.021 118.488  78.0830  0.00  0.00     0.000 C
ATOM     61  C4  SGN C   4      18.192 117.772  79.4120  0.00  0.00     0.000 C
ATOM     62  C5  SGN C   4      19.593 118.009  79.9720  0.00  0.00     0.000 C
ATOM     63  O5  SGN C   4      20.595 117.619  79.0140  0.00  0.00     0.000 O
BRANCH 59 66
ATOM     64   N  SGN C   4      19.232 118.752  75.8310  0.00  0.00     0.000 N
ATOM     66  HD  SGN C   4      18.941 118.382  76.5570  0.00  0.00     0.000 HD
ATOM     66   O  SGN C   4      19.027 118.873  73.4070  0.00  0.00     0.000 OA
ATOM     67   O  SGN C   4      19.930 116.845  74.4620  0.00  0.00     0.000 OA
ATOM     68   S  SGN C   4      18.836 117.968  74.4880  0.00  0.00     0.000 S
ATOM     69   O  SGN C   4      17.564 117.369  74.6790  0.00  0.00     0.000 OA
ENDBRANCH 59 66
BRANCH 62 70
ATOM     70   C  SGN C   4      19.834 117.201  81.2220  0.00  0.00     0.000 C
ATOM     71   S  SGN C   4      19.543 114.874  82.2560  0.00  0.00     0.000 S
ATOM     72   O  SGN C   4      20.901 114.943  82.7590  0.00  0.00     0.000 OA
ATOM     73   O  SGN C   4      18.562 115.417  83.1740  0.00  0.00     0.000 OA
ATOM     74   O  SGN C   4      19.189 113.577  81.7250  0.00  0.00     0.000 OA
ATOM     75   O  SGN C   4      19.535 115.821  80.9820  0.00  0.00     0.000 O
ENDBRANCH 62 70
ENDBRANCH 57 61
ENDBRANCH 41 57
ENDBRANCH 40 44
ENDBRANCH 20 40
ENDBRANCH 19 23
ENDBRANCH 1 19
TORSDOF 14
ENDMDL
MODEL 56
REMARK VINA RESULT:      -0.7     31.200     37.690
ROOT
ATOM      1  C1  IDS C   1      17.040  12.245  65.6970  0.00  0.00     0.000 C
ATOM      2  C2  IDS C   1      15.705  11.522  65.6710  0.00  0.00     0.000 C
ATOM      3  C3  IDS C   1      14.595  12.415  66.2110  0.00  0.00     0.000 C
ATOM      4  C4  IDS C   1      14.598  13.778  65.5190  0.00  0.00     0.000 C
ATOM      5  C5  IDS C   1      16.019  14.376  65.5220  0.00  0.00     0.000 C
ATOM      6  O5  IDS C   1      16.947  13.458  64.9520  0.00  0.00     0.000 O
ATOM      7   O  IDS C   1      14.754  12.571  67.6230  0.00  0.00     0.000 O
ATOM      9  HD  IDS C   1      14.340  13.306  67.4260  0.00  0.00     0.000 HD
ATOM      9   O  IDS C   1      14.153  13.614  64.1640  0.00  0.00     0.000 O
ATOM     11  HD  IDS C   1      13.739  14.349  63.9670  0.00  0.00     0.000 HD
ENDROOT
BRANCH 2 11
ATOM     11   O  IDS C   1      15.350  11.155  64.2810  0.00  0.00     0.000 O
ATOM     12   S  IDS C   1      15.284   9.622  63.8360  0.00  0.00     0.000 S
ATOM     13   O  IDS C   1      14.204   9.628  62.8740  0.00  0.00     0.000 OA
ATOM     14   O  IDS C   1      15.006   8.800  64.9900  0.00  0.00     0.000 OA
ATOM     15   O  IDS C   1      16.574   9.359  63.2490  0.00  0.00     0.000 OA
ENDBRANCH 2 11
BRANCH 5 16
ATOM     16   C  IDS C   1      16.124  15.679  64.7500  0.00  0.00     0.000 C
ATOM     17   O  IDS C   1      15.118  16.157  64.2730  0.00  0.00     0.000 OA
ATOM     18   O  IDS C   1      17.184  16.221  64.5990  0.00  0.00     0.000 OA
ENDBRANCH 5 16
BRANCH 1 19
ATOM     19  O4  SGN C   2      17.717  12.315  66.8470  0.00  0.00     0.000 O
BRANCH 19 23
ATOM     20  C1  SGN C   2      21.505  12.477  68.5920  0.00  0.00     0.000 C
ATOM     21  C2  SGN C   2      21.046  13.729  67.8360  0.00  0.00     0.000 C
ATOM     22  C3  SGN C   2      19.532  13.689  67.6440  0.00  0.00     0.000 C
ATOM     23  C4  SGN C   2      19.141  12.408  66.9170  0.00  0.00     0.000 C
ATOM     24  C5  SGN C   2      19.698  11.194  67.6660  0.00  0.00     0.000 C
ATOM     25  O5  SGN C   2      21.119  11.338  67.8400  0.00  0.00     0.000 O
ATOM     26   O  SGN C   2      19.090  14.837  66.9290  0.00  0.00     0.000 O
ATOM     28  HD  SGN C   2      18.897  15.593  66.5530  0.00  0.00     0.000 HD
BRANCH 21 30
ATOM     28   N  SGN C   2      21.921  14.542  68.6910  0.00  0.00     0.000 N
ATOM     30  HD  SGN C   2      21.629  15.314  68.9520  0.00  0.00     0.000 HD
ATOM     30   S  SGN C   2      22.884  15.658  68.0700  0.00  0.00     0.000 S
ATOM     31   O  SGN C   2      22.037  16.491  67.2850  0.00  0.00     0.000 OA
ATOM     32   O  SGN C   2      23.655  16.219  69.1170  0.00  0.00     0.000 OA
ATOM     33   O  SGN C   2      23.869  14.847  67.1600  0.00  0.00     0.000 OA
ENDBRANCH 21 30
BRANCH 24 34
ATOM     34   C  SGN C   2      19.487   9.885  66.9430  0.00  0.00     0.000 C
ATOM     35   O  SGN C   2      18.368   9.200  67.5320  0.00  0.00     0.000 O
ATOM     36   S  SGN C   2      18.255   7.630  67.2620  0.00  0.00     0.000 S
ATOM     37   O  SGN C   2      19.536   7.092  67.6760  0.00  0.00     0.000 OA
ATOM     38   O  SGN C   2      17.152   7.175  68.0730  0.00  0.00     0.000 OA
ATOM     39   O  SGN C   2      18.011   7.537  65.8440  0.00  0.00     0.000 OA
ENDBRANCH 24 34
BRANCH 20 40
ATOM     40  O4  IDS C   3      21.093  12.331  69.8490  0.00  0.00     0.000 O
BRANCH 40 44
ATOM     41  C1  IDS C   3      20.279  12.150  73.2740  0.00  0.00     0.000 C
ATOM     42  C2  IDS C   3      20.973  13.373  72.6830  0.00  0.00     0.000 C
ATOM     43  C3  IDS C   3      22.212  12.953  71.8960  0.00  0.00     0.000 C
ATOM     44  C4  IDS C   3      21.903  11.831  70.9160  0.00  0.00     0.000 C
ATOM     45  C5  IDS C   3      21.161  10.690  71.6420  0.00  0.00     0.000 C
ATOM     46  O5  IDS C   3      19.975  11.204  72.2520  0.00  0.00     0.000 O
ATOM     47   O  IDS C   3      23.230  12.538  72.8030  0.00  0.00     0.000 O
ATOM     49  HD  IDS C   3      22.752  13.144  72.4110  0.00  0.00     0.000 HD
BRANCH 42 49
ATOM     49   O  IDS C   3      20.052  14.089  71.7700  0.00  0.00     0.000 O
ATOM     50   S  IDS C   3      19.937  15.685  71.8500  0.00  0.00     0.000 S
ATOM     51   O  IDS C   3      21.192  16.139  71.2920  0.00  0.00     0.000 OA
ATOM     52   O  IDS C   3      19.765  16.088  73.2370  0.00  0.00     0.000 OA
ATOM     53   O  IDS C   3      18.796  16.043  71.0350  0.00  0.00     0.000 OA
ENDBRANCH 42 49
BRANCH 45 54
ATOM     54   C  IDS C   3      20.777   9.541  70.7230  0.00  0.00     0.000 C
ATOM     55   O  IDS C   3      19.627   9.193  70.6490  0.00  0.00     0.000 OA
ATOM     56   O  IDS C   3      21.634   8.967  70.0790  0.00  0.00     0.000 OA
ENDBRANCH 45 54
BRANCH 41 57
ATOM     57  O4  SGN C   4      20.971  11.796  74.3640  0.00  0.00     0.000 O
BRANCH 57 61
ATOM     58  C1  SGN C   4      20.423   9.419  77.7670  0.00  0.00     0.000 C
ATOM     59  C2  SGN C   4      20.635   8.681  76.4350  0.00  0.00     0.000 C
ATOM     60  C3  SGN C   4      21.222   9.617  75.3700  0.00  0.00     0.000 C
ATOM     61  C4  SGN C   4      20.348  10.853  75.2430  0.00  0.00     0.000 C
ATOM     62  C5  SGN C   4      20.156  11.517  76.6050  0.00  0.00     0.000 C
ATOM     63  O5  SGN C   4      19.626  10.576  77.5580  0.00  0.00     0.000 O
BRANCH 59 66
ATOM     64   N  SGN C   4      21.384   7.485  76.8320  0.00  0.00     0.000 N
ATOM     66  HD  SGN C   4      21.058   8.151  76.3850  0.00  0.00     0.000 HD
ATOM     66   O  SGN C   4      21.834   5.091  76.8410  0.00  0.00     0.000 OA
ATOM     67   O  SGN C   4      19.516   5.904  76.9370  0.00  0.00     0.000 OA
ATOM     68   S  SGN C   4      20.936   6.044  76.2860  0.00  0.00     0.000 S
ATOM     69   O  SGN C   4      20.790   6.126  74.8770  0.00  0.00     0.000 OA
ENDBRANCH 59 66
BRANCH 62 70
ATOM     70   C  SGN C   4      19.185  12.668  76.5290  0.00  0.00     0.000 C
ATOM     71   S  SGN C   4      16.845  13.335  75.7200  0.00  0.00     0.000 S
ATOM     72   O  SGN C   4      16.616  14.008  76.9840  0.00  0.00     0.000 OA
ATOM     73   O  SGN C   4      17.449  14.189  74.7170  0.00  0.00     0.000 OA
ATOM     74   O  SGN C   4      15.700  12.595  75.2430  0.00  0.00     0.000 OA
ATOM     75   O  SGN C   4      17.915  12.209  76.0500  0.00  0.00     0.000 O
ENDBRANCH 62 70
ENDBRANCH 57 61
ENDBRANCH 41 57
ENDBRANCH 40 44
ENDBRANCH 20 40
ENDBRANCH 19 23
ENDBRANCH 1 19
TORSDOF 14
ENDMDL
MODEL 57
REMARK VINA RESULT:      -0.7    107.674    111.827
ROOT
ATOM      1  C1  IDS C   1      77.290 101.588  32.6970  0.00  0.00     0.000 C
ATOM      2  C2  IDS C   1      77.724 102.260  33.9880  0.00  0.00     0.000 C
ATOM      3  C3  IDS C   1      77.945 103.753  33.7720  0.00  0.00     0.000 C
ATOM      4  C4  IDS C   1      76.737 104.397  33.0910  0.00  0.00     0.000 C
ATOM      5  C5  IDS C   1      76.326 103.580  31.8490  0.00  0.00     0.000 C
ATOM      6  O5  IDS C   1      76.110 102.217  32.1990  0.00  0.00     0.000 O
ATOM      7   O  IDS C   1      79.124 103.952  32.9910  0.00  0.00     0.000 O
ATOM      9  HD  IDS C   1      78.677 104.666  32.7900  0.00  0.00     0.000 HD
ATOM      9   O  IDS C   1      75.643 104.434  34.0200  0.00  0.00     0.000 O
ATOM     11  HD  IDS C   1      75.195 105.148  33.8200  0.00  0.00     0.000 HD
ENDROOT
BRANCH 2 11
ATOM     11   O  IDS C   1      76.677 102.105  35.0220  0.00  0.00     0.000 O
ATOM     12   S  IDS C   1      77.047 101.567  36.4800  0.00  0.00     0.000 S
ATOM     13   O  IDS C   1      76.129 102.303  37.3210  0.00  0.00     0.000 OA
ATOM     14   O  IDS C   1      78.431 101.864  36.7630  0.00  0.00     0.000 OA
ATOM     15   O  IDS C   1      76.770 100.153  36.4260  0.00  0.00     0.000 OA
ENDBRANCH 2 11
BRANCH 5 16
ATOM     16   C  IDS C   1      75.062 104.094  31.1850  0.00  0.00     0.000 C
ATOM     17   O  IDS C   1      74.436 103.347  30.4640  0.00  0.00     0.000 OA
ATOM     18   O  IDS C   1      74.693 105.223  31.3550  0.00  0.00     0.000 OA
ENDBRANCH 5 16
BRANCH 1 19
ATOM     19  O4  SGN C   2      78.215 101.276  31.7850  0.00  0.00     0.000 O
BRANCH 19 23
ATOM     20  C1  SGN C   2      79.602  98.320  29.1840  0.00  0.00     0.000 C
ATOM     21  C2  SGN C   2      78.298  99.022  28.7890  0.00  0.00     0.000 C
ATOM     22  C3  SGN C   2      78.159 100.328  29.5670  0.00  0.00     0.000 C
ATOM     23  C4  SGN C   2      78.223 100.043  31.0630  0.00  0.00     0.000 C
ATOM     24  C5  SGN C   2      79.501  99.265  31.3900  0.00  0.00     0.000 C
ATOM     25  O5  SGN C   2      79.570  98.077  30.5810  0.00  0.00     0.000 O
ATOM     26   O  SGN C   2      76.944 100.986  29.2250  0.00  0.00     0.000 O
ATOM     28  HD  SGN C   2      76.224 101.351  28.9110  0.00  0.00     0.000 HD
BRANCH 21 30
ATOM     28   N  SGN C   2      78.556  98.820  27.3570  0.00  0.00     0.000 N
ATOM     30  HD  SGN C   2      78.271  99.423  26.8050  0.00  0.00     0.000 HD
ATOM     30   S  SGN C   2      77.470  98.130  26.4080  0.00  0.00     0.000 S
ATOM     31   O  SGN C   2      76.273  98.877  26.6000  0.00  0.00     0.000 OA
ATOM     32   O  SGN C   2      78.023  98.002  25.1110  0.00  0.00     0.000 OA
ATOM     33   O  SGN C   2      77.323  96.682  26.9880  0.00  0.00     0.000 OA
ENDBRANCH 21 30
BRANCH 24 34
ATOM     34   C  SGN C   2      79.583  98.807  32.8270  0.00  0.00     0.000 C
ATOM     35   O  SGN C   2      80.529  99.634  33.5280  0.00  0.00     0.000 O
ATOM     36   S  SGN C   2      81.124  99.058  34.8920  0.00  0.00     0.000 S
ATOM     37   O  SGN C   2      81.655  97.755  34.5420  0.00  0.00     0.000 OA
ATOM     38   O  SGN C   2      82.138  99.999  35.3030  0.00  0.00     0.000 OA
ATOM     39   O  SGN C   2      79.985  99.008  35.7760  0.00  0.00     0.000 OA
ENDBRANCH 24 34
BRANCH 20 40
ATOM     40  O4  IDS C   3      80.746  98.926  28.8720  0.00  0.00     0.000 O
BRANCH 40 44
ATOM     41  C1  IDS C   3      83.728 100.373  27.6730  0.00  0.00     0.000 C
ATOM     42  C2  IDS C   3      82.577 100.025  26.7340  0.00  0.00     0.000 C
ATOM     43  C3  IDS C   3      82.146  98.574  26.9370  0.00  0.00     0.000 C
ATOM     44  C4  IDS C   3      81.919  98.255  28.4060  0.00  0.00     0.000 C
ATOM     45  C5  IDS C   3      83.140  98.705  29.2360  0.00  0.00     0.000 C
ATOM     46  O5  IDS C   3      83.372 100.099  29.0250  0.00  0.00     0.000 O
ATOM     47   O  IDS C   3      83.140  97.705  26.3990  0.00  0.00     0.000 O
ATOM     49  HD  IDS C   3      82.481  98.261  26.3170  0.00  0.00     0.000 HD
BRANCH 42 49
ATOM     49   O  IDS C   3      81.416 100.906  27.0020  0.00  0.00     0.000 O
ATOM     50   S  IDS C   3      80.673 101.632  25.7830  0.00  0.00     0.000 S
ATOM     51   O  IDS C   3      79.975 100.549  25.1260  0.00  0.00     0.000 OA
ATOM     52   O  IDS C   3      81.660 102.264  24.9230  0.00  0.00     0.000 OA
ATOM     53   O  IDS C   3      79.777 102.598  26.3830  0.00  0.00     0.000 OA
ENDBRANCH 42 49
BRANCH 45 54
ATOM     54   C  IDS C   3      82.978  98.457  30.7280  0.00  0.00     0.000 C
ATOM     55   O  IDS C   3      83.098  99.372  31.5010  0.00  0.00     0.000 OA
ATOM     56   O  IDS C   3      82.746  97.336  31.1350  0.00  0.00     0.000 OA
ENDBRANCH 45 54
BRANCH 41 57
ATOM     57  O4  SGN C   4      84.842  99.864  27.1320  0.00  0.00     0.000 O
BRANCH 57 61
ATOM     58  C1  SGN C   4      88.967  99.912  27.8490  0.00  0.00     0.000 C
ATOM     59  C2  SGN C   4      88.095  99.172  28.8760  0.00  0.00     0.000 C
ATOM     60  C3  SGN C   4      86.701  98.872  28.3070  0.00  0.00     0.000 C
ATOM     61  C4  SGN C   4      86.073 100.159  27.7990  0.00  0.00     0.000 C
ATOM     62  C5  SGN C   4      87.005 100.855  26.8080  0.00  0.00     0.000 C
ATOM     63  O5  SGN C   4      88.298 101.081  27.4000  0.00  0.00     0.000 O
BRANCH 59 66
ATOM     64   N  SGN C   4      88.932  98.045  29.3010  0.00  0.00     0.000 N
ATOM     66  HD  SGN C   4      88.259  98.560  29.1260  0.00  0.00     0.000 HD
ATOM     66   O  SGN C   4      90.005  96.624  30.9630  0.00  0.00     0.000 OA
ATOM     67   O  SGN C   4      89.913  99.056  31.3050  0.00  0.00     0.000 OA
ATOM     68   S  SGN C   4      89.152  97.758  30.8640  0.00  0.00     0.000 S
ATOM     69   O  SGN C   4      87.882  97.731  31.4960  0.00  0.00     0.000 OA
ENDBRANCH 59 66
BRANCH 62 70
ATOM     70   C  SGN C   4      86.465 102.200  26.3910  0.00  0.00     0.000 C
ATOM     71   S  SGN C   4      85.283 104.302  27.2600  0.00  0.00     0.000 S
ATOM     72   O  SGN C   4      86.224 105.120  26.5200  0.00  0.00     0.000 OA
ATOM     73   O  SGN C   4      84.107 103.944  26.4940  0.00  0.00     0.000 OA
ATOM     74   O  SGN C   4      84.986 104.814  28.5790  0.00  0.00     0.000 OA
ATOM     75   O  SGN C   4      86.061 102.947  27.5440  0.00  0.00     0.000 O
ENDBRANCH 62 70
ENDBRANCH 57 61
ENDBRANCH 41 57
ENDBRANCH 40 44
ENDBRANCH 20 40
ENDBRANCH 19 23
ENDBRANCH 1 19
TORSDOF 14
ENDMDL
MODEL 58
REMARK VINA RESULT:      -0.7     66.728     71.068
ROOT
ATOM      1  C1  IDS C   1      65.728  20.910  87.1050  0.00  0.00     0.000 C
ATOM      2  C2  IDS C   1      65.017  19.641  86.6670  0.00  0.00     0.000 C
ATOM      3  C3  IDS C   1      64.481  19.784  85.2480  0.00  0.00     0.000 C
ATOM      4  C4  IDS C   1      65.570  20.269  84.2920  0.00  0.00     0.000 C
ATOM      5  C5  IDS C   1      66.286  21.502  84.8800  0.00  0.00     0.000 C
ATOM      6  O5  IDS C   1      66.775  21.219  86.1860  0.00  0.00     0.000 O
ATOM      7   O  IDS C   1      63.375  20.689  85.2460  0.00  0.00     0.000 O
ATOM      9  HD  IDS C   1      63.663  20.786  84.4350  0.00  0.00     0.000 HD
ATOM      9   O  IDS C   1      66.524  19.213  84.0970  0.00  0.00     0.000 O
ATOM     11  HD  IDS C   1      66.812  19.311  83.2860  0.00  0.00     0.000 HD
ENDROOT
BRANCH 2 11
ATOM     11   O  IDS C   1      65.959  18.499  86.6790  0.00  0.00     0.000 O
ATOM     12   S  IDS C   1      65.683  17.227  87.6060  0.00  0.00     0.000 S
ATOM     13   O  IDS C   1      66.203  16.143  86.8020  0.00  0.00     0.000 OA
ATOM     14   O  IDS C   1      64.266  17.115  87.8550  0.00  0.00     0.000 OA
ATOM     15   O  IDS C   1      66.451  17.475  88.8000  0.00  0.00     0.000 OA
ENDBRANCH 2 11
BRANCH 5 16
ATOM     16   C  IDS C   1      67.459  21.972  84.0390  0.00  0.00     0.000 C
ATOM     17   O  IDS C   1      68.513  21.379  84.1230  0.00  0.00     0.000 OA
ATOM     18   O  IDS C   1      67.354  22.923  83.3140  0.00  0.00     0.000 OA
ENDBRANCH 5 16
BRANCH 1 19
ATOM     19  O4  SGN C   2      65.000  21.947  87.5310  0.00  0.00     0.000 O
BRANCH 19 23
ATOM     20  C1  SGN C   2      64.779  25.071  90.2910  0.00  0.00     0.000 C
ATOM     21  C2  SGN C   2      65.770  25.247  89.1350  0.00  0.00     0.000 C
ATOM     22  C3  SGN C   2      65.432  24.271  88.0120  0.00  0.00     0.000 C
ATOM     23  C4  SGN C   2      65.435  22.846  88.5530  0.00  0.00     0.000 C
ATOM     24  C5  SGN C   2      64.496  22.746  89.7580  0.00  0.00     0.000 C
ATOM     25  O5  SGN C   2      64.860  23.729  90.7440  0.00  0.00     0.000 O
ATOM     26   O  SGN C   2      66.353  24.410  86.9360  0.00  0.00     0.000 O
ATOM     28  HD  SGN C   2      66.909  24.605  86.3010  0.00  0.00     0.000 HD
BRANCH 21 30
ATOM     28   N  SGN C   2      65.632  26.701  89.2960  0.00  0.00     0.000 N
ATOM     30  HD  SGN C   2      65.585  27.186  88.5800  0.00  0.00     0.000 HD
ATOM     30   S  SGN C   2      66.911  27.662  89.2770  0.00  0.00     0.000 S
ATOM     31   O  SGN C   2      67.595  27.355  88.0660  0.00  0.00     0.000 OA
ATOM     32   O  SGN C   2      66.481  28.987  89.5300  0.00  0.00     0.000 OA
ATOM     33   O  SGN C   2      67.748  27.207  90.5210  0.00  0.00     0.000 OA
ENDBRANCH 21 30
BRANCH 24 34
ATOM     34   C  SGN C   2      64.543  21.406  90.4550  0.00  0.00     0.000 C
ATOM     35   O  SGN C   2      63.353  20.668  90.1290  0.00  0.00     0.000 O
ATOM     36   S  SGN C   2      62.961  19.460  91.0970  0.00  0.00     0.000 S
ATOM     37   O  SGN C   2      62.924  20.046  92.4220  0.00  0.00     0.000 OA
ATOM     38   O  SGN C   2      61.674  18.995  90.6380  0.00  0.00     0.000 OA
ATOM     39   O  SGN C   2      64.025  18.504  90.9090  0.00  0.00     0.000 OA
ENDBRANCH 24 34
BRANCH 20 40
ATOM     40  O4  IDS C   3      63.504  25.378  90.0610  0.00  0.00     0.000 O
BRANCH 40 44
ATOM     41  C1  IDS C   3      60.221  26.544  89.5260  0.00  0.00     0.000 C
ATOM     42  C2  IDS C   3      61.434  27.432  89.2690  0.00  0.00     0.000 C
ATOM     43  C3  IDS C   3      62.347  27.452  90.4940  0.00  0.00     0.000 C
ATOM     44  C4  IDS C   3      62.650  26.048  90.9920  0.00  0.00     0.000 C
ATOM     45  C5  IDS C   3      61.337  25.254  91.1580  0.00  0.00     0.000 C
ATOM     46  O5  IDS C   3      60.631  25.236  89.9150  0.00  0.00     0.000 O
ATOM     47   O  IDS C   3      61.731  28.213  91.5300  0.00  0.00     0.000 O
ATOM     49  HD  IDS C   3      62.153  28.142  90.7770  0.00  0.00     0.000 HD
BRANCH 42 49
ATOM     49   O  IDS C   3      62.205  26.920  88.1120  0.00  0.00     0.000 O
ATOM     50   S  IDS C   3      62.738  27.942  86.9990  0.00  0.00     0.000 S
ATOM     51   O  IDS C   3      63.805  28.645  87.6760  0.00  0.00     0.000 OA
ATOM     52   O  IDS C   3      61.656  28.825  86.5960  0.00  0.00     0.000 OA
ATOM     53   O  IDS C   3      63.210  27.124  85.9020  0.00  0.00     0.000 OA
ENDBRANCH 42 49
BRANCH 45 54
ATOM     54   C  IDS C   3      61.554  23.820  91.6170  0.00  0.00     0.000 C
ATOM     55   O  IDS C   3      61.100  22.912  90.9710  0.00  0.00     0.000 OA
ATOM     56   O  IDS C   3      62.170  23.598  92.6410  0.00  0.00     0.000 OA
ENDBRANCH 45 54
BRANCH 41 57
ATOM     57  O4  SGN C   4      59.366  27.254  90.2720  0.00  0.00     0.000 O
BRANCH 57 61
ATOM     58  C1  SGN C   4      55.374  27.030  91.5150  0.00  0.00     0.000 C
ATOM     59  C2  SGN C   4      56.340  25.988  92.1010  0.00  0.00     0.000 C
ATOM     60  C3  SGN C   4      57.802  26.415  91.9060  0.00  0.00     0.000 C
ATOM     61  C4  SGN C   4      58.052  26.711  90.4370  0.00  0.00     0.000 C
ATOM     62  C5  SGN C   4      57.040  27.730  89.9160  0.00  0.00     0.000 C
ATOM     63  O5  SGN C   4      55.695  27.276  90.1540  0.00  0.00     0.000 O
BRANCH 59 66
ATOM     64   N  SGN C   4      55.857  25.783  93.4710  0.00  0.00     0.000 N
ATOM     66  HD  SGN C   4      56.351  25.819  92.7600  0.00  0.00     0.000 HD
ATOM     66   O  SGN C   4      55.120  24.414  95.3460  0.00  0.00     0.000 OA
ATOM     67   O  SGN C   4      54.415  23.846  93.0610  0.00  0.00     0.000 OA
ATOM     68   S  SGN C   4      55.583  24.295  94.0050  0.00  0.00     0.000 S
ATOM     69   O  SGN C   4      56.728  23.503  93.7320  0.00  0.00     0.000 OA
ENDBRANCH 59 66
BRANCH 62 70
ATOM     70   C  SGN C   4      57.182  27.941  88.4290  0.00  0.00     0.000 C
ATOM     71   S  SGN C   4      57.427  26.714  86.1910  0.00  0.00     0.000 S
ATOM     72   O  SGN C   4      56.431  27.596  85.6150  0.00  0.00     0.000 OA
ATOM     73   O  SGN C   4      58.779  27.222  86.0750  0.00  0.00     0.000 OA
ATOM     74   O  SGN C   4      57.285  25.336  85.7820  0.00  0.00     0.000 OA
ATOM     75   O  SGN C   4      57.094  26.686  87.7440  0.00  0.00     0.000 O
ENDBRANCH 62 70
ENDBRANCH 57 61
ENDBRANCH 41 57
ENDBRANCH 40 44
ENDBRANCH 20 40
ENDBRANCH 19 23
ENDBRANCH 1 19
TORSDOF 14
ENDMDL
MODEL 59
REMARK VINA RESULT:      -0.7     78.721     85.611
ROOT
ATOM      1  C1  IDS C   1      37.886  83.617  15.4220  0.00  0.00     0.000 C
ATOM      2  C2  IDS C   1      37.999  82.595  16.5390  0.00  0.00     0.000 C
ATOM      3  C3  IDS C   1      36.619  82.161  17.0160  0.00  0.00     0.000 C
ATOM      4  C4  IDS C   1      35.739  81.730  15.8430  0.00  0.00     0.000 C
ATOM      5  C5  IDS C   1      35.773  82.798  14.7310  0.00  0.00     0.000 C
ATOM      6  O5  IDS C   1      37.116  83.077  14.3490  0.00  0.00     0.000 O
ATOM      7   O  IDS C   1      36.005  83.232  17.7350  0.00  0.00     0.000 O
ATOM      9  HD  IDS C   1      35.305  82.812  17.4460  0.00  0.00     0.000 HD
ATOM      9   O  IDS C   1      36.231  80.485  15.3230  0.00  0.00     0.000 O
ATOM     11  HD  IDS C   1      35.531  80.065  15.0330  0.00  0.00     0.000 HD
ENDROOT
BRANCH 2 11
ATOM     11   O  IDS C   1      38.709  81.389  16.0570  0.00  0.00     0.000 O
ATOM     12   S  IDS C   1      40.069  80.914  16.7480  0.00  0.00     0.000 S
ATOM     13   O  IDS C   1      39.976  79.474  16.6510  0.00  0.00     0.000 OA
ATOM     14   O  IDS C   1      40.103  81.387  18.1110  0.00  0.00     0.000 OA
ATOM     15   O  IDS C   1      41.110  81.479  15.9250  0.00  0.00     0.000 OA
ENDBRANCH 2 11
BRANCH 5 16
ATOM     16   C  IDS C   1      35.013  82.388  13.4820  0.00  0.00     0.000 C
ATOM     17   O  IDS C   1      35.536  81.615  12.7070  0.00  0.00     0.000 OA
ATOM     18   O  IDS C   1      33.921  82.830  13.2540  0.00  0.00     0.000 OA
ENDBRANCH 5 16
BRANCH 1 19
ATOM     19  O4  SGN C   2      37.640  84.894  15.7330  0.00  0.00     0.000 O
BRANCH 19 23
ATOM     20  C1  SGN C   2      38.506  88.871  14.8090  0.00  0.00     0.000 C
ATOM     21  C2  SGN C   2      37.583  88.128  13.8360  0.00  0.00     0.000 C
ATOM     22  C3  SGN C   2      37.021  86.879  14.5110  0.00  0.00     0.000 C
ATOM     23  C4  SGN C   2      38.167  85.999  14.9960  0.00  0.00     0.000 C
ATOM     24  C5  SGN C   2      39.104  86.813  15.8920  0.00  0.00     0.000 C
ATOM     25  O5  SGN C   2      39.548  87.989  15.1920  0.00  0.00     0.000 O
ATOM     26   O  SGN C   2      36.174  86.168  13.6160  0.00  0.00     0.000 O
ATOM     28  HD  SGN C   2      35.623  85.835  13.0360  0.00  0.00     0.000 HD
BRANCH 21 30
ATOM     28   N  SGN C   2      36.993  89.419  13.4570  0.00  0.00     0.000 N
ATOM     30  HD  SGN C   2      36.137  89.452  13.3310  0.00  0.00     0.000 HD
ATOM     30   S  SGN C   2      36.744  89.798  11.9230  0.00  0.00     0.000 S
ATOM     31   O  SGN C   2      35.979  88.722  11.3890  0.00  0.00     0.000 OA
ATOM     32   O  SGN C   2      36.241  91.120  11.8630  0.00  0.00     0.000 OA
ATOM     33   O  SGN C   2      38.181  89.825  11.2990  0.00  0.00     0.000 OA
ENDBRANCH 21 30
BRANCH 24 34
ATOM     34   C  SGN C   2      40.351  86.065  16.3040  0.00  0.00     0.000 C
ATOM     35   O  SGN C   2      40.236  85.691  17.6880  0.00  0.00     0.000 O
ATOM     36   S  SGN C   2      41.588  85.325  18.4550  0.00  0.00     0.000 S
ATOM     37   O  SGN C   2      42.452  86.470  18.2430  0.00  0.00     0.000 OA
ATOM     38   O  SGN C   2      41.213  85.137  19.8350  0.00  0.00     0.000 OA
ATOM     39   O  SGN C   2      42.042  84.120  17.8050  0.00  0.00     0.000 OA
ENDBRANCH 24 34
BRANCH 20 40
ATOM     40  O4  IDS C   3      37.954  89.398  15.9000  0.00  0.00     0.000 O
BRANCH 40 44
ATOM     41  C1  IDS C   3      36.369  91.112  18.5410  0.00  0.00     0.000 C
ATOM     42  C2  IDS C   3      35.952  91.323  17.0880  0.00  0.00     0.000 C
ATOM     43  C3  IDS C   3      37.169  91.656  16.2290  0.00  0.00     0.000 C
ATOM     44  C4  IDS C   3      38.304  90.669  16.4530  0.00  0.00     0.000 C
ATOM     45  C5  IDS C   3      38.581  90.520  17.9640  0.00  0.00     0.000 C
ATOM     46  O5  IDS C   3      37.383  90.114  18.6300  0.00  0.00     0.000 O
ATOM     47   O  IDS C   3      37.610  92.979  16.5270  0.00  0.00     0.000 O
ATOM     49  HD  IDS C   3      37.063  92.417  16.1600  0.00  0.00     0.000 HD
BRANCH 42 49
ATOM     49   O  IDS C   3      35.319  90.094  16.5560  0.00  0.00     0.000 O
ATOM     50   S  IDS C   3      33.937  90.198  15.7510  0.00  0.00     0.000 S
ATOM     51   O  IDS C   3      34.327  90.801  14.4960  0.00  0.00     0.000 OA
ATOM     52   O  IDS C   3      33.002  91.021  16.5000  0.00  0.00     0.000 OA
ATOM     53   O  IDS C   3      33.462  88.838  15.5990  0.00  0.00     0.000 OA
ENDBRANCH 42 49
BRANCH 45 54
ATOM     54   C  IDS C   3      39.679  89.517  18.2790  0.00  0.00     0.000 C
ATOM     55   O  IDS C   3      40.757  89.628  17.7540  0.00  0.00     0.000 OA
ATOM     56   O  IDS C   3      39.461  88.599  19.0450  0.00  0.00     0.000 OA
ENDBRANCH 45 54
BRANCH 41 57
ATOM     57  O4  SGN C   4      36.539  92.325  19.0800  0.00  0.00     0.000 O
BRANCH 57 61
ATOM     58  C1  SGN C   4      37.253  93.996  22.8510  0.00  0.00     0.000 C
ATOM     59  C2  SGN C   4      38.345  93.073  22.2860  0.00  0.00     0.000 C
ATOM     60  C3  SGN C   4      38.168  92.865  20.7760  0.00  0.00     0.000 C
ATOM     61  C4  SGN C   4      36.757  92.375  20.4930  0.00  0.00     0.000 C
ATOM     62  C5  SGN C   4      35.728  93.322  21.1070  0.00  0.00     0.000 C
ATOM     63  O5  SGN C   4      35.970  93.489  22.5170  0.00  0.00     0.000 O
BRANCH 59 66
ATOM     64   N  SGN C   4      39.598  93.670  22.7600  0.00  0.00     0.000 N
ATOM     66  HD  SGN C   4      39.008  93.222  22.3110  0.00  0.00     0.000 HD
ATOM     66   O  SGN C   4      41.773  93.606  23.8550  0.00  0.00     0.000 OA
ATOM     67   O  SGN C   4      39.886  92.342  24.7980  0.00  0.00     0.000 OA
ATOM     68   S  SGN C   4      40.682  92.758  23.5120  0.00  0.00     0.000 S
ATOM     69   O  SGN C   4      40.920  91.603  22.7230  0.00  0.00     0.000 OA
ENDBRANCH 59 66
BRANCH 62 70
ATOM     70   C  SGN C   4      34.325  92.789  20.9570  0.00  0.00     0.000 C
ATOM     71   S  SGN C   4      32.885  90.685  21.2190  0.00  0.00     0.000 S
ATOM     72   O  SGN C   4      31.869  91.480  21.8820  0.00  0.00     0.000 OA
ATOM     73   O  SGN C   4      32.723  90.631  19.7800  0.00  0.00     0.000 OA
ATOM     74   O  SGN C   4      33.097  89.393  21.8310  0.00  0.00     0.000 OA
ATOM     75   O  SGN C   4      34.244  91.461  21.4860  0.00  0.00     0.000 O
ENDBRANCH 62 70
ENDBRANCH 57 61
ENDBRANCH 41 57
ENDBRANCH 40 44
ENDBRANCH 20 40
ENDBRANCH 19 23
ENDBRANCH 1 19
TORSDOF 14
ENDMDL
MODEL 60
REMARK VINA RESULT:      -0.7     92.036     98.409
ROOT
ATOM      1  C1  IDS C   1      11.304  97.342   8.3520  0.00  0.00     0.000 C
ATOM      2  C2  IDS C   1      11.632  97.099   6.8890  0.00  0.00     0.000 C
ATOM      3  C3  IDS C   1      12.825  96.161   6.7510  0.00  0.00     0.000 C
ATOM      4  C4  IDS C   1      12.630  94.893   7.5820  0.00  0.00     0.000 C
ATOM      5  C5  IDS C   1      12.210  95.257   9.0200  0.00  0.00     0.000 C
ATOM      6  O5  IDS C   1      11.061  96.098   9.0060  0.00  0.00     0.000 O
ATOM      7   O  IDS C   1      14.015  96.843   7.1510  0.00  0.00     0.000 O
ATOM      9  HD  IDS C   1      14.236  96.023   7.3180  0.00  0.00     0.000 HD
ATOM      9   O  IDS C   1      11.605  94.090   6.9750  0.00  0.00     0.000 O
ATOM     11  HD  IDS C   1      11.827  93.270   7.1430  0.00  0.00     0.000 HD
ENDROOT
BRANCH 2 11
ATOM     11   O  IDS C   1      10.481  96.465   6.2070  0.00  0.00     0.000 O
ATOM     12   S  IDS C   1       9.650  97.265   5.1010  0.00  0.00     0.000 S
ATOM     13   O  IDS C   1       9.283  96.217   4.1750  0.00  0.00     0.000 OA
ATOM     14   O  IDS C   1      10.493  98.274   4.5050  0.00  0.00     0.000 OA
ATOM     15   O  IDS C   1       8.527  97.816   5.8180  0.00  0.00     0.000 OA
ENDBRANCH 2 11
BRANCH 5 16
ATOM     16   C  IDS C   1      11.885  94.045   9.8750  0.00  0.00     0.000 C
ATOM     17   O  IDS C   1      11.520  94.217  11.0180  0.00  0.00     0.000 OA
ATOM     18   O  IDS C   1      12.002  92.934   9.4360  0.00  0.00     0.000 OA
ENDBRANCH 5 16
BRANCH 1 19
ATOM     19  O4  SGN C   2      12.027  98.231   9.0390  0.00  0.00     0.000 O
BRANCH 19 23
ATOM     20  C1  SGN C   2      11.985 101.006  12.1580  0.00  0.00     0.000 C
ATOM     21  C2  SGN C   2      11.955  99.526  12.5570  0.00  0.00     0.000 C
ATOM     22  C3  SGN C   2      12.408  98.665  11.3810  0.00  0.00     0.000 C
ATOM     23  C4  SGN C   2      11.527  98.947  10.1700  0.00  0.00     0.000 C
ATOM     24  C5  SGN C   2      11.524 100.448   9.8680  0.00  0.00     0.000 C
ATOM     25  O5  SGN C   2      11.128 101.181  11.0410  0.00  0.00     0.000 O
ATOM     26   O  SGN C   2      12.371  97.285  11.7300  0.00  0.00     0.000 O
ATOM     28  HD  SGN C   2      12.385  96.478  12.0430  0.00  0.00     0.000 HD
BRANCH 21 30
ATOM     28   N  SGN C   2      12.661  99.765  13.8230  0.00  0.00     0.000 N
ATOM     30  HD  SGN C   2      13.159  99.129  14.1360  0.00  0.00     0.000 HD
ATOM     30   S  SGN C   2      12.036  99.302  15.2210  0.00  0.00     0.000 S
ATOM     31   O  SGN C   2      11.745  97.917  15.0630  0.00  0.00     0.000 OA
ATOM     32   O  SGN C   2      12.895  99.730  16.2620  0.00  0.00     0.000 OA
ATOM     33   O  SGN C   2      10.717 100.138  15.3440  0.00  0.00     0.000 OA
ENDBRANCH 21 30
BRANCH 24 34
ATOM     34   C  SGN C   2      10.561 100.844   8.7730  0.00  0.00     0.000 C
ATOM     35   O  SGN C   2      11.295 101.036   7.5510  0.00  0.00     0.000 O
ATOM     36   S  SGN C   2      10.588 101.897   6.4080  0.00  0.00     0.000 S
ATOM     37   O  SGN C   2      10.223 103.142   7.0560  0.00  0.00     0.000 OA
ATOM     38   O  SGN C   2      11.580 102.059   5.3730  0.00  0.00     0.000 OA
ATOM     39   O  SGN C   2       9.460 101.091   6.0120  0.00  0.00     0.000 OA
ENDBRANCH 24 34
BRANCH 20 40
ATOM     40  O4  IDS C   3      13.171 101.546  11.8880  0.00  0.00     0.000 O
BRANCH 40 44
ATOM     41  C1  IDS C   3      16.371 103.000  11.6190  0.00  0.00     0.000 C
ATOM     42  C2  IDS C   3      15.941 102.246  12.8740  0.00  0.00     0.000 C
ATOM     43  C3  IDS C   3      14.606 102.784  13.3840  0.00  0.00     0.000 C
ATOM     44  C4  IDS C   3      13.570 102.864  12.2740  0.00  0.00     0.000 C
ATOM     45  C5  IDS C   3      14.160 103.606  11.0570  0.00  0.00     0.000 C
ATOM     46  O5  IDS C   3      15.351 102.944  10.6260  0.00  0.00     0.000 O
ATOM     47   O  IDS C   3      14.803 104.073  13.9580  0.00  0.00     0.000 O
ATOM     49  HD  IDS C   3      14.865 103.210  13.9720  0.00  0.00     0.000 HD
BRANCH 42 49
ATOM     49   O  IDS C   3      15.787 100.804  12.5740  0.00  0.00     0.000 O
ATOM     50   S  IDS C   3      16.516  99.719  13.5010  0.00  0.00     0.000 S
ATOM     51   O  IDS C   3      15.756  99.766  14.7300  0.00  0.00     0.000 OA
ATOM     52   O  IDS C   3      17.906 100.100  13.6890  0.00  0.00     0.000 OA
ATOM     53   O  IDS C   3      16.388  98.454  12.8080  0.00  0.00     0.000 OA
ENDBRANCH 42 49
BRANCH 45 54
ATOM     54   C  IDS C   3      13.199 103.697   9.8820  0.00  0.00     0.000 C
ATOM     55   O  IDS C   3      12.118 104.205  10.0330  0.00  0.00     0.000 OA
ATOM     56   O  IDS C   3      13.518 103.241   8.8010  0.00  0.00     0.000 OA
ENDBRANCH 45 54
BRANCH 41 57
ATOM     57  O4  SGN C   4      16.885 104.169  12.0210  0.00  0.00     0.000 O
BRANCH 57 61
ATOM     58  C1  SGN C   4      18.933 107.416  10.3510  0.00  0.00     0.000 C
ATOM     59  C2  SGN C   4      17.567 107.071   9.7370  0.00  0.00     0.000 C
ATOM     60  C3  SGN C   4      16.753 106.164  10.6700  0.00  0.00     0.000 C
ATOM     61  C4  SGN C   4      17.577 104.940  11.0340  0.00  0.00     0.000 C
ATOM     62  C5  SGN C   4      18.930 105.357  11.6100  0.00  0.00     0.000 C
ATOM     63  O5  SGN C   4      19.625 106.224  10.6940  0.00  0.00     0.000 O
BRANCH 59 66
ATOM     64   N  SGN C   4      16.992 108.371   9.3750  0.00  0.00     0.000 N
ATOM     66  HD  SGN C   4      17.095 107.536   9.5820  0.00  0.00     0.000 HD
ATOM     66   O  SGN C   4      15.965 109.953   7.8330  0.00  0.00     0.000 OA
ATOM     67   O  SGN C   4      17.773 108.480   7.0560  0.00  0.00     0.000 OA
ATOM     68   S  SGN C   4      16.449 108.615   7.8850  0.00  0.00     0.000 S
ATOM     69   O  SGN C   4      15.580 107.547   7.5440  0.00  0.00     0.000 OA
ENDBRANCH 59 66
BRANCH 62 70
ATOM     70   C  SGN C   4      19.819 104.164  11.8540  0.00  0.00     0.000 C
ATOM     71   S  SGN C   4      21.013 102.215  10.6930  0.00  0.00     0.000 S
ATOM     72   O  SGN C   4      22.208 102.508  11.4610  0.00  0.00     0.000 OA
ATOM     73   O  SGN C   4      20.118 101.288  11.3550  0.00  0.00     0.000 OA
ATOM     74   O  SGN C   4      21.281 101.882   9.3120  0.00  0.00     0.000 OA
ATOM     75   O  SGN C   4      20.238 103.599  10.6060  0.00  0.00     0.000 O
ENDBRANCH 62 70
ENDBRANCH 57 61
ENDBRANCH 41 57
ENDBRANCH 40 44
ENDBRANCH 20 40
ENDBRANCH 19 23
ENDBRANCH 1 19
TORSDOF 14
ENDMDL
MODEL 61
REMARK VINA RESULT:      -0.7     85.430     91.116
ROOT
ATOM      1  C1  IDS C   1     101.055  41.934  20.7580  0.00  0.00     0.000 C
ATOM      2  C2  IDS C   1      99.628  41.469  20.5240  0.00  0.00     0.000 C
ATOM      3  C3  IDS C   1      99.540  39.949  20.5770  0.00  0.00     0.000 C
ATOM      4  C4  IDS C   1     100.191  39.402  21.8480  0.00  0.00     0.000 C
ATOM      5  C5  IDS C   1     101.595  40.011  22.0330  0.00  0.00     0.000 C
ATOM      6  O5  IDS C   1     101.528  41.433  22.0070  0.00  0.00     0.000 O
ATOM      7   O  IDS C   1     100.164  39.394  19.4170  0.00  0.00     0.000 O
ATOM      9  HD  IDS C   1     100.265  38.744  19.9800  0.00  0.00     0.000 HD
ATOM      9   O  IDS C   1      99.370  39.743  22.9760  0.00  0.00     0.000 O
ATOM     11  HD  IDS C   1      99.472  39.092  23.5390  0.00  0.00     0.000 HD
ENDROOT
BRANCH 2 11
ATOM     11   O  IDS C   1      98.737  42.008  21.5760  0.00  0.00     0.000 O
ATOM     12   S  IDS C   1      97.488  42.928  21.1900  0.00  0.00     0.000 S
ATOM     13   O  IDS C   1      96.511  42.552  22.1890  0.00  0.00     0.000 OA
ATOM     14   O  IDS C   1      97.066  42.622  19.8450  0.00  0.00     0.000 OA
ATOM     15   O  IDS C   1      97.972  44.278  21.3400  0.00  0.00     0.000 OA
ENDBRANCH 2 11
BRANCH 5 16
ATOM     16   C  IDS C   1     102.259  39.603  23.3360  0.00  0.00     0.000 C
ATOM     17   O  IDS C   1     101.760  38.713  23.9920  0.00  0.00     0.000 OA
ATOM     18   O  IDS C   1     103.250  40.159  23.7210  0.00  0.00     0.000 OA
ENDBRANCH 5 16
BRANCH 1 19
ATOM     19  O4  SGN C   2     101.925  41.892  19.7450  0.00  0.00     0.000 O
BRANCH 19 23
ATOM     20  C1  SGN C   2     105.074  43.872  17.8500  0.00  0.00     0.000 C
ATOM     21  C2  SGN C   2     105.402  43.175  19.1760  0.00  0.00     0.000 C
ATOM     22  C3  SGN C   2     104.311  42.162  19.5100  0.00  0.00     0.000 C
ATOM     23  C4  SGN C   2     102.957  42.861  19.5520  0.00  0.00     0.000 C
ATOM     24  C5  SGN C   2     102.718  43.611  18.2390  0.00  0.00     0.000 C
ATOM     25  O5  SGN C   2     103.814  44.509  17.9840  0.00  0.00     0.000 O
ATOM     26   O  SGN C   2     104.591  41.516  20.7460  0.00  0.00     0.000 O
ATOM     28  HD  SGN C   2     104.870  41.125  21.4670  0.00  0.00     0.000 HD
BRANCH 21 30
ATOM     28   N  SGN C   2     106.794  43.062  18.7200  0.00  0.00     0.000 N
ATOM     30  HD  SGN C   2     107.214  42.322  18.8780  0.00  0.00     0.000 HD
ATOM     30   S  SGN C   2     108.016  43.397  19.6970  0.00  0.00     0.000 S
ATOM     31   O  SGN C   2     107.802  42.598  20.8560  0.00  0.00     0.000 OA
ATOM     32   O  SGN C   2     109.222  43.274  18.9650  0.00  0.00     0.000 OA
ATOM     33   O  SGN C   2     107.833  44.918  20.0260  0.00  0.00     0.000 OA
ENDBRANCH 21 30
BRANCH 24 34
ATOM     34   C  SGN C   2     101.466  44.457  18.2430  0.00  0.00     0.000 C
ATOM     35   O  SGN C   2     100.470  43.822  17.4230  0.00  0.00     0.000 O
ATOM     36   S  SGN C   2      99.270  44.736  16.9010  0.00  0.00     0.000 S
ATOM     37   O  SGN C   2      99.917  45.857  16.2470  0.00  0.00     0.000 OA
ATOM     38   O  SGN C   2      98.512  43.904  15.9970  0.00  0.00     0.000 OA
ATOM     39   O  SGN C   2      98.555  45.091  18.1020  0.00  0.00     0.000 OA
ENDBRANCH 24 34
BRANCH 20 40
ATOM     40  O4  IDS C   3     105.072  43.127  16.7470  0.00  0.00     0.000 O
BRANCH 40 44
ATOM     41  C1  IDS C   3     105.482  41.192  13.8290  0.00  0.00     0.000 C
ATOM     42  C2  IDS C   3     106.597  41.324  14.8620  0.00  0.00     0.000 C
ATOM     43  C3  IDS C   3     106.867  42.795  15.1670  0.00  0.00     0.000 C
ATOM     44  C4  IDS C   3     105.584  43.549  15.4810  0.00  0.00     0.000 C
ATOM     45  C5  IDS C   3     104.536  43.283  14.3800  0.00  0.00     0.000 C
ATOM     46  O5  IDS C   3     104.311  41.877  14.2660  0.00  0.00     0.000 O
ATOM     47   O  IDS C   3     107.524  43.396  14.0550  0.00  0.00     0.000 O
ATOM     49  HD  IDS C   3     107.512  42.887  14.7550  0.00  0.00     0.000 HD
BRANCH 42 49
ATOM     49   O  IDS C   3     106.211  40.642  16.1190  0.00  0.00     0.000 O
ATOM     50   S  IDS C   3     107.252  39.666  16.8450  0.00  0.00     0.000 S
ATOM     51   O  IDS C   3     108.239  40.574  17.3870  0.00  0.00     0.000 OA
ATOM     52   O  IDS C   3     107.815  38.747  15.8690  0.00  0.00     0.000 OA
ATOM     53   O  IDS C   3     106.501  38.974  17.8710  0.00  0.00     0.000 OA
ENDBRANCH 42 49
BRANCH 45 54
ATOM     54   C  IDS C   3     103.205  43.971  14.6380  0.00  0.00     0.000 C
ATOM     55   O  IDS C   3     102.186  43.331  14.6060  0.00  0.00     0.000 OA
ATOM     56   O  IDS C   3     103.172  45.167  14.8580  0.00  0.00     0.000 OA
ENDBRANCH 45 54
BRANCH 41 57
ATOM     57  O4  SGN C   4     106.026  41.441  12.6320  0.00  0.00     0.000 O
BRANCH 57 61
ATOM     58  C1  SGN C   4     104.979  41.092   8.5930  0.00  0.00     0.000 C
ATOM     59  C2  SGN C   4     104.222  42.148   9.4140  0.00  0.00     0.000 C
ATOM     60  C3  SGN C   4     104.957  42.462  10.7250  0.00  0.00     0.000 C
ATOM     61  C4  SGN C   4     105.210  41.173  11.4870  0.00  0.00     0.000 C
ATOM     62  C5  SGN C   4     105.937  40.161  10.6030  0.00  0.00     0.000 C
ATOM     63  O5  SGN C   4     105.205  39.934   9.3840  0.00  0.00     0.000 O
BRANCH 59 66
ATOM     64   N  SGN C   4     103.999  43.244   8.4660  0.00  0.00     0.000 N
ATOM     66  HD  SGN C   4     104.102  42.778   9.1880  0.00  0.00     0.000 HD
ATOM     66   O  SGN C   4     102.619  44.879   7.3020  0.00  0.00     0.000 OA
ATOM     67   O  SGN C   4     101.759  42.612   7.7020  0.00  0.00     0.000 OA
ATOM     68   S  SGN C   4     102.525  43.851   8.2810  0.00  0.00     0.000 S
ATOM     69   O  SGN C   4     102.004  44.157   9.5640  0.00  0.00     0.000 OA
ENDBRANCH 59 66
BRANCH 62 70
ATOM     70   C  SGN C   4     106.081  38.826  11.2900  0.00  0.00     0.000 C
ATOM     71   S  SGN C   4     104.788  37.024  12.5760  0.00  0.00     0.000 S
ATOM     72   O  SGN C   4     105.438  36.006  11.7740  0.00  0.00     0.000 OA
ATOM     73   O  SGN C   4     105.526  37.368  13.7750  0.00  0.00     0.000 OA
ATOM     74   O  SGN C   4     103.385  36.769  12.8080  0.00  0.00     0.000 OA
ATOM     75   O  SGN C   4     104.793  38.323  11.6620  0.00  0.00     0.000 O
ENDBRANCH 62 70
ENDBRANCH 57 61
ENDBRANCH 41 57
ENDBRANCH 40 44
ENDBRANCH 20 40
ENDBRANCH 19 23
ENDBRANCH 1 19
TORSDOF 14
ENDMDL
MODEL 62
REMARK VINA RESULT:      -0.7     81.670     86.131
ROOT
ATOM      1  C1  IDS C   1      56.964  65.991  85.1650  0.00  0.00     0.000 C
ATOM      2  C2  IDS C   1      56.614  64.536  85.4210  0.00  0.00     0.000 C
ATOM      3  C3  IDS C   1      57.496  63.953  86.5180  0.00  0.00     0.000 C
ATOM      4  C4  IDS C   1      57.489  64.841  87.7630  0.00  0.00     0.000 C
ATOM      5  C5  IDS C   1      57.762  66.308  87.3730  0.00  0.00     0.000 C
ATOM      6  O5  IDS C   1      56.843  66.738  86.3750  0.00  0.00     0.000 O
ATOM      7   O  IDS C   1      58.827  63.794  86.0250  0.00  0.00     0.000 O
ATOM      9  HD  IDS C   1      58.981  63.888  86.8720  0.00  0.00     0.000 HD
ATOM      9   O  IDS C   1      56.203  64.748  88.3950  0.00  0.00     0.000 O
ATOM     11  HD  IDS C   1      56.356  64.842  89.2420  0.00  0.00     0.000 HD
ENDROOT
BRANCH 2 11
ATOM     11   O  IDS C   1      55.207  64.420  85.8660  0.00  0.00     0.000 O
ATOM     12   S  IDS C   1      54.163  63.535  85.0410  0.00  0.00     0.000 S
ATOM     13   O  IDS C   1      53.317  63.005  86.0870  0.00  0.00     0.000 OA
ATOM     14   O  IDS C   1      54.874  62.509  84.3160  0.00  0.00     0.000 OA
ATOM     15   O  IDS C   1      53.491  64.476  84.1800  0.00  0.00     0.000 OA
ENDBRANCH 2 11
BRANCH 5 16
ATOM     16   C  IDS C   1      57.657  67.269  88.5440  0.00  0.00     0.000 C
ATOM     17   O  IDS C   1      57.463  68.445  88.3190  0.00  0.00     0.000 OA
ATOM     18   O  IDS C   1      57.778  66.879  89.6720  0.00  0.00     0.000 OA
ENDBRANCH 5 16
BRANCH 1 19
ATOM     19  O4  SGN C   2      58.025  66.279  84.4050  0.00  0.00     0.000 O
BRANCH 19 23
ATOM     20  C1  SGN C   2      59.527  68.805  81.4400  0.00  0.00     0.000 C
ATOM     21  C2  SGN C   2      59.421  69.393  82.8510  0.00  0.00     0.000 C
ATOM     22  C3  SGN C   2      59.285  68.266  83.8710  0.00  0.00     0.000 C
ATOM     23  C4  SGN C   2      58.079  67.401  83.5220  0.00  0.00     0.000 C
ATOM     24  C5  SGN C   2      58.192  66.912  82.0760  0.00  0.00     0.000 C
ATOM     25  O5  SGN C   2      58.362  68.035  81.1920  0.00  0.00     0.000 O
ATOM     26   O  SGN C   2      59.170  68.796  85.1870  0.00  0.00     0.000 O
ATOM     28  HD  SGN C   2      59.175  69.194  85.9560  0.00  0.00     0.000 HD
BRANCH 21 30
ATOM     28   N  SGN C   2      60.427  70.354  82.3790  0.00  0.00     0.000 N
ATOM     30  HD  SGN C   2      61.135  70.472  82.8640  0.00  0.00     0.000 HD
ATOM     30   S  SGN C   2      60.423  71.874  82.8790  0.00  0.00     0.000 S
ATOM     31   O  SGN C   2      60.428  71.801  84.3020  0.00  0.00     0.000 OA
ATOM     32   O  SGN C   2      61.451  72.572  82.2030  0.00  0.00     0.000 OA
ATOM     33   O  SGN C   2      59.060  72.442  82.3540  0.00  0.00     0.000 OA
ENDBRANCH 21 30
BRANCH 24 34
ATOM     34   C  SGN C   2      56.971  66.168  81.5900  0.00  0.00     0.000 C
ATOM     35   O  SGN C   2      57.293  64.772  81.4640  0.00  0.00     0.000 O
ATOM     36   S  SGN C   2      56.338  63.887  80.5390  0.00  0.00     0.000 S
ATOM     37   O  SGN C   2      56.309  64.583  79.2670  0.00  0.00     0.000 OA
ATOM     38   O  SGN C   2      56.960  62.587  80.4680  0.00  0.00     0.000 OA
ATOM     39   O  SGN C   2      55.076  63.891  81.2370  0.00  0.00     0.000 OA
ENDBRANCH 24 34
BRANCH 20 40
ATOM     40  O4  IDS C   3      60.602  68.074  81.1570  0.00  0.00     0.000 O
BRANCH 40 44
ATOM     41  C1  IDS C   3      63.685  66.554  80.3700  0.00  0.00     0.000 C
ATOM     42  C2  IDS C   3      63.613  67.976  80.9200  0.00  0.00     0.000 C
ATOM     43  C3  IDS C   3      62.640  68.816  80.0950  0.00  0.00     0.000 C
ATOM     44  C4  IDS C   3      61.305  68.111  79.9120  0.00  0.00     0.000 C
ATOM     45  C5  IDS C   3      61.535  66.673  79.4010  0.00  0.00     0.000 C
ATOM     46  O5  IDS C   3      62.384  65.974  80.3130  0.00  0.00     0.000 O
ATOM     47   O  IDS C   3      63.219  69.099  78.8240  0.00  0.00     0.000 O
ATOM     49  HD  IDS C   3      63.150  69.216  79.6790  0.00  0.00     0.000 HD
BRANCH 42 49
ATOM     49   O  IDS C   3      63.148  67.956  82.3260  0.00  0.00     0.000 O
ATOM     50   S  IDS C   3      63.918  68.828  83.4280  0.00  0.00     0.000 S
ATOM     51   O  IDS C   3      63.547  70.186  83.0970  0.00  0.00     0.000 OA
ATOM     52   O  IDS C   3      65.348  68.596  83.3150  0.00  0.00     0.000 OA
ATOM     53   O  IDS C   3      63.397  68.398  84.7090  0.00  0.00     0.000 OA
ENDBRANCH 42 49
BRANCH 45 54
ATOM     54   C  IDS C   3      60.248  65.882  79.2270  0.00  0.00     0.000 C
ATOM     55   O  IDS C   3      59.363  66.326  78.5420  0.00  0.00     0.000 OA
ATOM     56   O  IDS C   3      60.111  64.815  79.7930  0.00  0.00     0.000 OA
ENDBRANCH 45 54
BRANCH 41 57
ATOM     57  O4  SGN C   4      64.477  66.591  79.2920  0.00  0.00     0.000 O
BRANCH 57 61
ATOM     58  C1  SGN C   4      66.320  63.890  76.6760  0.00  0.00     0.000 C
ATOM     59  C2  SGN C   4      64.783  63.922  76.6670  0.00  0.00     0.000 C
ATOM     60  C3  SGN C   4      64.251  65.198  77.3350  0.00  0.00     0.000 C
ATOM     61  C4  SGN C   4      64.849  65.330  78.7250  0.00  0.00     0.000 C
ATOM     62  C5  SGN C   4      66.374  65.261  78.6620  0.00  0.00     0.000 C
ATOM     63  O5  SGN C   4      66.800  64.053  78.0030  0.00  0.00     0.000 O
BRANCH 59 66
ATOM     64   N  SGN C   4      64.428  63.678  75.2650  0.00  0.00     0.000 N
ATOM     66  HD  SGN C   4      64.414  63.922  76.0960  0.00  0.00     0.000 HD
ATOM     66   O  SGN C   4      63.236  62.523  73.4820  0.00  0.00     0.000 OA
ATOM     67   O  SGN C   4      64.133  61.249  75.3840  0.00  0.00     0.000 OA
ATOM     68   S  SGN C   4      63.369  62.529  74.8990  0.00  0.00     0.000 S
ATOM     69   O  SGN C   4      62.216  62.711  75.7060  0.00  0.00     0.000 OA
ENDBRANCH 59 66
BRANCH 62 70
ATOM     70   C  SGN C   4      66.986  65.255  80.0400  0.00  0.00     0.000 C
ATOM     71   S  SGN C   4      66.897  64.098  82.3260  0.00  0.00     0.000 S
ATOM     72   O  SGN C   4      68.345  64.038  82.3360  0.00  0.00     0.000 OA
ATOM     73   O  SGN C   4      66.369  65.315  82.9090  0.00  0.00     0.000 OA
ATOM     74   O  SGN C   4      66.265  62.895  82.8180  0.00  0.00     0.000 OA
ATOM     75   O  SGN C   4      66.504  64.132  80.7880  0.00  0.00     0.000 O
ENDBRANCH 62 70
ENDBRANCH 57 61
ENDBRANCH 41 57
ENDBRANCH 40 44
ENDBRANCH 20 40
ENDBRANCH 19 23
ENDBRANCH 1 19
TORSDOF 14
ENDMDL
MODEL 63
REMARK VINA RESULT:      -0.7    110.658    115.007
ROOT
ATOM      1  C1  IDS C   1      72.866  96.248  90.6790  0.00  0.00     0.000 C
ATOM      2  C2  IDS C   1      71.671  95.509  91.2550  0.00  0.00     0.000 C
ATOM      3  C3  IDS C   1      72.120  94.273  92.0240  0.00  0.00     0.000 C
ATOM      4  C4  IDS C   1      73.208  94.619  93.0410  0.00  0.00     0.000 C
ATOM      5  C5  IDS C   1      74.321  95.447  92.3690  0.00  0.00     0.000 C
ATOM      6  O5  IDS C   1      73.772  96.593  91.7260  0.00  0.00     0.000 O
ATOM      7   O  IDS C   1      72.590  93.285  91.1050  0.00  0.00     0.000 O
ATOM      9  HD  IDS C   1      73.041  93.072  91.8130  0.00  0.00     0.000 HD
ATOM      9   O  IDS C   1      72.624  95.383  94.1070  0.00  0.00     0.000 O
ATOM     11  HD  IDS C   1      73.075  95.170  94.8150  0.00  0.00     0.000 HD
ENDROOT
BRANCH 2 11
ATOM     11   O  IDS C   1      70.936  96.383  92.1980  0.00  0.00     0.000 O
ATOM     12   S  IDS C   1      69.399  96.741  91.9450  0.00  0.00     0.000 S
ATOM     13   O  IDS C   1      68.877  96.815  93.2920  0.00  0.00     0.000 OA
ATOM     14   O  IDS C   1      68.787  95.696  91.1600  0.00  0.00     0.000 OA
ATOM     15   O  IDS C   1      69.430  98.014  91.2700  0.00  0.00     0.000 OA
ENDBRANCH 2 11
BRANCH 5 16
ATOM     16   C  IDS C   1      75.382  95.927  93.3420  0.00  0.00     0.000 C
ATOM     17   O  IDS C   1      75.544  95.318  94.3780  0.00  0.00     0.000 OA
ATOM     18   O  IDS C   1      76.041  96.902  93.1030  0.00  0.00     0.000 OA
ENDBRANCH 5 16
BRANCH 1 19
ATOM     19  O4  SGN C   2      73.422  95.801  89.5490  0.00  0.00     0.000 O
BRANCH 19 23
ATOM     20  C1  SGN C   2      75.176  96.903  85.9250  0.00  0.00     0.000 C
ATOM     21  C2  SGN C   2      76.028  97.097  87.1850  0.00  0.00     0.000 C
ATOM     22  C3  SGN C   2      75.450  96.270  88.3310  0.00  0.00     0.000 C
ATOM     23  C4  SGN C   2      73.995  96.659  88.5610  0.00  0.00     0.000 C
ATOM     24  C5  SGN C   2      73.209  96.531  87.2530  0.00  0.00     0.000 C
ATOM     25  O5  SGN C   2      73.849  97.305  86.2220  0.00  0.00     0.000 O
ATOM     26   O  SGN C   2      76.221  96.450  89.5140  0.00  0.00     0.000 O
ATOM     28  HD  SGN C   2      76.779  96.560  90.1660  0.00  0.00     0.000 HD
BRANCH 21 30
ATOM     28   N  SGN C   2      77.113  97.173  86.1980  0.00  0.00     0.000 N
ATOM     30  HD  SGN C   2      77.753  96.593  86.2530  0.00  0.00     0.000 HD
ATOM     30   S  SGN C   2      78.464  97.971  86.5100  0.00  0.00     0.000 S
ATOM     31   O  SGN C   2      78.943  97.434  87.7390  0.00  0.00     0.000 OA
ATOM     32   O  SGN C   2      79.283  97.936  85.3560  0.00  0.00     0.000 OA
ATOM     33   O  SGN C   2      77.996  99.455  86.6940  0.00  0.00     0.000 OA
ENDBRANCH 21 30
BRANCH 24 34
ATOM     34   C  SGN C   2      71.789  97.036  87.3460  0.00  0.00     0.000 C
ATOM     35   O  SGN C   2      70.895  95.910  87.4030  0.00  0.00     0.000 O
ATOM     36   S  SGN C   2      69.366  96.179  87.0320  0.00  0.00     0.000 S
ATOM     37   O  SGN C   2      69.408  96.808  85.7270  0.00  0.00     0.000 OA
ATOM     38   O  SGN C   2      68.734  94.882  87.0230  0.00  0.00     0.000 OA
ATOM     39   O  SGN C   2      68.899  97.047  88.0850  0.00  0.00     0.000 OA
ENDBRANCH 24 34
BRANCH 20 40
ATOM     40  O4  IDS C   3      75.154  95.691  85.3780  0.00  0.00     0.000 O
BRANCH 40 44
ATOM     41  C1  IDS C   3      75.491  92.586  83.7420  0.00  0.00     0.000 C
ATOM     42  C2  IDS C   3      76.703  93.462  84.0480  0.00  0.00     0.000 C
ATOM     43  C3  IDS C   3      76.478  94.880  83.5290  0.00  0.00     0.000 C
ATOM     44  C4  IDS C   3      75.133  95.435  83.9710  0.00  0.00     0.000 C
ATOM     45  C5  IDS C   3      74.014  94.425  83.6430  0.00  0.00     0.000 C
ATOM     46  O5  IDS C   3      74.304  93.173  84.2680  0.00  0.00     0.000 O
ATOM     47   O  IDS C   3      76.559  94.881  82.1060  0.00  0.00     0.000 O
ATOM     49  HD  IDS C   3      76.914  94.846  82.8950  0.00  0.00     0.000 HD
BRANCH 42 49
ATOM     49   O  IDS C   3      76.929  93.524  85.5110  0.00  0.00     0.000 O
ATOM     50   S  IDS C   3      78.416  93.381  86.0900  0.00  0.00     0.000 S
ATOM     51   O  IDS C   3      79.039  94.633  85.7210  0.00  0.00     0.000 OA
ATOM     52   O  IDS C   3      79.065  92.234  85.4780  0.00  0.00     0.000 OA
ATOM     53   O  IDS C   3      78.272  93.224  87.5220  0.00  0.00     0.000 OA
ENDBRANCH 42 49
BRANCH 45 54
ATOM     54   C  IDS C   3      72.635  94.886  84.0900  0.00  0.00     0.000 C
ATOM     55   O  IDS C   3      72.215  95.953  83.7220  0.00  0.00     0.000 OA
ATOM     56   O  IDS C   3      71.971  94.186  84.8290  0.00  0.00     0.000 OA
ENDBRANCH 45 54
BRANCH 41 57
ATOM     57  O4  SGN C   4      75.580  92.233  82.4540  0.00  0.00     0.000 O
BRANCH 57 61
ATOM     58  C1  SGN C   4      73.710  89.584  79.8050  0.00  0.00     0.000 C
ATOM     59  C2  SGN C   4      72.843  90.717  80.3770  0.00  0.00     0.000 C
ATOM     60  C3  SGN C   4      73.711  91.828  80.9820  0.00  0.00     0.000 C
ATOM     61  C4  SGN C   4      74.667  91.228  81.9990  0.00  0.00     0.000 C
ATOM     62  C5  SGN C   4      75.474  90.092  81.3720  0.00  0.00     0.000 C
ATOM     63  O5  SGN C   4      74.596  89.101  80.8040  0.00  0.00     0.000 O
BRANCH 59 66
ATOM     64   N  SGN C   4      71.941  91.068  79.2750  0.00  0.00     0.000 N
ATOM     66  HD  SGN C   4      72.418  91.089  79.9980  0.00  0.00     0.000 HD
ATOM     66   O  SGN C   4      69.752  91.489  78.2920  0.00  0.00     0.000 OA
ATOM     67   O  SGN C   4      70.045  89.644  79.8900  0.00  0.00     0.000 OA
ATOM     68   S  SGN C   4      70.358  91.138  79.5310  0.00  0.00     0.000 S
ATOM     69   O  SGN C   4      70.125  91.945  80.6740  0.00  0.00     0.000 OA
ENDBRANCH 59 66
BRANCH 62 70
ATOM     70   C  SGN C   4      76.333  89.392  82.3940  0.00  0.00     0.000 C
ATOM     71   S  SGN C   4      76.311  88.364  84.7420  0.00  0.00     0.000 S
ATOM     72   O  SGN C   4      77.033  87.215  84.2300  0.00  0.00     0.000 OA
ATOM     73   O  SGN C   4      77.179  89.428  85.2040  0.00  0.00     0.000 OA
ATOM     74   O  SGN C   4      75.265  88.019  85.6770  0.00  0.00     0.000 OA
ATOM     75   O  SGN C   4      75.526  88.940  83.4880  0.00  0.00     0.000 O
ENDBRANCH 62 70
ENDBRANCH 57 61
ENDBRANCH 41 57
ENDBRANCH 40 44
ENDBRANCH 20 40
ENDBRANCH 19 23
ENDBRANCH 1 19
TORSDOF 14
ENDMDL
MODEL 64
REMARK VINA RESULT:      -0.7     68.504     73.222
ROOT
ATOM      1  C1  IDS C   1      22.277  81.841  45.5980  0.00  0.00     0.000 C
ATOM      2  C2  IDS C   1      21.237  81.873  46.7040  0.00  0.00     0.000 C
ATOM      3  C3  IDS C   1      21.498  80.771  47.7230  0.00  0.00     0.000 C
ATOM      4  C4  IDS C   1      22.948  80.800  48.2080  0.00  0.00     0.000 C
ATOM      5  C5  IDS C   1      23.911  80.861  47.0060  0.00  0.00     0.000 C
ATOM      6  O5  IDS C   1      23.583  81.958  46.1600  0.00  0.00     0.000 O
ATOM      7   O  IDS C   1      21.190  79.502  47.1430  0.00  0.00     0.000 O
ATOM      9  HD  IDS C   1      21.782  79.270  47.7300  0.00  0.00     0.000 HD
ATOM      9   O  IDS C   1      23.141  81.959  49.0330  0.00  0.00     0.000 O
ATOM     11  HD  IDS C   1      23.733  81.727  49.6200  0.00  0.00     0.000 HD
ENDROOT
BRANCH 2 11
ATOM     11   O  IDS C   1      21.290  83.168  47.4180  0.00  0.00     0.000 O
ATOM     12   S  IDS C   1      20.003  84.114  47.4850  0.00  0.00     0.000 S
ATOM     13   O  IDS C   1      20.130  84.712  48.7960  0.00  0.00     0.000 OA
ATOM     14   O  IDS C   1      18.812  83.311  47.3440  0.00  0.00     0.000 OA
ATOM     15   O  IDS C   1      20.186  85.052  46.4050  0.00  0.00     0.000 OA
ENDBRANCH 2 11
BRANCH 5 16
ATOM     16   C  IDS C   1      25.367  81.009  47.4100  0.00  0.00     0.000 C
ATOM     17   O  IDS C   1      25.775  82.104  47.7340  0.00  0.00     0.000 OA
ATOM     18   O  IDS C   1      26.108  80.065  47.3960  0.00  0.00     0.000 OA
ENDBRANCH 5 16
BRANCH 1 19
ATOM     19  O4  SGN C   2      22.144  80.954  44.6080  0.00  0.00     0.000 O
BRANCH 19 23
ATOM     20  C1  SGN C   2      22.563  80.313  40.5040  0.00  0.00     0.000 C
ATOM     21  C2  SGN C   2      23.857  80.371  41.3230  0.00  0.00     0.000 C
ATOM     22  C3  SGN C   2      23.540  80.171  42.8030  0.00  0.00     0.000 C
ATOM     23  C4  SGN C   2      22.530  81.218  43.2580  0.00  0.00     0.000 C
ATOM     24  C5  SGN C   2      21.295  81.175  42.3530  0.00  0.00     0.000 C
ATOM     25  O5  SGN C   2      21.692  81.327  40.9780  0.00  0.00     0.000 O
ATOM     26   O  SGN C   2      24.730  80.238  43.5810  0.00  0.00     0.000 O
ATOM     28  HD  SGN C   2      25.503  80.224  43.9700  0.00  0.00     0.000 HD
BRANCH 21 30
ATOM     28   N  SGN C   2      24.483  79.552  40.2770  0.00  0.00     0.000 N
ATOM     30  HD  SGN C   2      24.998  78.902  40.5240  0.00  0.00     0.000 HD
ATOM     30   S  SGN C   2      25.957  79.873  39.7430  0.00  0.00     0.000 S
ATOM     31   O  SGN C   2      26.778  79.912  40.9060  0.00  0.00     0.000 OA
ATOM     32   O  SGN C   2      26.260  78.973  38.6930  0.00  0.00     0.000 OA
ATOM     33   O  SGN C   2      25.828  81.297  39.1030  0.00  0.00     0.000 OA
ENDBRANCH 21 30
BRANCH 24 34
ATOM     34   C  SGN C   2      20.300  82.276  42.6330  0.00  0.00     0.000 C
ATOM     35   O  SGN C   2      19.176  81.721  43.3390  0.00  0.00     0.000 O
ATOM     36   S  SGN C   2      17.820  82.566  43.3220  0.00  0.00     0.000 S
ATOM     37   O  SGN C   2      17.551  82.804  41.9180  0.00  0.00     0.000 OA
ATOM     38   O  SGN C   2      16.833  81.730  43.9620  0.00  0.00     0.000 OA
ATOM     39   O  SGN C   2      18.144  83.758  44.0670  0.00  0.00     0.000 OA
ENDBRANCH 24 34
BRANCH 20 40
ATOM     40  O4  IDS C   3      21.908  79.155  40.4700  0.00  0.00     0.000 O
BRANCH 40 44
ATOM     41  C1  IDS C   3      20.425  75.978  40.0950  0.00  0.00     0.000 C
ATOM     42  C2  IDS C   3      21.894  76.219  39.7570  0.00  0.00     0.000 C
ATOM     43  C3  IDS C   3      22.033  77.407  38.8090  0.00  0.00     0.000 C
ATOM     44  C4  IDS C   3      21.264  78.620  39.3100  0.00  0.00     0.000 C
ATOM     45  C5  IDS C   3      19.816  78.217  39.6580  0.00  0.00     0.000 C
ATOM     46  O5  IDS C   3      19.833  77.162  40.6230  0.00  0.00     0.000 O
ATOM     47   O  IDS C   3      21.566  77.038  37.5140  0.00  0.00     0.000 O
ATOM     49  HD  IDS C   3      22.152  77.024  38.1510  0.00  0.00     0.000 HD
BRANCH 42 49
ATOM     49   O  IDS C   3      22.661  76.505  40.9910  0.00  0.00     0.000 O
ATOM     50   S  IDS C   3      24.064  75.773  41.2410  0.00  0.00     0.000 S
ATOM     51   O  IDS C   3      24.946  76.409  40.2870  0.00  0.00     0.000 OA
ATOM     52   O  IDS C   3      23.916  74.348  41.0000  0.00  0.00     0.000 OA
ATOM     53   O  IDS C   3      24.422  76.058  42.6150  0.00  0.00     0.000 OA
ENDBRANCH 42 49
BRANCH 45 54
ATOM     54   C  IDS C   3      18.986  79.367  40.2070  0.00  0.00     0.000 C
ATOM     55   O  IDS C   3      18.465  79.264  41.2870  0.00  0.00     0.000 OA
ATOM     56   O  IDS C   3      18.838  80.377  39.5470  0.00  0.00     0.000 OA
ENDBRANCH 45 54
BRANCH 41 57
ATOM     57  O4  SGN C   4      19.884  75.336  39.0530  0.00  0.00     0.000 O
BRANCH 57 61
ATOM     58  C1  SGN C   4      16.304  73.382  38.1050  0.00  0.00     0.000 C
ATOM     59  C2  SGN C   4      16.219  74.895  38.3630  0.00  0.00     0.000 C
ATOM     60  C3  SGN C   4      17.605  75.550  38.2890  0.00  0.00     0.000 C
ATOM     61  C4  SGN C   4      18.557  74.830  39.2300  0.00  0.00     0.000 C
ATOM     62  C5  SGN C   4      18.569  73.331  38.9360  0.00  0.00     0.000 C
ATOM     63  O5  SGN C   4      17.235  72.791  38.9990  0.00  0.00     0.000 O
BRANCH 59 66
ATOM     64   N  SGN C   4      15.214  75.406  37.4250  0.00  0.00     0.000 N
ATOM     66  HD  SGN C   4      15.862  75.343  37.9950  0.00  0.00     0.000 HD
ATOM     66   O  SGN C   4      13.135  76.541  36.8520  0.00  0.00     0.000 OA
ATOM     67   O  SGN C   4      13.217  75.035  38.7940  0.00  0.00     0.000 OA
ATOM     68   S  SGN C   4      13.921  76.177  37.9820  0.00  0.00     0.000 S
ATOM     69   O  SGN C   4      14.354  77.184  38.8820  0.00  0.00     0.000 OA
ENDBRANCH 59 66
BRANCH 62 70
ATOM     70   C  SGN C   4      19.402  72.576  39.9420  0.00  0.00     0.000 C
ATOM     71   S  SGN C   4      19.874  72.326  42.4490  0.00  0.00     0.000 S
ATOM     72   O  SGN C   4      19.830  70.885  42.2990  0.00  0.00     0.000 OA
ATOM     73   O  SGN C   4      21.195  72.885  42.2440  0.00  0.00     0.000 OA
ATOM     74   O  SGN C   4      19.218  72.802  43.6460  0.00  0.00     0.000 OA
ATOM     75   O  SGN C   4      18.966  72.883  41.2710  0.00  0.00     0.000 O
ENDBRANCH 62 70
ENDBRANCH 57 61
ENDBRANCH 41 57
ENDBRANCH 40 44
ENDBRANCH 20 40
ENDBRANCH 19 23
ENDBRANCH 1 19
TORSDOF 14
ENDMDL
MODEL 65
REMARK VINA RESULT:      -0.7     91.120     94.575
ROOT
ATOM      1  C1  IDS C   1      61.437  66.507  95.6700  0.00  0.00     0.000 C
ATOM      2  C2  IDS C   1      62.916  66.164  95.6850  0.00  0.00     0.000 C
ATOM      3  C3  IDS C   1      63.698  67.180  96.5070  0.00  0.00     0.000 C
ATOM      4  C4  IDS C   1      63.073  67.372  97.8890  0.00  0.00     0.000 C
ATOM      5  C5  IDS C   1      61.556  67.621  97.7580  0.00  0.00     0.000 C
ATOM      6  O5  IDS C   1      60.944  66.578  97.0070  0.00  0.00     0.000 O
ATOM      7   O  IDS C   1      63.750  68.423  95.8050  0.00  0.00     0.000 O
ATOM      9  HD  IDS C   1      63.823  68.699  96.6220  0.00  0.00     0.000 HD
ATOM      9   O  IDS C   1      63.295  66.188  98.6710  0.00  0.00     0.000 O
ATOM     11  HD  IDS C   1      63.369  66.464  99.4880  0.00  0.00     0.000 HD
ENDROOT
BRANCH 2 11
ATOM     11   O  IDS C   1      63.125  64.833  96.2980  0.00  0.00     0.000 O
ATOM     12   S  IDS C   1      63.873  63.674  95.4910  0.00  0.00     0.000 S
ATOM     13   O  IDS C   1      64.583  62.979  96.5420  0.00  0.00     0.000 OA
ATOM     14   O  IDS C   1      64.752  64.264  94.5110  0.00  0.00     0.000 OA
ATOM     15   O  IDS C   1      62.810  62.896  94.9050  0.00  0.00     0.000 OA
ENDBRANCH 2 11
BRANCH 5 16
ATOM     16   C  IDS C   1      60.845  67.707  99.0960  0.00  0.00     0.000 C
ATOM     17   O  IDS C   1      61.490  67.987 100.0840  0.00  0.00     0.000 OA
ATOM     18   O  IDS C   1      59.669  67.486  99.1830  0.00  0.00     0.000 OA
ENDBRANCH 5 16
BRANCH 1 19
ATOM     19  O4  SGN C   2      60.999  67.454  94.8350  0.00  0.00     0.000 O
BRANCH 19 23
ATOM     20  C1  SGN C   2      57.958  68.553  92.1950  0.00  0.00     0.000 C
ATOM     21  C2  SGN C   2      57.630  68.637  93.6910  0.00  0.00     0.000 C
ATOM     22  C3  SGN C   2      58.922  68.636  94.5030  0.00  0.00     0.000 C
ATOM     23  C4  SGN C   2      59.738  67.393  94.1670  0.00  0.00     0.000 C
ATOM     24  C5  SGN C   2      59.962  67.312  92.6540  0.00  0.00     0.000 C
ATOM     25  O5  SGN C   2      58.697  67.364  91.9700  0.00  0.00     0.000 O
ATOM     26   O  SGN C   2      58.636  68.697  95.8950  0.00  0.00     0.000 O
ATOM     28  HD  SGN C   2      58.379  68.805  96.7160  0.00  0.00     0.000 HD
BRANCH 21 30
ATOM     28   N  SGN C   2      56.579  69.573  93.2690  0.00  0.00     0.000 N
ATOM     30  HD  SGN C   2      56.533  70.339  93.6700  0.00  0.00     0.000 HD
ATOM     30   S  SGN C   2      55.172  69.637  94.0280  0.00  0.00     0.000 S
ATOM     31   O  SGN C   2      55.494  69.832  95.4010  0.00  0.00     0.000 OA
ATOM     32   O  SGN C   2      54.342  70.568  93.3570  0.00  0.00     0.000 OA
ATOM     33   O  SGN C   2      54.550  68.218  93.7970  0.00  0.00     0.000 OA
ENDBRANCH 21 30
BRANCH 24 34
ATOM     34   C  SGN C   2      60.635  66.035  92.2080  0.00  0.00     0.000 C
ATOM     35   O  SGN C   2      61.974  66.339  91.7770  0.00  0.00     0.000 O
ATOM     36   S  SGN C   2      62.695  65.265  90.8410  0.00  0.00     0.000 S
ATOM     37   O  SGN C   2      61.775  65.057  89.7400  0.00  0.00     0.000 OA
ATOM     38   O  SGN C   2      63.941  65.873  90.4400  0.00  0.00     0.000 OA
ATOM     39   O  SGN C   2      62.857  64.113  91.6930  0.00  0.00     0.000 OA
ENDBRANCH 24 34
BRANCH 20 40
ATOM     40  O4  IDS C   3      58.603  69.580  91.6480  0.00  0.00     0.000 O
BRANCH 40 44
ATOM     41  C1  IDS C   3      59.885  72.534  90.2130  0.00  0.00     0.000 C
ATOM     42  C2  IDS C   3      58.586  72.534  91.0140  0.00  0.00     0.000 C
ATOM     43  C3  IDS C   3      57.636  71.462  90.4860  0.00  0.00     0.000 C
ATOM     44  C4  IDS C   3      58.328  70.114  90.3510  0.00  0.00     0.000 C
ATOM     45  C5  IDS C   3      59.645  70.276  89.5640  0.00  0.00     0.000 C
ATOM     46  O5  IDS C   3      60.476  71.237  90.2190  0.00  0.00     0.000 O
ATOM     47   O  IDS C   3      57.117  71.870  89.2230  0.00  0.00     0.000 O
ATOM     49  HD  IDS C   3      57.156  71.913  90.0870  0.00  0.00     0.000 HD
BRANCH 42 49
ATOM     49   O  IDS C   3      58.868  72.257  92.4410  0.00  0.00     0.000 O
ATOM     50   S  IDS C   3      58.197  73.169  93.5740  0.00  0.00     0.000 S
ATOM     51   O  IDS C   3      56.808  72.769  93.5460  0.00  0.00     0.000 OA
ATOM     52   O  IDS C   3      58.381  74.572  93.2370  0.00  0.00     0.000 OA
ATOM     53   O  IDS C   3      58.860  72.818  94.8120  0.00  0.00     0.000 OA
ENDBRANCH 42 49
BRANCH 45 54
ATOM     54   C  IDS C   3      60.423  68.978  89.4170  0.00  0.00     0.000 C
ATOM     55   O  IDS C   3      59.884  68.010  88.9450  0.00  0.00     0.000 OA
ATOM     56   O  IDS C   3      61.577  68.916  89.7920  0.00  0.00     0.000 OA
ENDBRANCH 45 54
BRANCH 41 57
ATOM     57  O4  SGN C   4      59.639  73.179  89.0660  0.00  0.00     0.000 O
BRANCH 57 61
ATOM     58  C1  SGN C   4      61.796  74.770  85.8500  0.00  0.00     0.000 C
ATOM     59  C2  SGN C   4      61.802  73.239  85.9970  0.00  0.00     0.000 C
ATOM     60  C3  SGN C   4      60.676  72.767  86.9260  0.00  0.00     0.000 C
ATOM     61  C4  SGN C   4      60.772  73.501  88.2540  0.00  0.00     0.000 C
ATOM     62  C5  SGN C   4      60.790  75.013  88.0300  0.00  0.00     0.000 C
ATOM     63  O5  SGN C   4      61.854  75.379  87.1310  0.00  0.00     0.000 O
BRANCH 59 66
ATOM     64   N  SGN C   4      61.825  72.766  84.6090  0.00  0.00     0.000 N
ATOM     66  HD  SGN C   4      61.706  72.826  85.4650  0.00  0.00     0.000 HD
ATOM     66   O  SGN C   4      62.666  71.390  82.7830  0.00  0.00     0.000 OA
ATOM     67   O  SGN C   4      64.235  72.377  84.3980  0.00  0.00     0.000 OA
ATOM     68   S  SGN C   4      62.873  71.633  84.1700  0.00  0.00     0.000 S
ATOM     69   O  SGN C   4      62.778  70.555  85.0880  0.00  0.00     0.000 OA
ENDBRANCH 59 66
BRANCH 62 70
ATOM     70   C  SGN C   4      61.020  75.761  89.3190  0.00  0.00     0.000 C
ATOM     71   S  SGN C   4      62.541  75.893  91.3780  0.00  0.00     0.000 S
ATOM     72   O  SGN C   4      62.590  77.334  91.2320  0.00  0.00     0.000 OA
ATOM     73   O  SGN C   4      61.442  75.436  92.2050  0.00  0.00     0.000 OA
ATOM     74   O  SGN C   4      63.815  75.304  91.7250  0.00  0.00     0.000 OA
ATOM     75   O  SGN C   4      62.255  75.347  89.9150  0.00  0.00     0.000 O
ENDBRANCH 62 70
ENDBRANCH 57 61
ENDBRANCH 41 57
ENDBRANCH 40 44
ENDBRANCH 20 40
ENDBRANCH 19 23
ENDBRANCH 1 19
TORSDOF 14
ENDMDL
MODEL 66
REMARK VINA RESULT:      -0.7     60.380     65.064
ROOT
ATOM      1  C1  IDS C   1      68.594  43.316  14.8500  0.00  0.00     0.000 C
ATOM      2  C2  IDS C   1      68.205  43.906  16.1940  0.00  0.00     0.000 C
ATOM      3  C3  IDS C   1      68.867  45.263  16.4010  0.00  0.00     0.000 C
ATOM      4  C4  IDS C   1      68.626  46.184  15.2050  0.00  0.00     0.000 C
ATOM      5  C5  IDS C   1      68.965  45.451  13.8910  0.00  0.00     0.000 C
ATOM      6  O5  IDS C   1      68.248  44.224  13.8050  0.00  0.00     0.000 O
ATOM      7   O  IDS C   1      70.268  45.081  16.6170  0.00  0.00     0.000 O
ATOM      9  HD  IDS C   1      70.260  45.880  16.2840  0.00  0.00     0.000 HD
ATOM      9   O  IDS C   1      67.245  46.576  15.1890  0.00  0.00     0.000 O
ATOM     11  HD  IDS C   1      67.238  47.375  14.8550  0.00  0.00     0.000 HD
ENDROOT
BRANCH 2 11
ATOM     11   O  IDS C   1      66.740  44.107  16.2580  0.00  0.00     0.000 O
ATOM     12   S  IDS C   1      65.856  43.311  17.3250  0.00  0.00     0.000 S
ATOM     13   O  IDS C   1      64.830  44.277  17.6540  0.00  0.00     0.000 OA
ATOM     14   O  IDS C   1      66.678  42.955  18.4570  0.00  0.00     0.000 OA
ATOM     15   O  IDS C   1      65.357  42.168  16.6030  0.00  0.00     0.000 OA
ENDBRANCH 2 11
BRANCH 5 16
ATOM     16   C  IDS C   1      68.641  46.264  12.6500  0.00  0.00     0.000 C
ATOM     17   O  IDS C   1      68.346  45.679  11.6290  0.00  0.00     0.000 OA
ATOM     18   O  IDS C   1      68.691  47.463  12.6700  0.00  0.00     0.000 OA
ENDBRANCH 5 16
BRANCH 1 19
ATOM     19  O4  SGN C   2      69.777  42.708  14.7260  0.00  0.00     0.000 O
BRANCH 19 23
ATOM     20  C1  SGN C   2      71.832  39.550  12.9310  0.00  0.00     0.000 C
ATOM     21  C2  SGN C   2      71.492  40.744  12.0310  0.00  0.00     0.000 C
ATOM     22  C3  SGN C   2      71.154  41.958  12.8930  0.00  0.00     0.000 C
ATOM     23  C4  SGN C   2      70.010  41.612  13.8400  0.00  0.00     0.000 C
ATOM     24  C5  SGN C   2      70.367  40.363  14.6510  0.00  0.00     0.000 C
ATOM     25  O5  SGN C   2      70.713  39.286  13.7610  0.00  0.00     0.000 O
ATOM     26   O  SGN C   2      70.819  43.072  12.0740  0.00  0.00     0.000 O
ATOM     28  HD  SGN C   2      70.697  43.716  11.5070  0.00  0.00     0.000 HD
BRANCH 21 30
ATOM     28   N  SGN C   2      72.663  40.730  11.1450  0.00  0.00     0.000 N
ATOM     30  HD  SGN C   2      72.838  41.448  10.6930  0.00  0.00     0.000 HD
ATOM     30   S  SGN C   2      72.525  40.370   9.5930  0.00  0.00     0.000 S
ATOM     31   O  SGN C   2      71.526  41.251   9.0890  0.00  0.00     0.000 OA
ATOM     32   O  SGN C   2      73.818  40.363   9.0160  0.00  0.00     0.000 OA
ATOM     33   O  SGN C   2      72.014  38.889   9.5910  0.00  0.00     0.000 OA
ENDBRANCH 21 30
BRANCH 24 34
ATOM     34   C  SGN C   2      69.234  39.856  15.5130  0.00  0.00     0.000 C
ATOM     35   O  SGN C   2      69.521  40.162  16.8880  0.00  0.00     0.000 O
ATOM     36   S  SGN C   2      68.730  39.329  17.9970  0.00  0.00     0.000 S
ATOM     37   O  SGN C   2      68.975  37.941  17.6590  0.00  0.00     0.000 OA
ATOM     38   O  SGN C   2      69.304  39.722  19.2620  0.00  0.00     0.000 OA
ATOM     39   O  SGN C   2      67.358  39.740  17.8280  0.00  0.00     0.000 OA
ENDBRANCH 24 34
BRANCH 20 40
ATOM     40  O4  IDS C   3      72.925  39.639  13.6850  0.00  0.00     0.000 O
BRANCH 40 44
ATOM     41  C1  IDS C   3      75.970  39.744  15.4590  0.00  0.00     0.000 C
ATOM     42  C2  IDS C   3      75.913  39.998  13.9550  0.00  0.00     0.000 C
ATOM     43  C3  IDS C   3      75.170  38.864  13.2530  0.00  0.00     0.000 C
ATOM     44  C4  IDS C   3      73.838  38.565  13.9220  0.00  0.00     0.000 C
ATOM     45  C5  IDS C   3      74.042  38.381  15.4400  0.00  0.00     0.000 C
ATOM     46  O5  IDS C   3      74.659  39.550  15.9830  0.00  0.00     0.000 O
ATOM     47   O  IDS C   3      75.986  37.695  13.2490  0.00  0.00     0.000 O
ATOM     49  HD  IDS C   3      75.776  38.485  12.9630  0.00  0.00     0.000 HD
BRANCH 42 49
ATOM     49   O  IDS C   3      75.206  41.270  13.6790  0.00  0.00     0.000 O
ATOM     50   S  IDS C   3      75.830  42.315  12.6370  0.00  0.00     0.000 S
ATOM     51   O  IDS C   3      75.625  41.672  11.3580  0.00  0.00     0.000 OA
ATOM     52   O  IDS C   3      77.237  42.519  12.9400  0.00  0.00     0.000 OA
ATOM     53   O  IDS C   3      75.060  43.532  12.7850  0.00  0.00     0.000 OA
ENDBRANCH 42 49
BRANCH 45 54
ATOM     54   C  IDS C   3      72.749  38.116  16.1940  0.00  0.00     0.000 C
ATOM     55   O  IDS C   3      72.456  38.805  17.1380  0.00  0.00     0.000 OA
ATOM     56   O  IDS C   3      72.024  37.201  15.8540  0.00  0.00     0.000 OA
ENDBRANCH 45 54
BRANCH 41 57
ATOM     57  O4  SGN C   4      76.941  38.847  15.6690  0.00  0.00     0.000 O
BRANCH 57 61
ATOM     58  C1  SGN C   4      78.962  37.129  18.9080  0.00  0.00     0.000 C
ATOM     59  C2  SGN C   4      77.460  36.822  18.7880  0.00  0.00     0.000 C
ATOM     60  C3  SGN C   4      76.938  37.149  17.3820  0.00  0.00     0.000 C
ATOM     61  C4  SGN C   4      77.290  38.585  17.0310  0.00  0.00     0.000 C
ATOM     62  C5  SGN C   4      78.789  38.826  17.2010  0.00  0.00     0.000 C
ATOM     63  O5  SGN C   4      79.212  38.475  18.5320  0.00  0.00     0.000 O
BRANCH 59 66
ATOM     64   N  SGN C   4      77.336  35.441  19.2640  0.00  0.00     0.000 N
ATOM     66  HD  SGN C   4      77.198  36.200  18.8720  0.00  0.00     0.000 HD
ATOM     66   O  SGN C   4      76.379  33.686  20.6570  0.00  0.00     0.000 OA
ATOM     67   O  SGN C   4      76.811  35.911  21.6100  0.00  0.00     0.000 OA
ATOM     68   S  SGN C   4      76.260  35.081  20.3990  0.00  0.00     0.000 S
ATOM     69   O  SGN C   4      75.004  35.613  20.0090  0.00  0.00     0.000 OA
ENDBRANCH 59 66
BRANCH 62 70
ATOM     70   C  SGN C   4      79.145  40.276  16.9880  0.00  0.00     0.000 C
ATOM     71   S  SGN C   4      78.443  42.672  17.5680  0.00  0.00     0.000 S
ATOM     72   O  SGN C   4      79.828  42.995  17.8480  0.00  0.00     0.000 OA
ATOM     73   O  SGN C   4      78.073  42.886  16.1840  0.00  0.00     0.000 OA
ATOM     74   O  SGN C   4      77.514  43.245  18.5150  0.00  0.00     0.000 OA
ATOM     75   O  SGN C   4      78.332  41.109  17.8230  0.00  0.00     0.000 O
ENDBRANCH 62 70
ENDBRANCH 57 61
ENDBRANCH 41 57
ENDBRANCH 40 44
ENDBRANCH 20 40
ENDBRANCH 19 23
ENDBRANCH 1 19
TORSDOF 14
ENDMDL
MODEL 67
REMARK VINA RESULT:      -0.7    120.529    125.766
ROOT
ATOM      1  C1  IDS C   1      33.036 110.559 105.7060  0.00  0.00     0.000 C
ATOM      2  C2  IDS C   1      32.366 109.980 104.4720  0.00  0.00     0.000 C
ATOM      3  C3  IDS C   1      31.172 109.116 104.8610  0.00  0.00     0.000 C
ATOM      4  C4  IDS C   1      30.233 109.865 105.8070  0.00  0.00     0.000 C
ATOM      5  C5  IDS C   1      31.032 110.489 106.9680  0.00  0.00     0.000 C
ATOM      6  O5  IDS C   1      32.086 111.304 106.4670  0.00  0.00     0.000 O
ATOM      7   O  IDS C   1      31.636 107.909 105.4690  0.00  0.00     0.000 O
ATOM      9  HD  IDS C   1      30.855 107.984 105.8370  0.00  0.00     0.000 HD
ATOM      9   O  IDS C   1      29.566 110.905 105.0750  0.00  0.00     0.000 O
ATOM     11  HD  IDS C   1      28.785 110.979 105.4430  0.00  0.00     0.000 HD
ENDROOT
BRANCH 2 11
ATOM     11   O  IDS C   1      31.868 111.069 103.6030  0.00  0.00     0.000 O
ATOM     12   S  IDS C   1      32.313 111.154 102.0700  0.00  0.00     0.000 S
ATOM     13   O  IDS C   1      31.125 111.682 101.4350  0.00  0.00     0.000 OA
ATOM     14   O  IDS C   1      32.665 109.836 101.6000  0.00  0.00     0.000 OA
ATOM     15   O  IDS C   1      33.423 112.074 102.0650  0.00  0.00     0.000 OA
ENDBRANCH 2 11
BRANCH 5 16
ATOM     16   C  IDS C   1      30.182 111.347 107.8880  0.00  0.00     0.000 C
ATOM     17   O  IDS C   1      28.981 111.181 107.8970  0.00  0.00     0.000 OA
ATOM     18   O  IDS C   1      30.684 112.186 108.5840  0.00  0.00     0.000 OA
ENDBRANCH 5 16
BRANCH 1 19
ATOM     19  O4  SGN C   2      33.875 109.793 106.4080  0.00  0.00     0.000 O
BRANCH 19 23
ATOM     20  C1  SGN C   2      37.486 109.692 108.5000  0.00  0.00     0.000 C
ATOM     21  C2  SGN C   2      36.315 110.401 109.1910  0.00  0.00     0.000 C
ATOM     22  C3  SGN C   2      35.001 109.985 108.5330  0.00  0.00     0.000 C
ATOM     23  C4  SGN C   2      35.055 110.292 107.0410  0.00  0.00     0.000 C
ATOM     24  C5  SGN C   2      36.289 109.634 106.4190  0.00  0.00     0.000 C
ATOM     25  O5  SGN C   2      37.472 110.047 107.1270  0.00  0.00     0.000 O
ATOM     26   O  SGN C   2      33.903 110.646 109.1510  0.00  0.00     0.000 O
ATOM     28  HD  SGN C   2      33.290 111.033 109.6240  0.00  0.00     0.000 HD
BRANCH 21 30
ATOM     28   N  SGN C   2      36.962 110.103 110.4750  0.00  0.00     0.000 N
ATOM     30  HD  SGN C   2      36.462 109.833 111.1290  0.00  0.00     0.000 HD
ATOM     30   S  SGN C   2      37.049 111.201 111.6350  0.00  0.00     0.000 S
ATOM     31   O  SGN C   2      35.709 111.639 111.8390  0.00  0.00     0.000 OA
ATOM     32   O  SGN C   2      37.787 110.658 112.7140  0.00  0.00     0.000 OA
ATOM     33   O  SGN C   2      37.921 112.344 111.0110  0.00  0.00     0.000 OA
ENDBRANCH 21 30
BRANCH 24 34
ATOM     34   C  SGN C   2      36.509 110.004 104.9710  0.00  0.00     0.000 C
ATOM     35   O  SGN C   2      36.132 108.891 104.1420  0.00  0.00     0.000 O
ATOM     36   S  SGN C   2      36.708 108.867 102.6530  0.00  0.00     0.000 S
ATOM     37   O  SGN C   2      38.143 109.000 102.8110  0.00  0.00     0.000 OA
ATOM     38   O  SGN C   2      36.307 107.596 102.1000  0.00  0.00     0.000 OA
ATOM     39   O  SGN C   2      36.081 110.001 102.0190  0.00  0.00     0.000 OA
ENDBRANCH 24 34
BRANCH 20 40
ATOM     40  O4  IDS C   3      37.555 108.367 108.6090  0.00  0.00     0.000 O
BRANCH 40 44
ATOM     41  C1  IDS C   3      37.901 104.922 109.2680  0.00  0.00     0.000 C
ATOM     42  C2  IDS C   3      37.778 105.941 110.3960  0.00  0.00     0.000 C
ATOM     43  C3  IDS C   3      38.798 107.062 110.2140  0.00  0.00     0.000 C
ATOM     44  C4  IDS C   3      38.764 107.631 108.8040  0.00  0.00     0.000 C
ATOM     45  C5  IDS C   3      38.848 106.485 107.7730  0.00  0.00     0.000 C
ATOM     46  O5  IDS C   3      37.781 105.562 108.0000  0.00  0.00     0.000 O
ATOM     47   O  IDS C   3      40.103 106.566 110.5060  0.00  0.00     0.000 O
ATOM     49  HD  IDS C   3      39.315 106.840 110.7410  0.00  0.00     0.000 HD
BRANCH 42 49
ATOM     49   O  IDS C   3      36.420 106.534 110.4020  0.00  0.00     0.000 O
ATOM     50   S  IDS C   3      35.617 106.666 111.7820  0.00  0.00     0.000 S
ATOM     51   O  IDS C   3      36.317 107.724 112.4750  0.00  0.00     0.000 OA
ATOM     52   O  IDS C   3      35.671 105.400 112.4950  0.00  0.00     0.000 OA
ATOM     53   O  IDS C   3      34.263 107.029 111.4210  0.00  0.00     0.000 OA
ENDBRANCH 42 49
BRANCH 45 54
ATOM     54   C  IDS C   3      38.780 106.966 106.3320  0.00  0.00     0.000 C
ATOM     55   O  IDS C   3      37.934 106.527 105.5960  0.00  0.00     0.000 OA
ATOM     56   O  IDS C   3      39.588 107.777 105.9240  0.00  0.00     0.000 OA
ENDBRANCH 45 54
BRANCH 41 57
ATOM     57  O4  SGN C   4      38.951 104.144 109.5560  0.00  0.00     0.000 O
BRANCH 57 61
ATOM     58  C1  SGN C   4      40.502 100.440 108.3700  0.00  0.00     0.000 C
ATOM     59  C2  SGN C   4      40.658 101.604 107.3780  0.00  0.00     0.000 C
ATOM     60  C3  SGN C   4      40.436 102.956 108.0710  0.00  0.00     0.000 C
ATOM     61  C4  SGN C   4      39.095 102.947 108.7850  0.00  0.00     0.000 C
ATOM     62  C5  SGN C   4      38.999 101.750 109.7300  0.00  0.00     0.000 C
ATOM     63  O5  SGN C   4      39.241 100.521 109.0180  0.00  0.00     0.000 O
BRANCH 59 66
ATOM     64   N  SGN C   4      41.961 101.394 106.7390  0.00  0.00     0.000 N
ATOM     66  HD  SGN C   4      41.223 101.745 107.0280  0.00  0.00     0.000 HD
ATOM     66   O  SGN C   4      43.429 101.085 104.8200  0.00  0.00     0.000 OA
ATOM     67   O  SGN C   4      41.226  99.995 104.8670  0.00  0.00     0.000 OA
ATOM     68   S  SGN C   4      42.058 101.296 105.1400  0.00  0.00     0.000 S
ATOM     69   O  SGN C   4      41.375 102.406 104.5810  0.00  0.00     0.000 OA
ENDBRANCH 59 66
BRANCH 62 70
ATOM     70   C  SGN C   4      37.629 101.642 110.3500  0.00  0.00     0.000 C
ATOM     71   S  SGN C   4      35.125 101.575 109.8070  0.00  0.00     0.000 S
ATOM     72   O  SGN C   4      34.970 100.463 110.7240  0.00  0.00     0.000 OA
ATOM     73   O  SGN C   4      34.965 102.868 110.4410  0.00  0.00     0.000 OA
ATOM     74   O  SGN C   4      34.366 101.427 108.5860  0.00  0.00     0.000 OA
ATOM     75   O  SGN C   4      36.636 101.497 109.3270  0.00  0.00     0.000 O
ENDBRANCH 62 70
ENDBRANCH 57 61
ENDBRANCH 41 57
ENDBRANCH 40 44
ENDBRANCH 20 40
ENDBRANCH 19 23
ENDBRANCH 1 19
TORSDOF 14
ENDMDL
MODEL 68
REMARK VINA RESULT:      -0.7     76.612     80.087
ROOT
ATOM      1  C1  IDS C   1      88.614  23.183  63.3490  0.00  0.00     0.000 C
ATOM      2  C2  IDS C   1      88.312  21.839  63.9870  0.00  0.00     0.000 C
ATOM      3  C3  IDS C   1      87.264  21.983  65.0830  0.00  0.00     0.000 C
ATOM      4  C4  IDS C   1      86.036  22.742  64.5770  0.00  0.00     0.000 C
ATOM      5  C5  IDS C   1      86.467  24.041  63.8670  0.00  0.00     0.000 C
ATOM      6  O5  IDS C   1      87.412  23.758  62.8400  0.00  0.00     0.000 O
ATOM      7   O  IDS C   1      87.838  22.655  66.2060  0.00  0.00     0.000 O
ATOM      9  HD  IDS C   1      87.005  22.868  66.3010  0.00  0.00     0.000 HD
ATOM      9   O  IDS C   1      85.322  21.908  63.6520  0.00  0.00     0.000 O
ATOM     11  HD  IDS C   1      84.488  22.121  63.7480  0.00  0.00     0.000 HD
ENDROOT
BRANCH 2 11
ATOM     11   O  IDS C   1      87.776  20.903  62.9730  0.00  0.00     0.000 O
ATOM     12   S  IDS C   1      88.510  19.514  62.6800  0.00  0.00     0.000 S
ATOM     13   O  IDS C   1      87.399  18.637  62.3820  0.00  0.00     0.000 OA
ATOM     14   O  IDS C   1      89.251  19.108  63.8490  0.00  0.00     0.000 OA
ATOM     15   O  IDS C   1      89.351  19.782  61.5390  0.00  0.00     0.000 OA
ENDBRANCH 2 11
BRANCH 5 16
ATOM     16   C  IDS C   1      85.309  24.792  63.2360  0.00  0.00     0.000 C
ATOM     17   O  IDS C   1      84.190  24.611  63.6680  0.00  0.00     0.000 OA
ATOM     18   O  IDS C   1      85.489  25.540  62.3150  0.00  0.00     0.000 OA
ENDBRANCH 5 16
BRANCH 1 19
ATOM     19  O4  SGN C   2      89.445  24.024  63.9720  0.00  0.00     0.000 O
BRANCH 19 23
ATOM     20  C1  SGN C   2      92.514  26.809  63.4670  0.00  0.00     0.000 C
ATOM     21  C2  SGN C   2      91.104  27.266  63.0760  0.00  0.00     0.000 C
ATOM     22  C3  SGN C   2      90.068  26.340  63.7090  0.00  0.00     0.000 C
ATOM     23  C4  SGN C   2      90.339  24.901  63.2850  0.00  0.00     0.000 C
ATOM     24  C5  SGN C   2      91.786  24.525  63.6180  0.00  0.00     0.000 C
ATOM     25  O5  SGN C   2      92.687  25.474  63.0200  0.00  0.00     0.000 O
ATOM     26   O  SGN C   2      88.752  26.741  63.3440  0.00  0.00     0.000 O
ATOM     28  HD  SGN C   2      87.988  27.090  63.1320  0.00  0.00     0.000 HD
BRANCH 21 30
ATOM     28   N  SGN C   2      91.272  28.681  63.4320  0.00  0.00     0.000 N
ATOM     30  HD  SGN C   2      90.561  29.143  63.6080  0.00  0.00     0.000 HD
ATOM     30   S  SGN C   2      91.155  29.833  62.3270  0.00  0.00     0.000 S
ATOM     31   O  SGN C   2      89.896  29.621  61.6950  0.00  0.00     0.000 OA
ATOM     32   O  SGN C   2      91.437  31.076  62.9430  0.00  0.00     0.000 OA
ATOM     33   O  SGN C   2      92.333  29.533  61.3390  0.00  0.00     0.000 OA
ENDBRANCH 21 30
BRANCH 24 34
ATOM     34   C  SGN C   2      92.193  23.165  63.1010  0.00  0.00     0.000 C
ATOM     35   O  SGN C   2      92.288  22.253  64.2090  0.00  0.00     0.000 O
ATOM     36   S  SGN C   2      93.141  20.923  63.9830  0.00  0.00     0.000 S
ATOM     37   O  SGN C   2      94.432  21.387  63.5150  0.00  0.00     0.000 OA
ATOM     38   O  SGN C   2      93.196  20.272  65.2700  0.00  0.00     0.000 OA
ATOM     39   O  SGN C   2      92.389  20.191  62.9930  0.00  0.00     0.000 OA
ENDBRANCH 24 34
BRANCH 20 40
ATOM     40  O4  IDS C   3      92.853  26.887  64.7510  0.00  0.00     0.000 O
BRANCH 40 44
ATOM     41  C1  IDS C   3      93.866  27.347  68.0970  0.00  0.00     0.000 C
ATOM     42  C2  IDS C   3      93.270  28.489  67.2790  0.00  0.00     0.000 C
ATOM     43  C3  IDS C   3      94.009  28.634  65.9510  0.00  0.00     0.000 C
ATOM     44  C4  IDS C   3      94.135  27.302  65.2290  0.00  0.00     0.000 C
ATOM     45  C5  IDS C   3      94.703  26.236  66.1890  0.00  0.00     0.000 C
ATOM     46  O5  IDS C   3      93.864  26.138  67.3420  0.00  0.00     0.000 O
ATOM     47   O  IDS C   3      95.303  29.184  66.1870  0.00  0.00     0.000 O
ATOM     49  HD  IDS C   3      94.442  29.249  66.1210  0.00  0.00     0.000 HD
BRANCH 42 49
ATOM     49   O  IDS C   3      91.840  28.223  66.9990  0.00  0.00     0.000 O
ATOM     50   S  IDS C   3      90.763  29.394  67.1870  0.00  0.00     0.000 S
ATOM     51   O  IDS C   3      91.038  30.281  66.0800  0.00  0.00     0.000 OA
ATOM     52   O  IDS C   3      90.964  30.032  68.4780  0.00  0.00     0.000 OA
ATOM     53   O  IDS C   3      89.465  28.760  67.0920  0.00  0.00     0.000 OA
ENDBRANCH 42 49
BRANCH 45 54
ATOM     54   C  IDS C   3      94.825  24.859  65.5550  0.00  0.00     0.000 C
ATOM     55   O  IDS C   3      95.375  24.738  64.4910  0.00  0.00     0.000 OA
ATOM     56   O  IDS C   3      94.354  23.889  66.1160  0.00  0.00     0.000 OA
ENDBRANCH 45 54
BRANCH 41 57
ATOM     57  O4  SGN C   4      94.987  27.812  68.6600  0.00  0.00     0.000 O
BRANCH 57 61
ATOM     58  C1  SGN C   4      97.853  26.535  71.4320  0.00  0.00     0.000 C
ATOM     59  C2  SGN C   4      97.699  25.689  70.1580  0.00  0.00     0.000 C
ATOM     60  C3  SGN C   4      96.945  26.462  69.0670  0.00  0.00     0.000 C
ATOM     61  C4  SGN C   4      95.623  26.964  69.6220  0.00  0.00     0.000 C
ATOM     62  C5  SGN C   4      95.850  27.770  70.9000  0.00  0.00     0.000 C
ATOM     63  O5  SGN C   4      96.581  26.993  71.8670  0.00  0.00     0.000 O
BRANCH 59 66
ATOM     64   N  SGN C   4      99.062  25.230  69.8710  0.00  0.00     0.000 N
ATOM     66  HD  SGN C   4      98.229  25.459  69.8000  0.00  0.00     0.000 HD
ATOM     66   O  SGN C   4     100.736  23.535  69.3640  0.00  0.00     0.000 OA
ATOM     67   O  SGN C   4      98.957  23.054  70.9910  0.00  0.00     0.000 OA
ATOM     68   S  SGN C   4      99.340  23.673  69.6020  0.00  0.00     0.000 S
ATOM     69   O  SGN C   4      98.419  23.217  68.6240  0.00  0.00     0.000 OA
ENDBRANCH 59 66
BRANCH 62 70
ATOM     70   C  SGN C   4      94.545  28.166  71.5440  0.00  0.00     0.000 C
ATOM     71   S  SGN C   4      92.218  27.299  72.1820  0.00  0.00     0.000 S
ATOM     72   O  SGN C   4      92.359  27.921  73.4840  0.00  0.00     0.000 OA
ATOM     73   O  SGN C   4      91.632  28.175  71.1880  0.00  0.00     0.000 OA
ATOM     74   O  SGN C   4      91.615  25.987  72.2310  0.00  0.00     0.000 OA
ATOM     75   O  SGN C   4      93.706  27.016  71.7050  0.00  0.00     0.000 O
ENDBRANCH 62 70
ENDBRANCH 57 61
ENDBRANCH 41 57
ENDBRANCH 40 44
ENDBRANCH 20 40
ENDBRANCH 19 23
ENDBRANCH 1 19
TORSDOF 14
ENDMDL
MODEL 69
REMARK VINA RESULT:      -0.7     79.232     83.980
ROOT
ATOM      1  C1  IDS C   1      45.581  81.283  49.7380  0.00  0.00     0.000 C
ATOM      2  C2  IDS C   1      44.902  81.005  48.4090  0.00  0.00     0.000 C
ATOM      3  C3  IDS C   1      45.494  79.766  47.7480  0.00  0.00     0.000 C
ATOM      4  C4  IDS C   1      45.518  78.582  48.7140  0.00  0.00     0.000 C
ATOM      5  C5  IDS C   1      46.142  79.004  50.0600  0.00  0.00     0.000 C
ATOM      6  O5  IDS C   1      45.469  80.142  50.5870  0.00  0.00     0.000 O
ATOM      7   O  IDS C   1      46.813  80.059  47.2840  0.00  0.00     0.000 O
ATOM      9  HD  IDS C   1      46.875  79.205  47.4120  0.00  0.00     0.000 HD
ATOM      9   O  IDS C   1      44.172  78.133  48.9340  0.00  0.00     0.000 O
ATOM     11  HD  IDS C   1      44.233  77.278  49.0620  0.00  0.00     0.000 HD
ENDROOT
BRANCH 2 11
ATOM     11   O  IDS C   1      43.457  80.756  48.6160  0.00  0.00     0.000 O
ATOM     12   S  IDS C   1      42.363  81.691  47.9220  0.00  0.00     0.000 S
ATOM     13   O  IDS C   1      41.294  80.757  47.6430  0.00  0.00     0.000 OA
ATOM     14   O  IDS C   1      42.924  82.279  46.7290  0.00  0.00     0.000 OA
ATOM     15   O  IDS C   1      42.026  82.665  48.9300  0.00  0.00     0.000 OA
ENDBRANCH 2 11
BRANCH 5 16
ATOM     16   C  IDS C   1      46.095  77.911  51.1120  0.00  0.00     0.000 C
ATOM     17   O  IDS C   1      45.059  77.723  51.7140  0.00  0.00     0.000 OA
ATOM     18   O  IDS C   1      47.068  77.252  51.3590  0.00  0.00     0.000 OA
ENDBRANCH 5 16
BRANCH 1 19
ATOM     19  O4  SGN C   2      46.766  81.901  49.7440  0.00  0.00     0.000 O
BRANCH 19 23
ATOM     20  C1  SGN C   2      49.159  84.705  51.7030  0.00  0.00     0.000 C
ATOM     21  C2  SGN C   2      48.982  83.350  52.3990  0.00  0.00     0.000 C
ATOM     22  C3  SGN C   2      48.473  82.317  51.3960  0.00  0.00     0.000 C
ATOM     23  C4  SGN C   2      47.175  82.810  50.7670  0.00  0.00     0.000 C
ATOM     24  C5  SGN C   2      47.385  84.201  50.1640  0.00  0.00     0.000 C
ATOM     25  O5  SGN C   2      47.906  85.094  51.1650  0.00  0.00     0.000 O
ATOM     26   O  SGN C   2      48.288  81.057  52.0300  0.00  0.00     0.000 O
ATOM     28  HD  SGN C   2      48.268  80.313  52.4730  0.00  0.00     0.000 HD
BRANCH 21 30
ATOM     28   N  SGN C   2      50.300  83.432  53.0420  0.00  0.00     0.000 N
ATOM     30  HD  SGN C   2      50.727  82.693  53.1880  0.00  0.00     0.000 HD
ATOM     30   S  SGN C   2      50.462  83.272  54.6250  0.00  0.00     0.000 S
ATOM     31   O  SGN C   2      49.824  82.039  54.9460  0.00  0.00     0.000 OA
ATOM     32   O  SGN C   2      51.823  83.472  54.9600  0.00  0.00     0.000 OA
ATOM     33   O  SGN C   2      49.662  84.483  55.2140  0.00  0.00     0.000 OA
ENDBRANCH 21 30
BRANCH 24 34
ATOM     34   C  SGN C   2      46.116  84.836  49.6460  0.00  0.00     0.000 C
ATOM     35   O  SGN C   2      46.117  84.777  48.2090  0.00  0.00     0.000 O
ATOM     36   S  SGN C   2      45.140  85.780  47.4410  0.00  0.00     0.000 S
ATOM     37   O  SGN C   2      45.477  87.092  47.9590  0.00  0.00     0.000 OA
ATOM     38   O  SGN C   2      45.442  85.622  46.0390  0.00  0.00     0.000 OA
ATOM     39   O  SGN C   2      43.820  85.328  47.8060  0.00  0.00     0.000 OA
ENDBRANCH 24 34
BRANCH 20 40
ATOM     40  O4  IDS C   3      50.088  84.792  50.7540  0.00  0.00     0.000 O
BRANCH 40 44
ATOM     41  C1  IDS C   3      52.811  85.071  48.5320  0.00  0.00     0.000 C
ATOM     42  C2  IDS C   3      52.994  84.562  49.9590  0.00  0.00     0.000 C
ATOM     43  C3  IDS C   3      52.375  85.540  50.9550  0.00  0.00     0.000 C
ATOM     44  C4  IDS C   3      50.953  85.914  50.5660  0.00  0.00     0.000 C
ATOM     45  C5  IDS C   3      50.913  86.360  49.0890  0.00  0.00     0.000 C
ATOM     46  O5  IDS C   3      51.434  85.317  48.2620  0.00  0.00     0.000 O
ATOM     47   O  IDS C   3      53.182  86.712  51.0330  0.00  0.00     0.000 O
ATOM     49  HD  IDS C   3      53.019  85.879  51.2070  0.00  0.00     0.000 HD
BRANCH 42 49
ATOM     49   O  IDS C   3      52.338  83.244  50.1190  0.00  0.00     0.000 O
ATOM     50   S  IDS C   3      53.141  82.035  50.7980  0.00  0.00     0.000 S
ATOM     51   O  IDS C   3      53.202  82.416  52.1910  0.00  0.00     0.000 OA
ATOM     52   O  IDS C   3      54.457  81.928  50.1900  0.00  0.00     0.000 OA
ATOM     53   O  IDS C   3      52.341  80.850  50.5720  0.00  0.00     0.000 OA
ENDBRANCH 42 49
BRANCH 45 54
ATOM     54   C  IDS C   3      49.517  86.717  48.6050  0.00  0.00     0.000 C
ATOM     55   O  IDS C   3      49.051  86.145  47.6530  0.00  0.00     0.000 OA
ATOM     56   O  IDS C   3      48.883  87.587  49.1680  0.00  0.00     0.000 OA
ENDBRANCH 45 54
BRANCH 41 57
ATOM     57  O4  SGN C   4      53.738  86.015  48.3310  0.00  0.00     0.000 O
BRANCH 57 61
ATOM     58  C1  SGN C   4      55.268  88.263  45.1470  0.00  0.00     0.000 C
ATOM     59  C2  SGN C   4      53.811  88.540  45.5520  0.00  0.00     0.000 C
ATOM     60  C3  SGN C   4      53.507  87.978  46.9470  0.00  0.00     0.000 C
ATOM     61  C4  SGN C   4      53.876  86.505  46.9940  0.00  0.00     0.000 C
ATOM     62  C5  SGN C   4      55.325  86.301  46.5520  0.00  0.00     0.000 C
ATOM     63  O5  SGN C   4      55.543  86.873  45.2480  0.00  0.00     0.000 O
BRANCH 59 66
ATOM     64   N  SGN C   4      53.637  89.982  45.3520  0.00  0.00     0.000 N
ATOM     66  HD  SGN C   4      53.544  89.162  45.6140  0.00  0.00     0.000 HD
ATOM     66   O  SGN C   4      52.524  91.942  44.4270  0.00  0.00     0.000 OA
ATOM     67   O  SGN C   4      52.823  89.933  43.0420  0.00  0.00     0.000 OA
ATOM     68   S  SGN C   4      52.431  90.522  44.4420  0.00  0.00     0.000 S
ATOM     69   O  SGN C   4      51.230  89.907  44.8810  0.00  0.00     0.000 OA
ENDBRANCH 59 66
BRANCH 62 70
ATOM     70   C  SGN C   4      55.675  84.837  46.4600  0.00  0.00     0.000 C
ATOM     71   S  SGN C   4      54.916  82.598  45.4700  0.00  0.00     0.000 S
ATOM     72   O  SGN C   4      56.280  82.336  45.0550  0.00  0.00     0.000 OA
ATOM     73   O  SGN C   4      54.620  82.121  46.8060  0.00  0.00     0.000 OA
ATOM     74   O  SGN C   4      53.929  82.220  44.4840  0.00  0.00     0.000 OA
ATOM     75   O  SGN C   4      54.808  84.182  45.5280  0.00  0.00     0.000 O
ENDBRANCH 62 70
ENDBRANCH 57 61
ENDBRANCH 41 57
ENDBRANCH 40 44
ENDBRANCH 20 40
ENDBRANCH 19 23
ENDBRANCH 1 19
TORSDOF 14
ENDMDL
MODEL 70
REMARK VINA RESULT:      -0.7     70.375     75.294
ROOT
ATOM      1  C1  IDS C   1      70.598  37.992  87.6670  0.00  0.00     0.000 C
ATOM      2  C2  IDS C   1      71.282  38.618  86.4650  0.00  0.00     0.000 C
ATOM      3  C3  IDS C   1      70.858  40.072  86.2990  0.00  0.00     0.000 C
ATOM      4  C4  IDS C   1      71.024  40.848  87.6060  0.00  0.00     0.000 C
ATOM      5  C5  IDS C   1      70.374  40.076  88.7720  0.00  0.00     0.000 C
ATOM      6  O5  IDS C   1      70.890  38.751  88.8400  0.00  0.00     0.000 O
ATOM      7   O  IDS C   1      69.501  40.125  85.8560  0.00  0.00     0.000 O
ATOM      9  HD  IDS C   1      69.564  40.885  86.2660  0.00  0.00     0.000 HD
ATOM      9   O  IDS C   1      72.424  41.022  87.8710  0.00  0.00     0.000 O
ATOM     11  HD  IDS C   1      72.488  41.782  88.2810  0.00  0.00     0.000 HD
ENDROOT
BRANCH 2 11
ATOM     11   O  IDS C   1      72.751  38.596  86.6440  0.00  0.00     0.000 O
ATOM     12   S  IDS C   1      73.687  37.843  85.5910  0.00  0.00     0.000 S
ATOM     13   O  IDS C   1      74.870  38.676  85.5830  0.00  0.00     0.000 OA
ATOM     14   O  IDS C   1      73.024  37.795  84.3100  0.00  0.00     0.000 OA
ATOM     15   O  IDS C   1      73.906  36.540  86.1660  0.00  0.00     0.000 OA
ENDBRANCH 2 11
BRANCH 5 16
ATOM     16   C  IDS C   1      70.599  40.729  90.1230  0.00  0.00     0.000 C
ATOM     17   O  IDS C   1      71.661  40.560  90.6850  0.00  0.00     0.000 OA
ATOM     18   O  IDS C   1      69.739  41.389  90.6380  0.00  0.00     0.000 OA
ENDBRANCH 5 16
BRANCH 1 19
ATOM     19  O4  SGN C   2      69.337  37.565  87.5470  0.00  0.00     0.000 O
BRANCH 19 23
ATOM     20  C1  SGN C   2      66.619  34.579  88.6060  0.00  0.00     0.000 C
ATOM     21  C2  SGN C   2      66.978  35.595  89.6960  0.00  0.00     0.000 C
ATOM     22  C3  SGN C   2      67.607  36.833  89.0600  0.00  0.00     0.000 C
ATOM     23  C4  SGN C   2      68.824  36.424  88.2380  0.00  0.00     0.000 C
ATOM     24  C5  SGN C   2      68.428  35.346  87.2250  0.00  0.00     0.000 C
ATOM     25  O5  SGN C   2      67.806  34.242  87.9060  0.00  0.00     0.000 O
ATOM     26   O  SGN C   2      67.961  37.781  90.0600  0.00  0.00     0.000 O
ATOM     28  HD  SGN C   2      68.082  38.329  90.7200  0.00  0.00     0.000 HD
BRANCH 21 30
ATOM     28   N  SGN C   2      65.676  35.325  90.3200  0.00  0.00     0.000 N
ATOM     30  HD  SGN C   2      65.232  35.997  90.6390  0.00  0.00     0.000 HD
ATOM     30   S  SGN C   2      65.542  35.110  91.9000  0.00  0.00     0.000 S
ATOM     31   O  SGN C   2      66.152  36.255  92.4880  0.00  0.00     0.000 OA
ATOM     32   O  SGN C   2      64.195  34.795  92.1980  0.00  0.00     0.000 OA
ATOM     33   O  SGN C   2      66.387  33.821  92.1810  0.00  0.00     0.000 OA
ENDBRANCH 21 30
BRANCH 24 34
ATOM     34   C  SGN C   2      69.599  34.771  86.4630  0.00  0.00     0.000 C
ATOM     35   O  SGN C   2      69.569  35.271  85.1140  0.00  0.00     0.000 O
ATOM     36   S  SGN C   2      70.399  34.456  84.0200  0.00  0.00     0.000 S
ATOM     37   O  SGN C   2      69.920  33.092  84.1340  0.00  0.00     0.000 OA
ATOM     38   O  SGN C   2      70.083  35.072  82.7540  0.00  0.00     0.000 OA
ATOM     39   O  SGN C   2      71.773  34.629  84.4250  0.00  0.00     0.000 OA
ENDBRANCH 24 34
BRANCH 20 40
ATOM     40  O4  IDS C   3      65.677  34.922  87.7300  0.00  0.00     0.000 O
BRANCH 40 44
ATOM     41  C1  IDS C   3      62.896  35.723  85.7170  0.00  0.00     0.000 C
ATOM     42  C2  IDS C   3      62.803  35.716  87.2400  0.00  0.00     0.000 C
ATOM     43  C3  IDS C   3      63.323  34.394  87.7990  0.00  0.00     0.000 C
ATOM     44  C4  IDS C   3      64.681  34.033  87.2190  0.00  0.00     0.000 C
ATOM     45  C5  IDS C   3      64.638  34.130  85.6790  0.00  0.00     0.000 C
ATOM     46  O5  IDS C   3      64.229  35.444  85.2960  0.00  0.00     0.000 O
ATOM     47   O  IDS C   3      62.383  33.359  87.5160  0.00  0.00     0.000 O
ATOM     49  HD  IDS C   3      62.648  34.057  87.9560  0.00  0.00     0.000 HD
BRANCH 42 49
ATOM     49   O  IDS C   3      63.614  36.820  87.8050  0.00  0.00     0.000 O
ATOM     50   S  IDS C   3      62.983  37.777  88.9240  0.00  0.00     0.000 S
ATOM     51   O  IDS C   3      62.927  36.929  90.0940  0.00  0.00     0.000 OA
ATOM     52   O  IDS C   3      61.668  38.222  88.4930  0.00  0.00     0.000 OA
ATOM     53   O  IDS C   3      63.908  38.881  89.0720  0.00  0.00     0.000 OA
ENDBRANCH 42 49
BRANCH 45 54
ATOM     54   C  IDS C   3      65.973  33.822  85.0190  0.00  0.00     0.000 C
ATOM     55   O  IDS C   3      66.470  34.627  84.2750  0.00  0.00     0.000 OA
ATOM     56   O  IDS C   3      66.523  32.758  85.2300  0.00  0.00     0.000 OA
ENDBRANCH 45 54
BRANCH 41 57
ATOM     57  O4  SGN C   4      61.860  35.011  85.2590  0.00  0.00     0.000 O
BRANCH 57 61
ATOM     58  C1  SGN C   4      60.041  34.147  81.5880  0.00  0.00     0.000 C
ATOM     59  C2  SGN C   4      61.480  33.644  81.7820  0.00  0.00     0.000 C
ATOM     60  C3  SGN C   4      61.876  33.652  83.2650  0.00  0.00     0.000 C
ATOM     61  C4  SGN C   4      61.638  35.036  83.8450  0.00  0.00     0.000 C
ATOM     62  C5  SGN C   4      60.199  35.484  83.5910  0.00  0.00     0.000 C
ATOM     63  O5  SGN C   4      59.891  35.427  82.1850  0.00  0.00     0.000 O
BRANCH 59 66
ATOM     64   N  SGN C   4      61.515  32.361  81.0710  0.00  0.00     0.000 N
ATOM     66  HD  SGN C   4      61.687  33.020  81.6060  0.00  0.00     0.000 HD
ATOM     66   O  SGN C   4      62.431  30.778  79.4630  0.00  0.00     0.000 OA
ATOM     67   O  SGN C   4      62.318  33.168  78.9030  0.00  0.00     0.000 OA
ATOM     68   S  SGN C   4      62.660  32.083  79.9820  0.00  0.00     0.000 S
ATOM     69   O  SGN C   4      63.916  32.391  80.5640  0.00  0.00     0.000 OA
ENDBRANCH 59 66
BRANCH 62 70
ATOM     70   C  SGN C   4      59.974  36.906  84.0380  0.00  0.00     0.000 C
ATOM     71   S  SGN C   4      60.942  39.277  83.9230  0.00  0.00     0.000 S
ATOM     72   O  SGN C   4      59.616  39.789  83.6390  0.00  0.00     0.000 OA
ATOM     73   O  SGN C   4      61.242  39.211  85.3390  0.00  0.00     0.000 OA
ATOM     74   O  SGN C   4      61.982  39.899  83.1350  0.00  0.00     0.000 OA
ATOM     75   O  SGN C   4      60.917  37.777  83.4020  0.00  0.00     0.000 O
ENDBRANCH 62 70
ENDBRANCH 57 61
ENDBRANCH 41 57
ENDBRANCH 40 44
ENDBRANCH 20 40
ENDBRANCH 19 23
ENDBRANCH 1 19
TORSDOF 14
ENDMDL
MODEL 71
REMARK VINA RESULT:      -0.7     97.354    102.100
ROOT
ATOM      1  C1  IDS C   1      45.131  98.277  81.8860  0.00  0.00     0.000 C
ATOM      2  C2  IDS C   1      46.532  98.795  81.6140  0.00  0.00     0.000 C
ATOM      3  C3  IDS C   1      46.727  99.073  80.1280  0.00  0.00     0.000 C
ATOM      4  C4  IDS C   1      45.603  99.951  79.5790  0.00  0.00     0.000 C
ATOM      5  C5  IDS C   1      44.230  99.383  79.9940  0.00  0.00     0.000 C
ATOM      6  O5  IDS C   1      44.168  99.214  81.4060  0.00  0.00     0.000 O
ATOM      7   O  IDS C   1      46.788  97.836  79.4160  0.00  0.00     0.000 O
ATOM      9  HD  IDS C   1      46.492  98.363  78.7960  0.00  0.00     0.000 HD
ATOM      9   O  IDS C   1      45.748 101.279  80.1060  0.00  0.00     0.000 O
ATOM     11  HD  IDS C   1      45.451 101.806  79.4860  0.00  0.00     0.000 HD
ENDROOT
BRANCH 2 11
ATOM     11   O  IDS C   1      46.758 100.064  82.3410  0.00  0.00     0.000 O
ATOM     12   S  IDS C   1      47.819 100.140  83.5340  0.00  0.00     0.000 S
ATOM     13   O  IDS C   1      48.342 101.481  83.3940  0.00  0.00     0.000 OA
ATOM     14   O  IDS C   1      48.823  99.121  83.3470  0.00  0.00     0.000 OA
ATOM     15   O  IDS C   1      47.035  99.952  84.7290  0.00  0.00     0.000 OA
ENDBRANCH 2 11
BRANCH 5 16
ATOM     16   C  IDS C   1      43.066 100.266  79.5820  0.00  0.00     0.000 C
ATOM     17   O  IDS C   1      43.156 100.913  78.5600  0.00  0.00     0.000 OA
ATOM     18   O  IDS C   1      42.079 100.339  80.2610  0.00  0.00     0.000 OA
ENDBRANCH 5 16
BRANCH 1 19
ATOM     19  O4  SGN C   2      44.859  96.990  81.6540  0.00  0.00     0.000 O
BRANCH 19 23
ATOM     20  C1  SGN C   2      42.655  93.678  82.9190  0.00  0.00     0.000 C
ATOM     21  C2  SGN C   2      41.889  94.752  82.1370  0.00  0.00     0.000 C
ATOM     22  C3  SGN C   2      42.875  95.644  81.3870  0.00  0.00     0.000 C
ATOM     23  C4  SGN C   2      43.867  96.254  82.3710  0.00  0.00     0.000 C
ATOM     24  C5  SGN C   2      44.538  95.145  83.1860  0.00  0.00     0.000 C
ATOM     25  O5  SGN C   2      43.536  94.330  83.8200  0.00  0.00     0.000 O
ATOM     26   O  SGN C   2      42.182  96.657  80.6670  0.00  0.00     0.000 O
ATOM     28  HD  SGN C   2      41.683  97.195  80.2070  0.00  0.00     0.000 HD
BRANCH 21 30
ATOM     28   N  SGN C   2      40.941  93.766  81.6020  0.00  0.00     0.000 N
ATOM     30  HD  SGN C   2      40.616  93.903  80.8110  0.00  0.00     0.000 HD
ATOM     30   S  SGN C   2      39.361  93.969  81.7540  0.00  0.00     0.000 S
ATOM     31   O  SGN C   2      39.094  95.262  81.2210  0.00  0.00     0.000 OA
ATOM     32   O  SGN C   2      38.709  92.833  81.2160  0.00  0.00     0.000 OA
ATOM     33   O  SGN C   2      39.122  93.944  83.3020  0.00  0.00     0.000 OA
ENDBRANCH 21 30
BRANCH 24 34
ATOM     34   C  SGN C   2      45.430  95.659  84.2910  0.00  0.00     0.000 C
ATOM     35   O  SGN C   2      46.799  95.362  83.9630  0.00  0.00     0.000 O
ATOM     36   S  SGN C   2      47.852  95.378  85.1640  0.00  0.00     0.000 S
ATOM     37   O  SGN C   2      47.294  94.479  86.1550  0.00  0.00     0.000 OA
ATOM     38   O  SGN C   2      49.094  94.909  84.5980  0.00  0.00     0.000 OA
ATOM     39   O  SGN C   2      47.886  96.759  85.5780  0.00  0.00     0.000 OA
ENDBRANCH 24 34
BRANCH 20 40
ATOM     40  O4  IDS C   3      43.335  92.774  82.2190  0.00  0.00     0.000 O
BRANCH 40 44
ATOM     41  C1  IDS C   3      44.866  90.201  80.3580  0.00  0.00     0.000 C
ATOM     42  C2  IDS C   3      43.398  90.564  80.1580  0.00  0.00     0.000 C
ATOM     43  C3  IDS C   3      42.665  90.570  81.4980  0.00  0.00     0.000 C
ATOM     44  C4  IDS C   3      43.410  91.384  82.5440  0.00  0.00     0.000 C
ATOM     45  C5  IDS C   3      44.888  90.941  82.5990  0.00  0.00     0.000 C
ATOM     46  O5  IDS C   3      45.475  91.077  81.3030  0.00  0.00     0.000 O
ATOM     47   O  IDS C   3      42.501  89.229  81.9530  0.00  0.00     0.000 O
ATOM     49  HD  IDS C   3      42.299  89.894  81.4370  0.00  0.00     0.000 HD
BRANCH 42 49
ATOM     49   O  IDS C   3      43.284  91.911  79.5510  0.00  0.00     0.000 O
ATOM     50   S  IDS C   3      42.237  92.160  78.3650  0.00  0.00     0.000 S
ATOM     51   O  IDS C   3      40.956  92.117  79.0360  0.00  0.00     0.000 OA
ATOM     52   O  IDS C   3      42.379  91.114  77.3660  0.00  0.00     0.000 OA
ATOM     53   O  IDS C   3      42.547  93.469  77.8290  0.00  0.00     0.000 OA
ENDBRANCH 42 49
BRANCH 45 54
ATOM     54   C  IDS C   3      45.717  91.736  83.5960  0.00  0.00     0.000 C
ATOM     55   O  IDS C   3      46.760  92.226  83.2480  0.00  0.00     0.000 OA
ATOM     56   O  IDS C   3      45.334  91.858  84.7430  0.00  0.00     0.000 OA
ENDBRANCH 45 54
BRANCH 41 57
ATOM     57  O4  SGN C   4      44.924  88.872  80.5050  0.00  0.00     0.000 O
BRANCH 57 61
ATOM     58  C1  SGN C   4      47.835  85.866  80.6320  0.00  0.00     0.000 C
ATOM     59  C2  SGN C   4      47.849  86.890  81.7780  0.00  0.00     0.000 C
ATOM     60  C3  SGN C   4      46.525  87.663  81.8460  0.00  0.00     0.000 C
ATOM     61  C4  SGN C   4      46.227  88.280  80.4900  0.00  0.00     0.000 C
ATOM     62  C5  SGN C   4      46.259  87.212  79.3970  0.00  0.00     0.000 C
ATOM     63  O5  SGN C   4      47.518  86.513  79.4080  0.00  0.00     0.000 O
BRANCH 59 66
ATOM     64   N  SGN C   4      48.217  86.143  82.9850  0.00  0.00     0.000 N
ATOM     66  HD  SGN C   4      47.933  86.752  82.4390  0.00  0.00     0.000 HD
ATOM     66   O  SGN C   4      49.625  85.663  84.9140  0.00  0.00     0.000 OA
ATOM     67   O  SGN C   4      50.653  86.279  82.7670  0.00  0.00     0.000 OA
ATOM     68   S  SGN C   4      49.523  86.564  83.8170  0.00  0.00     0.000 S
ATOM     69   O  SGN C   4      49.465  87.960  84.0640  0.00  0.00     0.000 OA
ENDBRANCH 59 66
BRANCH 62 70
ATOM     70   C  SGN C   4      46.099  87.819  78.0250  0.00  0.00     0.000 C
ATOM     71   S  SGN C   4      46.870  89.751  76.5280  0.00  0.00     0.000 S
ATOM     72   O  SGN C   4      47.050  88.814  75.4360  0.00  0.00     0.000 OA
ATOM     73   O  SGN C   4      45.537  90.314  76.5870  0.00  0.00     0.000 OA
ATOM     74   O  SGN C   4      47.924  90.736  76.6230  0.00  0.00     0.000 OA
ATOM     75   O  SGN C   4      47.046  88.878  77.8430  0.00  0.00     0.000 O
ENDBRANCH 62 70
ENDBRANCH 57 61
ENDBRANCH 41 57
ENDBRANCH 40 44
ENDBRANCH 20 40
ENDBRANCH 19 23
ENDBRANCH 1 19
TORSDOF 14
ENDMDL
MODEL 72
REMARK VINA RESULT:      -0.7     90.072     95.475
ROOT
ATOM      1  C1  IDS C   1      54.803  54.756 106.3650  0.00  0.00     0.000 C
ATOM      2  C2  IDS C   1      54.161  54.097 105.1570  0.00  0.00     0.000 C
ATOM      3  C3  IDS C   1      54.888  54.491 103.8770  0.00  0.00     0.000 C
ATOM      4  C4  IDS C   1      56.394  54.263 104.0050  0.00  0.00     0.000 C
ATOM      5  C5  IDS C   1      56.920  54.892 105.3110  0.00  0.00     0.000 C
ATOM      6  O5  IDS C   1      56.185  54.407 106.4290  0.00  0.00     0.000 O
ATOM      7   O  IDS C   1      54.613  55.861 103.5760  0.00  0.00     0.000 O
ATOM      9  HD  IDS C   1      55.386  55.765 103.1960  0.00  0.00     0.000 HD
ATOM      9   O  IDS C   1      56.653  52.851 104.0180  0.00  0.00     0.000 O
ATOM     11  HD  IDS C   1      57.425  52.755 103.6380  0.00  0.00     0.000 HD
ENDROOT
BRANCH 2 11
ATOM     11   O  IDS C   1      54.233  52.624 105.2800  0.00  0.00     0.000 O
ATOM     12   S  IDS C   1      52.900  51.744 105.3110  0.00  0.00     0.000 S
ATOM     13   O  IDS C   1      53.311  50.541 104.6220  0.00  0.00     0.000 OA
ATOM     14   O  IDS C   1      51.843  52.452 104.6290  0.00  0.00     0.000 OA
ATOM     15   O  IDS C   1      52.634  51.540 106.7130  0.00  0.00     0.000 OA
ENDBRANCH 2 11
BRANCH 5 16
ATOM     16   C  IDS C   1      58.389  54.607 105.5640  0.00  0.00     0.000 C
ATOM     17   O  IDS C   1      59.199  55.485 105.3570  0.00  0.00     0.000 OA
ATOM     18   O  IDS C   1      58.749  53.528 105.9480  0.00  0.00     0.000 OA
ENDBRANCH 5 16
BRANCH 1 19
ATOM     19  O4  SGN C   2      54.509  56.030 106.6430  0.00  0.00     0.000 O
BRANCH 19 23
ATOM     20  C1  SGN C   2      53.758  58.786 109.6860  0.00  0.00     0.000 C
ATOM     21  C2  SGN C   2      55.218  58.360 109.4930  0.00  0.00     0.000 C
ATOM     22  C3  SGN C   2      55.392  57.722 108.1170  0.00  0.00     0.000 C
ATOM     23  C4  SGN C   2      54.431  56.548 107.9710  0.00  0.00     0.000 C
ATOM     24  C5  SGN C   2      53.000  57.009 108.2600  0.00  0.00     0.000 C
ATOM     25  O5  SGN C   2      52.940  57.636 109.5540  0.00  0.00     0.000 O
ATOM     26   O  SGN C   2      56.739  57.306 107.9270  0.00  0.00     0.000 O
ATOM     28  HD  SGN C   2      57.588  57.147 107.8650  0.00  0.00     0.000 HD
BRANCH 21 30
ATOM     28   N  SGN C   2      55.576  59.633 110.1340  0.00  0.00     0.000 N
ATOM     30  HD  SGN C   2      56.196  60.112 109.7670  0.00  0.00     0.000 HD
ATOM     30   S  SGN C   2      56.793  59.727 111.1680  0.00  0.00     0.000 S
ATOM     31   O  SGN C   2      57.914  59.180 110.4810  0.00  0.00     0.000 OA
ATOM     32   O  SGN C   2      56.850  61.047 111.6760  0.00  0.00     0.000 OA
ATOM     33   O  SGN C   2      56.359  58.798 112.3530  0.00  0.00     0.000 OA
ENDBRANCH 21 30
BRANCH 24 34
ATOM     34   C  SGN C   2      51.993  55.883 108.2850  0.00  0.00     0.000 C
ATOM     35   O  SGN C   2      51.195  55.943 107.0890  0.00  0.00     0.000 O
ATOM     36   S  SGN C   2      49.795  55.176 107.1130  0.00  0.00     0.000 S
ATOM     37   O  SGN C   2      49.111  55.692 108.2820  0.00  0.00     0.000 OA
ATOM     38   O  SGN C   2      49.144  55.516 105.8710  0.00  0.00     0.000 OA
ATOM     39   O  SGN C   2      50.161  53.785 107.2160  0.00  0.00     0.000 OA
ENDBRANCH 24 34
BRANCH 20 40
ATOM     40  O4  IDS C   3      53.289  59.750 108.8970  0.00  0.00     0.000 O
BRANCH 40 44
ATOM     41  C1  IDS C   3      52.214  62.558 107.0570  0.00  0.00     0.000 C
ATOM     42  C2  IDS C   3      53.468  62.606 107.9250  0.00  0.00     0.000 C
ATOM     43  C3  IDS C   3      53.154  62.120 109.3380  0.00  0.00     0.000 C
ATOM     44  C4  IDS C   3      52.410  60.793 109.3250  0.00  0.00     0.000 C
ATOM     45  C5  IDS C   3      51.200  60.879 108.3710  0.00  0.00     0.000 C
ATOM     46  O5  IDS C   3      51.649  61.250 107.0650  0.00  0.00     0.000 O
ATOM     47   O  IDS C   3      52.378  63.105 110.0160  0.00  0.00     0.000 O
ATOM     49  HD  IDS C   3      53.123  62.802 109.6960  0.00  0.00     0.000 HD
BRANCH 42 49
ATOM     49   O  IDS C   3      54.520  61.738 107.3490  0.00  0.00     0.000 O
ATOM     50   S  IDS C   3      56.027  62.273 107.2530  0.00  0.00     0.000 S
ATOM     51   O  IDS C   3      56.471  62.266 108.6300  0.00  0.00     0.000 OA
ATOM     52   O  IDS C   3      56.030  63.606 106.6730  0.00  0.00     0.000 OA
ATOM     53   O  IDS C   3      56.737  61.320 106.4280  0.00  0.00     0.000 OA
ENDBRANCH 42 49
BRANCH 45 54
ATOM     54   C  IDS C   3      50.421  59.577 108.2680  0.00  0.00     0.000 C
ATOM     55   O  IDS C   3      50.251  59.068 107.1900  0.00  0.00     0.000 OA
ATOM     56   O  IDS C   3      49.959  59.066 109.2690  0.00  0.00     0.000 OA
ENDBRANCH 45 54
BRANCH 41 57
ATOM     57  O4  SGN C   4      51.481  63.634 107.3690  0.00  0.00     0.000 O
BRANCH 57 61
ATOM     58  C1  SGN C   4      48.107  65.643 105.9170  0.00  0.00     0.000 C
ATOM     59  C2  SGN C   4      47.881  64.231 106.4810  0.00  0.00     0.000 C
ATOM     60  C3  SGN C   4      49.072  63.778 107.3360  0.00  0.00     0.000 C
ATOM     61  C4  SGN C   4      50.354  63.908 106.5300  0.00  0.00     0.000 C
ATOM     62  C5  SGN C   4      50.498  65.326 105.9780  0.00  0.00     0.000 C
ATOM     63  O5  SGN C   4      49.336  65.691 105.2080  0.00  0.00     0.000 O
BRANCH 59 66
ATOM     64   N  SGN C   4      46.563  64.306 107.1180  0.00  0.00     0.000 N
ATOM     66  HD  SGN C   4      47.367  64.073 106.8970  0.00  0.00     0.000 HD
ATOM     66   O  SGN C   4      44.283  63.548 107.5220  0.00  0.00     0.000 OA
ATOM     67   O  SGN C   4      45.205  63.504 105.2430  0.00  0.00     0.000 OA
ATOM     68   S  SGN C   4      45.442  63.213 106.7660  0.00  0.00     0.000 S
ATOM     69   O  SGN C   4      46.016  61.923 106.9050  0.00  0.00     0.000 OA
ENDBRANCH 59 66
BRANCH 62 70
ATOM     70   C  SGN C   4      51.692  65.446 105.0640  0.00  0.00     0.000 C
ATOM     71   S  SGN C   4      52.929  64.298 103.1340  0.00  0.00     0.000 S
ATOM     72   O  SGN C   4      53.042  65.579 102.4640  0.00  0.00     0.000 OA
ATOM     73   O  SGN C   4      54.035  64.017 104.0260  0.00  0.00     0.000 OA
ATOM     74   O  SGN C   4      52.607  63.207 102.2430  0.00  0.00     0.000 OA
ATOM     75   O  SGN C   4      51.640  64.434 104.0510  0.00  0.00     0.000 O
ENDBRANCH 62 70
ENDBRANCH 57 61
ENDBRANCH 41 57
ENDBRANCH 40 44
ENDBRANCH 20 40
ENDBRANCH 19 23
ENDBRANCH 1 19
TORSDOF 14
ENDMDL
MODEL 73
REMARK VINA RESULT:      -0.7     74.077     78.404
ROOT
ATOM      1  C1  IDS C   1      99.633   6.625  32.4250  0.00  0.00     0.000 C
ATOM      2  C2  IDS C   1      98.347   6.137  31.7820  0.00  0.00     0.000 C
ATOM      3  C3  IDS C   1      98.464   6.147  30.2630  0.00  0.00     0.000 C
ATOM      4  C4  IDS C   1      99.726   5.419  29.8010  0.00  0.00     0.000 C
ATOM      5  C5  IDS C   1     100.953   5.928  30.5840  0.00  0.00     0.000 C
ATOM      6  O5  IDS C   1     100.728   5.822  31.9860  0.00  0.00     0.000 O
ATOM      7   O  IDS C   1      98.465   7.497  29.7950  0.00  0.00     0.000 O
ATOM      9  HD  IDS C   1      98.909   7.108  29.1620  0.00  0.00     0.000 HD
ATOM      9   O  IDS C   1      99.564   4.011  30.0330  0.00  0.00     0.000 O
ATOM     11  HD  IDS C   1     100.007   3.622  29.3990  0.00  0.00     0.000 HD
ENDROOT
BRANCH 2 11
ATOM     11   O  IDS C   1      98.063   4.746  32.2020  0.00  0.00     0.000 O
ATOM     12   S  IDS C   1      96.699   4.384  32.9510  0.00  0.00     0.000 S
ATOM     13   O  IDS C   1      96.418   3.056  32.4520  0.00  0.00     0.000 OA
ATOM     14   O  IDS C   1      95.686   5.348  32.5920  0.00  0.00     0.000 OA
ATOM     15   O  IDS C   1      97.037   4.412  34.3530  0.00  0.00     0.000 OA
ENDBRANCH 2 11
BRANCH 5 16
ATOM     16   C  IDS C   1     102.227   5.170  30.2610  0.00  0.00     0.000 C
ATOM     17   O  IDS C   1     103.142   5.200  31.0560  0.00  0.00     0.000 OA
ATOM     18   O  IDS C   1     102.338   4.564  29.2320  0.00  0.00     0.000 OA
ENDBRANCH 5 16
BRANCH 1 19
ATOM     19  O4  SGN C   2      99.865   7.939  32.4960  0.00  0.00     0.000 O
BRANCH 19 23
ATOM     20  C1  SGN C   2     101.382  11.028  34.8580  0.00  0.00     0.000 C
ATOM     21  C2  SGN C   2     102.410  10.091  34.2130  0.00  0.00     0.000 C
ATOM     22  C3  SGN C   2     101.758   9.320  33.0690  0.00  0.00     0.000 C
ATOM     23  C4  SGN C   2     100.542   8.561  33.5890  0.00  0.00     0.000 C
ATOM     24  C5  SGN C   2      99.591   9.529  34.2990  0.00  0.00     0.000 C
ATOM     25  O5  SGN C   2     100.299  10.242  35.3290  0.00  0.00     0.000 O
ATOM     26   O  SGN C   2     102.695   8.433  32.4680  0.00  0.00     0.000 O
ATOM     28  HD  SGN C   2     103.340   7.975  32.1180  0.00  0.00     0.000 HD
BRANCH 21 30
ATOM     28   N  SGN C   2     103.450  11.121  34.0890  0.00  0.00     0.000 N
ATOM     30  HD  SGN C   2     104.032  11.035  33.4540  0.00  0.00     0.000 HD
ATOM     30   S  SGN C   2     104.885  10.937  34.7710  0.00  0.00     0.000 S
ATOM     31   O  SGN C   2     105.366   9.681  34.3020  0.00  0.00     0.000 OA
ATOM     32   O  SGN C   2     105.643  12.112  34.5470  0.00  0.00     0.000 OA
ATOM     33   O  SGN C   2     104.573  10.878  36.3050  0.00  0.00     0.000 OA
ENDBRANCH 21 30
BRANCH 24 34
ATOM     34   C  SGN C   2      98.426   8.846  34.9770  0.00  0.00     0.000 C
ATOM     35   O  SGN C   2      97.240   9.056  34.1920  0.00  0.00     0.000 O
ATOM     36   S  SGN C   2      95.838   8.846  34.9270  0.00  0.00     0.000 S
ATOM     37   O  SGN C   2      95.904   9.697  36.0990  0.00  0.00     0.000 OA
ATOM     38   O  SGN C   2      94.834   9.258  33.9750  0.00  0.00     0.000 OA
ATOM     39   O  SGN C   2      95.810   7.436  35.2280  0.00  0.00     0.000 OA
ENDBRANCH 24 34
BRANCH 20 40
ATOM     40  O4  IDS C   3     100.908  12.026  34.1160  0.00  0.00     0.000 O
BRANCH 40 44
ATOM     41  C1  IDS C   3      99.891  14.850  32.2670  0.00  0.00     0.000 C
ATOM     42  C2  IDS C   3     101.365  14.558  32.5320  0.00  0.00     0.000 C
ATOM     43  C3  IDS C   3     101.602  14.336  34.0240  0.00  0.00     0.000 C
ATOM     44  C4  IDS C   3     100.617  13.336  34.6080  0.00  0.00     0.000 C
ATOM     45  C5  IDS C   3      99.176  13.731  34.2190  0.00  0.00     0.000 C
ATOM     46  O5  IDS C   3      99.072  13.810  32.7960  0.00  0.00     0.000 O
ATOM     47   O  IDS C   3     101.497  15.581  34.7100  0.00  0.00     0.000 O
ATOM     49  HD  IDS C   3     101.913  15.019  34.1990  0.00  0.00     0.000 HD
BRANCH 42 49
ATOM     49   O  IDS C   3     101.783  13.341  31.7990  0.00  0.00     0.000 O
ATOM     50   S  IDS C   3     103.169  13.335  30.9960  0.00  0.00     0.000 S
ATOM     51   O  IDS C   3     104.163  13.307  32.0460  0.00  0.00     0.000 OA
ATOM     52   O  IDS C   3     103.257  14.532  30.1760  0.00  0.00     0.000 OA
ATOM     53   O  IDS C   3     103.161  12.128  30.1970  0.00  0.00     0.000 OA
ENDBRANCH 42 49
BRANCH 45 54
ATOM     54   C  IDS C   3      98.126  12.758  34.7320  0.00  0.00     0.000 C
ATOM     55   O  IDS C   3      97.376  12.225  33.9550  0.00  0.00     0.000 OA
ATOM     56   O  IDS C   3      98.036  12.534  35.9230  0.00  0.00     0.000 OA
ENDBRANCH 45 54
BRANCH 41 57
ATOM     57  O4  SGN C   4      99.681  16.132  32.5910  0.00  0.00     0.000 O
BRANCH 57 61
ATOM     58  C1  SGN C   4      96.671  19.010  32.1610  0.00  0.00     0.000 C
ATOM     59  C2  SGN C   4      96.358  17.814  33.0750  0.00  0.00     0.000 C
ATOM     60  C3  SGN C   4      97.641  17.071  33.4730  0.00  0.00     0.000 C
ATOM     61  C4  SGN C   4      98.415  16.688  32.2230  0.00  0.00     0.000 C
ATOM     62  C5  SGN C   4      98.663  17.917  31.3490  0.00  0.00     0.000 C
ATOM     63  O5  SGN C   4      97.422  18.576  31.0360  0.00  0.00     0.000 O
BRANCH 59 66
ATOM     64   N  SGN C   4      95.527  18.393  34.1350  0.00  0.00     0.000 N
ATOM     66  HD  SGN C   4      96.064  17.885  33.6850  0.00  0.00     0.000 HD
ATOM     66   O  SGN C   4      93.561  18.476  35.5710  0.00  0.00     0.000 OA
ATOM     67   O  SGN C   4      93.326  17.857  33.2040  0.00  0.00     0.000 OA
ATOM     68   S  SGN C   4      94.140  17.692  34.5340  0.00  0.00     0.000 S
ATOM     69   O  SGN C   4      94.384  16.313  34.7580  0.00  0.00     0.000 OA
ENDBRANCH 59 66
BRANCH 62 70
ATOM     70   C  SGN C   4      99.311  17.544  30.0400  0.00  0.00     0.000 C
ATOM     71   S  SGN C   4      99.204  15.881  28.0920  0.00  0.00     0.000 S
ATOM     72   O  SGN C   4      99.348  16.983  27.1610  0.00  0.00     0.000 OA
ATOM     73   O  SGN C   4     100.471  15.319  28.5170  0.00  0.00     0.000 OA
ATOM     74   O  SGN C   4      98.240  14.890  27.6690  0.00  0.00     0.000 OA
ATOM     75   O  SGN C   4      98.545  16.525  29.3850  0.00  0.00     0.000 O
ENDBRANCH 62 70
ENDBRANCH 57 61
ENDBRANCH 41 57
ENDBRANCH 40 44
ENDBRANCH 20 40
ENDBRANCH 19 23
ENDBRANCH 1 19
TORSDOF 14
ENDMDL
MODEL 74
REMARK VINA RESULT:      -0.7     72.503     76.423
ROOT
ATOM      1  C1  IDS C   1      58.338  72.021  40.3790  0.00  0.00     0.000 C
ATOM      2  C2  IDS C   1      59.844  72.115  40.5410  0.00  0.00     0.000 C
ATOM      3  C3  IDS C   1      60.261  73.533  40.9100  0.00  0.00     0.000 C
ATOM      4  C4  IDS C   1      59.456  74.053  42.1010  0.00  0.00     0.000 C
ATOM      5  C5  IDS C   1      57.949  73.822  41.8680  0.00  0.00     0.000 C
ATOM      6  O5  IDS C   1      57.694  72.452  41.5770  0.00  0.00     0.000 O
ATOM      7   O  IDS C   1      60.090  74.389  39.7790  0.00  0.00     0.000 O
ATOM      9  HD  IDS C   1      60.002  74.959  40.4250  0.00  0.00     0.000 HD
ATOM      9   O  IDS C   1      59.868  73.353  43.2850  0.00  0.00     0.000 O
ATOM     11  HD  IDS C   1      59.780  73.923  43.9310  0.00  0.00     0.000 HD
ENDROOT
BRANCH 2 11
ATOM     11   O  IDS C   1      60.298  71.217  41.6270  0.00  0.00     0.000 O
ATOM     12   S  IDS C   1      61.385  70.081  41.3430  0.00  0.00     0.000 S
ATOM     13   O  IDS C   1      62.122  70.044  42.5860  0.00  0.00     0.000 OA
ATOM     14   O  IDS C   1      62.199  70.469  40.2160  0.00  0.00     0.000 OA
ATOM     15   O  IDS C   1      60.610  68.890  41.0990  0.00  0.00     0.000 OA
ENDBRANCH 2 11
BRANCH 5 16
ATOM     16   C  IDS C   1      57.092  74.209  43.0590  0.00  0.00     0.000 C
ATOM     17   O  IDS C   1      57.519  75.027  43.8460  0.00  0.00     0.000 OA
ATOM     18   O  IDS C   1      56.017  73.705  43.2340  0.00  0.00     0.000 OA
ENDBRANCH 5 16
BRANCH 1 19
ATOM     19  O4  SGN C   2      57.781  72.434  39.2360  0.00  0.00     0.000 O
BRANCH 19 23
ATOM     20  C1  SGN C   2      54.856  71.644  36.3650  0.00  0.00     0.000 C
ATOM     21  C2  SGN C   2      54.362  72.149  37.7250  0.00  0.00     0.000 C
ATOM     22  C3  SGN C   2      55.517  72.793  38.4870  0.00  0.00     0.000 C
ATOM     23  C4  SGN C   2      56.658  71.793  38.6310  0.00  0.00     0.000 C
ATOM     24  C5  SGN C   2      57.054  71.255  37.2530  0.00  0.00     0.000 C
ATOM     25  O5  SGN C   2      55.898  70.709  36.5920  0.00  0.00     0.000 O
ATOM     26   O  SGN C   2      55.078  73.254  39.7600  0.00  0.00     0.000 O
ATOM     28  HD  SGN C   2      54.717  73.565  40.4830  0.00  0.00     0.000 HD
BRANCH 21 30
ATOM     28   N  SGN C   2      53.179  72.761  37.1050  0.00  0.00     0.000 N
ATOM     30  HD  SGN C   2      52.879  73.499  37.4440  0.00  0.00     0.000 HD
ATOM     30   S  SGN C   2      51.707  72.474  37.6640  0.00  0.00     0.000 S
ATOM     31   O  SGN C   2      51.764  72.788  39.0510  0.00  0.00     0.000 OA
ATOM     32   O  SGN C   2      50.773  73.131  36.8270  0.00  0.00     0.000 OA
ATOM     33   O  SGN C   2      51.512  70.934  37.4480  0.00  0.00     0.000 OA
ENDBRANCH 21 30
BRANCH 24 34
ATOM     34   C  SGN C   2      58.078  70.146  37.3060  0.00  0.00     0.000 C
ATOM     35   O  SGN C   2      59.372  70.690  36.9920  0.00  0.00     0.000 O
ATOM     36   S  SGN C   2      60.499  69.658  36.5290  0.00  0.00     0.000 S
ATOM     37   O  SGN C   2      59.903  68.932  35.4250  0.00  0.00     0.000 OA
ATOM     38   O  SGN C   2      61.630  70.466  36.1400  0.00  0.00     0.000 OA
ATOM     39   O  SGN C   2      60.736  68.851  37.7010  0.00  0.00     0.000 OA
ENDBRANCH 24 34
BRANCH 20 40
ATOM     40  O4  IDS C   3      55.268  72.553  35.4830  0.00  0.00     0.000 O
BRANCH 40 44
ATOM     41  C1  IDS C   3      55.970  75.015  33.0600  0.00  0.00     0.000 C
ATOM     42  C2  IDS C   3      54.635  74.980  33.7990  0.00  0.00     0.000 C
ATOM     43  C3  IDS C   3      54.011  73.590  33.7020  0.00  0.00     0.000 C
ATOM     44  C4  IDS C   3      55.003  72.500  34.0800  0.00  0.00     0.000 C
ATOM     45  C5  IDS C   3      56.317  72.691  33.2940  0.00  0.00     0.000 C
ATOM     46  O5  IDS C   3      56.839  73.997  33.5490  0.00  0.00     0.000 O
ATOM     47   O  IDS C   3      53.535  73.376  32.3760  0.00  0.00     0.000 O
ATOM     49  HD  IDS C   3      53.480  73.733  33.1630  0.00  0.00     0.000 HD
BRANCH 42 49
ATOM     49   O  IDS C   3      54.835  75.311  35.2290  0.00  0.00     0.000 O
ATOM     50   S  IDS C   3      53.888  76.395  35.9320  0.00  0.00     0.000 S
ATOM     51   O  IDS C   3      52.621  75.707  36.0450  0.00  0.00     0.000 OA
ATOM     52   O  IDS C   3      53.807  77.581  35.0960  0.00  0.00     0.000 OA
ATOM     53   O  IDS C   3      54.492  76.677  37.2170  0.00  0.00     0.000 OA
ENDBRANCH 42 49
BRANCH 45 54
ATOM     54   C  IDS C   3      57.382  71.663  33.6420  0.00  0.00     0.000 C
ATOM     55   O  IDS C   3      58.448  72.028  34.0650  0.00  0.00     0.000 OA
ATOM     56   O  IDS C   3      57.159  70.479  33.4760  0.00  0.00     0.000 OA
ENDBRANCH 45 54
BRANCH 41 57
ATOM     57  O4  SGN C   4      55.693  75.123  31.7550  0.00  0.00     0.000 O
BRANCH 57 61
ATOM     58  C1  SGN C   4      57.730  75.911  28.1830  0.00  0.00     0.000 C
ATOM     59  C2  SGN C   4      58.165  74.662  28.9660  0.00  0.00     0.000 C
ATOM     60  C3  SGN C   4      57.105  74.258  30.0010  0.00  0.00     0.000 C
ATOM     61  C4  SGN C   4      56.786  75.448  30.8910  0.00  0.00     0.000 C
ATOM     62  C5  SGN C   4      56.391  76.658  30.0470  0.00  0.00     0.000 C
ATOM     63  O5  SGN C   4      57.419  76.963  29.0850  0.00  0.00     0.000 O
BRANCH 59 66
ATOM     64   N  SGN C   4      58.502  73.657  27.9520  0.00  0.00     0.000 N
ATOM     66  HD  SGN C   4      58.299  74.052  28.6960  0.00  0.00     0.000 HD
ATOM     66   O  SGN C   4      59.995  72.080  26.8490  0.00  0.00     0.000 OA
ATOM     67   O  SGN C   4      60.855  74.250  27.6200  0.00  0.00     0.000 OA
ATOM     68   S  SGN C   4      59.965  72.999  27.9360  0.00  0.00     0.000 S
ATOM     69   O  SGN C   4      60.263  72.539  29.2450  0.00  0.00     0.000 OA
ENDBRANCH 59 66
BRANCH 62 70
ATOM     70   C  SGN C   4      56.199  77.888  30.8980  0.00  0.00     0.000 C
ATOM     71   S  SGN C   4      57.358  79.409  32.6050  0.00  0.00     0.000 S
ATOM     72   O  SGN C   4      56.874  80.568  31.8800  0.00  0.00     0.000 OA
ATOM     73   O  SGN C   4      56.438  78.945  33.6250  0.00  0.00     0.000 OA
ATOM     74   O  SGN C   4      58.720  79.545  33.0670  0.00  0.00     0.000 OA
ATOM     75   O  SGN C   4      57.437  78.255  31.5180  0.00  0.00     0.000 O
ENDBRANCH 62 70
ENDBRANCH 57 61
ENDBRANCH 41 57
ENDBRANCH 40 44
ENDBRANCH 20 40
ENDBRANCH 19 23
ENDBRANCH 1 19
TORSDOF 14
ENDMDL
MODEL 75
REMARK VINA RESULT:      -0.7     72.800     77.832
ROOT
ATOM      1  C1  IDS C   1      14.726  68.004  79.7000  0.00  0.00     0.000 C
ATOM      2  C2  IDS C   1      14.162  69.390  79.9590  0.00  0.00     0.000 C
ATOM      3  C3  IDS C   1      14.580  70.358  78.8580  0.00  0.00     0.000 C
ATOM      4  C4  IDS C   1      14.268  69.788  77.4740  0.00  0.00     0.000 C
ATOM      5  C5  IDS C   1      14.804  68.347  77.3570  0.00  0.00     0.000 C
ATOM      6  O5  IDS C   1      14.303  67.542  78.4190  0.00  0.00     0.000 O
ATOM      7   O  IDS C   1      15.975  70.643  78.9800  0.00  0.00     0.000 O
ATOM      9  HD  IDS C   1      15.858  70.772  78.1310  0.00  0.00     0.000 HD
ATOM      9   O  IDS C   1      12.845  69.784  77.2810  0.00  0.00     0.000 O
ATOM     11  HD  IDS C   1      12.729  69.914  76.4330  0.00  0.00     0.000 HD
ENDROOT
BRANCH 2 11
ATOM     11   O  IDS C   1      12.682  69.343  79.9780  0.00  0.00     0.000 O
ATOM     12   S  IDS C   1      11.872  69.779  81.2840  0.00  0.00     0.000 S
ATOM     13   O  IDS C   1      10.684  70.382  80.7210  0.00  0.00     0.000 OA
ATOM     14   O  IDS C   1      12.665  70.707  82.0530  0.00  0.00     0.000 OA
ATOM     15   O  IDS C   1      11.613  68.542  81.9790  0.00  0.00     0.000 OA
ENDBRANCH 2 11
BRANCH 5 16
ATOM     16   C  IDS C   1      14.432  67.673  76.0490  0.00  0.00     0.000 C
ATOM     17   O  IDS C   1      15.276  67.568  75.1850  0.00  0.00     0.000 OA
ATOM     18   O  IDS C   1      13.319  67.265  75.8630  0.00  0.00     0.000 OA
ENDBRANCH 5 16
BRANCH 1 19
ATOM     19  O4  SGN C   2      15.998  67.752  80.0220  0.00  0.00     0.000 O
BRANCH 19 23
ATOM     20  C1  SGN C   2      18.638  64.922  81.5860  0.00  0.00     0.000 C
ATOM     21  C2  SGN C   2      18.141  64.678  80.1560  0.00  0.00     0.000 C
ATOM     22  C3  SGN C   2      17.564  65.970  79.5840  0.00  0.00     0.000 C
ATOM     23  C4  SGN C   2      16.453  66.483  80.4940  0.00  0.00     0.000 C
ATOM     24  C5  SGN C   2      16.979  66.625  81.9250  0.00  0.00     0.000 C
ATOM     25  O5  SGN C   2      17.542  65.376  82.3640  0.00  0.00     0.000 O
ATOM     26   O  SGN C   2      17.083  65.758  78.2610  0.00  0.00     0.000 O
ATOM     28  HD  SGN C   2      16.880  65.563  77.4430  0.00  0.00     0.000 HD
BRANCH 21 30
ATOM     28   N  SGN C   2      19.328  63.817  80.0610  0.00  0.00     0.000 N
ATOM     30  HD  SGN C   2      19.881  63.959  79.4090  0.00  0.00     0.000 HD
ATOM     30   S  SGN C   2      19.333  62.511  79.1370  0.00  0.00     0.000 S
ATOM     31   O  SGN C   2      18.936  62.962  77.8460  0.00  0.00     0.000 OA
ATOM     32   O  SGN C   2      20.572  61.847  79.3040  0.00  0.00     0.000 OA
ATOM     33   O  SGN C   2      18.233  61.593  79.7710  0.00  0.00     0.000 OA
ENDBRANCH 21 30
BRANCH 24 34
ATOM     34   C  SGN C   2      15.910  66.987  82.9300  0.00  0.00     0.000 C
ATOM     35   O  SGN C   2      16.064  68.369  83.2970  0.00  0.00     0.000 O
ATOM     36   S  SGN C   2      15.376  68.838  84.6600  0.00  0.00     0.000 S
ATOM     37   O  SGN C   2      15.881  67.922  85.6630  0.00  0.00     0.000 OA
ATOM     38   O  SGN C   2      15.802  70.202  84.8610  0.00  0.00     0.000 OA
ATOM     39   O  SGN C   2      13.963  68.702  84.4010  0.00  0.00     0.000 OA
ENDBRANCH 24 34
BRANCH 20 40
ATOM     40  O4  IDS C   3      19.664  65.753  81.7480  0.00  0.00     0.000 O
BRANCH 40 44
ATOM     41  C1  IDS C   3      22.632  67.629  82.0670  0.00  0.00     0.000 C
ATOM     42  C2  IDS C   3      22.558  66.399  81.1660  0.00  0.00     0.000 C
ATOM     43  C3  IDS C   3      22.007  65.205  81.9420  0.00  0.00     0.000 C
ATOM     44  C4  IDS C   3      20.727  65.558  82.6840  0.00  0.00     0.000 C
ATOM     45  C5  IDS C   3      20.936  66.845  83.5100  0.00  0.00     0.000 C
ATOM     46  O5  IDS C   3      21.359  67.902  82.6460  0.00  0.00     0.000 O
ATOM     47   O  IDS C   3      22.992  64.746  82.8650  0.00  0.00     0.000 O
ATOM     49  HD  IDS C   3      22.668  64.828  82.0660  0.00  0.00     0.000 HD
BRANCH 42 49
ATOM     49   O  IDS C   3      21.669  66.665  80.0120  0.00  0.00     0.000 O
ATOM     50   S  IDS C   3      22.115  66.206  78.5440  0.00  0.00     0.000 S
ATOM     51   O  IDS C   3      21.984  64.766  78.5900  0.00  0.00     0.000 OA
ATOM     52   O  IDS C   3      23.482  66.634  78.2980  0.00  0.00     0.000 OA
ATOM     53   O  IDS C   3      21.179  66.827  77.6310  0.00  0.00     0.000 OA
ENDBRANCH 42 49
BRANCH 45 54
ATOM     54   C  IDS C   3      19.688  67.292  84.2550  0.00  0.00     0.000 C
ATOM     55   O  IDS C   3      19.145  66.534  85.0160  0.00  0.00     0.000 OA
ATOM     56   O  IDS C   3      19.235  68.404  84.0660  0.00  0.00     0.000 OA
ENDBRANCH 45 54
BRANCH 41 57
ATOM     57  O4  SGN C   4      23.726  67.494  82.8260  0.00  0.00     0.000 O
BRANCH 57 61
ATOM     58  C1  SGN C   4      25.987  69.802  85.4880  0.00  0.00     0.000 C
ATOM     59  C2  SGN C   4      24.548  69.468  85.9130  0.00  0.00     0.000 C
ATOM     60  C3  SGN C   4      23.980  68.309  85.0830  0.00  0.00     0.000 C
ATOM     61  C4  SGN C   4      24.113  68.631  83.6040  0.00  0.00     0.000 C
ATOM     62  C5  SGN C   4      25.560  68.981  83.2600  0.00  0.00     0.000 C
ATOM     63  O5  SGN C   4      26.033  70.057  84.0920  0.00  0.00     0.000 O
BRANCH 59 66
ATOM     64   N  SGN C   4      24.634  69.298  87.3670  0.00  0.00     0.000 N
ATOM     66  HD  SGN C   4      24.383  69.259  86.5390  0.00  0.00     0.000 HD
ATOM     66   O  SGN C   4      23.950  69.737  89.6630  0.00  0.00     0.000 OA
ATOM     67   O  SGN C   4      24.037  71.577  88.0360  0.00  0.00     0.000 OA
ATOM     68   S  SGN C   4      23.622  70.093  88.3250  0.00  0.00     0.000 S
ATOM     69   O  SGN C   4      22.301  69.884  87.8520  0.00  0.00     0.000 OA
ENDBRANCH 59 66
BRANCH 62 70
ATOM     70   C  SGN C   4      25.695  69.435  81.8280  0.00  0.00     0.000 C
ATOM     71   S  SGN C   4      24.621  70.911  80.0280  0.00  0.00     0.000 S
ATOM     72   O  SGN C   4      25.934  71.422  79.6840  0.00  0.00     0.000 OA
ATOM     73   O  SGN C   4      24.256  69.721  79.2860  0.00  0.00     0.000 OA
ATOM     74   O  SGN C   4      23.593  71.926  80.0440  0.00  0.00     0.000 OA
ATOM     75   O  SGN C   4      24.744  70.470  81.5480  0.00  0.00     0.000 O
ENDBRANCH 62 70
ENDBRANCH 57 61
ENDBRANCH 41 57
ENDBRANCH 40 44
ENDBRANCH 20 40
ENDBRANCH 19 23
ENDBRANCH 1 19
TORSDOF 14
ENDMDL
MODEL 76
REMARK VINA RESULT:      -0.7    158.810    162.819
ROOT
ATOM      1  C1  IDS C   1     117.241 114.652 112.3050  0.00  0.00     0.000 C
ATOM      2  C2  IDS C   1     117.704 116.089 112.4640  0.00  0.00     0.000 C
ATOM      3  C3  IDS C   1     118.528 116.254 113.7360  0.00  0.00     0.000 C
ATOM      4  C4  IDS C   1     119.643 115.210 113.8100  0.00  0.00     0.000 C
ATOM      5  C5  IDS C   1     119.075 113.802 113.5410  0.00  0.00     0.000 C
ATOM      6  O5  IDS C   1     118.368 113.777 112.3060  0.00  0.00     0.000 O
ATOM      7   O  IDS C   1     117.671 116.152 114.8740  0.00  0.00     0.000 O
ATOM      9  HD  IDS C   1     118.423 115.891 115.2160  0.00  0.00     0.000 HD
ATOM      9   O  IDS C   1     120.638 115.519 112.8220  0.00  0.00     0.000 O
ATOM     11  HD  IDS C   1     121.389 115.258 113.1630  0.00  0.00     0.000 HD
ENDROOT
BRANCH 2 11
ATOM     11   O  IDS C   1     118.559 116.479 111.3210  0.00  0.00     0.000 O
ATOM     12   S  IDS C   1     118.044 117.544 110.2460  0.00  0.00     0.000 S
ATOM     13   O  IDS C   1     119.263 118.236 109.8920  0.00  0.00     0.000 OA
ATOM     14   O  IDS C   1     117.063 118.407 110.8590  0.00  0.00     0.000 OA
ATOM     15   O  IDS C   1     117.505 116.745 109.1740  0.00  0.00     0.000 OA
ENDBRANCH 2 11
BRANCH 5 16
ATOM     16   C  IDS C   1     120.143 112.725 113.4850  0.00  0.00     0.000 C
ATOM     17   O  IDS C   1     120.773 112.580 112.4590  0.00  0.00     0.000 OA
ATOM     18   O  IDS C   1     120.354 112.017 114.4310  0.00  0.00     0.000 OA
ENDBRANCH 5 16
BRANCH 1 19
ATOM     19  O4  SGN C   2     116.177 114.233 112.9970  0.00  0.00     0.000 O
BRANCH 19 23
ATOM     20  C1  SGN C   2     112.928 111.611 113.0290  0.00  0.00     0.000 C
ATOM     21  C2  SGN C   2     114.308 110.994 113.2820  0.00  0.00     0.000 C
ATOM     22  C3  SGN C   2     115.300 112.089 113.6700  0.00  0.00     0.000 C
ATOM     23  C4  SGN C   2     115.342 113.152 112.5780  0.00  0.00     0.000 C
ATOM     24  C5  SGN C   2     113.928 113.671 112.3030  0.00  0.00     0.000 C
ATOM     25  O5  SGN C   2     113.055 112.570 111.9910  0.00  0.00     0.000 O
ATOM     26   O  SGN C   2     116.591 111.535 113.8940  0.00  0.00     0.000 O
ATOM     28  HD  SGN C   2     117.324 111.111 114.0770  0.00  0.00     0.000 HD
BRANCH 21 30
ATOM     28   N  SGN C   2     113.607 109.911 113.9850  0.00  0.00     0.000 N
ATOM     30  HD  SGN C   2     113.929 109.644 114.7430  0.00  0.00     0.000 HD
ATOM     30   S  SGN C   2     114.054 108.384 113.8110  0.00  0.00     0.000 S
ATOM     31   O  SGN C   2     115.445 108.362 114.1170  0.00  0.00     0.000 OA
ATOM     32   O  SGN C   2     113.156 107.568 114.5400  0.00  0.00     0.000 OA
ATOM     33   O  SGN C   2     113.812 108.088 112.2910  0.00  0.00     0.000 OA
ENDBRANCH 21 30
BRANCH 24 34
ATOM     34   C  SGN C   2     113.848 114.623 111.1330  0.00  0.00     0.000 C
ATOM     35   O  SGN C   2     113.676 115.962 111.6300  0.00  0.00     0.000 O
ATOM     36   S  SGN C   2     113.103 117.047 110.6090  0.00  0.00     0.000 S
ATOM     37   O  SGN C   2     111.875 116.465 110.1030  0.00  0.00     0.000 OA
ATOM     38   O  SGN C   2     112.892 118.242 111.3900  0.00  0.00     0.000 OA
ATOM     39   O  SGN C   2     114.142 117.176 109.6180  0.00  0.00     0.000 OA
ENDBRANCH 24 34
BRANCH 20 40
ATOM     40  O4  IDS C   3     112.303 112.167 114.0640  0.00  0.00     0.000 O
BRANCH 40 44
ATOM     41  C1  IDS C   3     110.534 113.260 116.9110  0.00  0.00     0.000 C
ATOM     42  C2  IDS C   3     111.112 111.850 116.8230  0.00  0.00     0.000 C
ATOM     43  C3  IDS C   3     110.664 111.172 115.5310  0.00  0.00     0.000 C
ATOM     44  C4  IDS C   3     110.900 112.059 114.3180  0.00  0.00     0.000 C
ATOM     45  C5  IDS C   3     110.307 113.461 114.5700  0.00  0.00     0.000 C
ATOM     46  O5  IDS C   3     110.882 114.016 115.7540  0.00  0.00     0.000 O
ATOM     47   O  IDS C   3     109.282 110.838 115.6270  0.00  0.00     0.000 O
ATOM     49  HD  IDS C   3     110.117 110.713 115.8200  0.00  0.00     0.000 HD
BRANCH 42 49
ATOM     49   O  IDS C   3     112.593 111.905 116.8410  0.00  0.00     0.000 O
ATOM     50   S  IDS C   3     113.413 110.893 117.7730  0.00  0.00     0.000 S
ATOM     51   O  IDS C   3     113.252 109.620 117.1070  0.00  0.00     0.000 OA
ATOM     52   O  IDS C   3     112.844 110.899 119.1110  0.00  0.00     0.000 OA
ATOM     53   O  IDS C   3     114.782 111.365 117.7640  0.00  0.00     0.000 OA
ENDBRANCH 42 49
BRANCH 45 54
ATOM     54   C  IDS C   3     110.534 114.426 113.4170  0.00  0.00     0.000 C
ATOM     55   O  IDS C   3     110.172 114.128 112.3080  0.00  0.00     0.000 OA
ATOM     56   O  IDS C   3     111.096 115.486 113.6150  0.00  0.00     0.000 OA
ENDBRANCH 45 54
BRANCH 41 57
ATOM     57  O4  SGN C   4     109.260 113.137 117.3030  0.00  0.00     0.000 O
BRANCH 57 61
ATOM     58  C1  SGN C   4     106.133 115.607 118.5860  0.00  0.00     0.000 C
ATOM     59  C2  SGN C   4     106.594 115.776 117.1290  0.00  0.00     0.000 C
ATOM     60  C3  SGN C   4     107.427 114.572 116.6680  0.00  0.00     0.000 C
ATOM     61  C4  SGN C   4     108.572 114.345 117.6410  0.00  0.00     0.000 C
ATOM     62  C5  SGN C   4     108.045 114.217 119.0690  0.00  0.00     0.000 C
ATOM     63  O5  SGN C   4     107.254 115.367 119.4230  0.00  0.00     0.000 O
BRANCH 59 66
ATOM     64   N  SGN C   4     105.363 116.078 116.3910  0.00  0.00     0.000 N
ATOM     66  HD  SGN C   4     106.166 115.833 116.6030  0.00  0.00     0.000 HD
ATOM     66   O  SGN C   4     103.995 117.404 114.8730  0.00  0.00     0.000 OA
ATOM     67   O  SGN C   4     105.474 118.523 116.4870  0.00  0.00     0.000 OA
ATOM     68   S  SGN C   4     105.300 117.369 115.4400  0.00  0.00     0.000 S
ATOM     69   O  SGN C   4     106.431 117.349 114.5830  0.00  0.00     0.000 OA
ENDBRANCH 59 66
BRANCH 62 70
ATOM     70   C  SGN C   4     109.170 114.125 120.0690  0.00  0.00     0.000 C
ATOM     71   S  SGN C   4     111.418 115.160 120.7360  0.00  0.00     0.000 S
ATOM     72   O  SGN C   4     110.989 115.166 122.1210  0.00  0.00     0.000 OA
ATOM     73   O  SGN C   4     112.085 113.934 120.3470  0.00  0.00     0.000 OA
ATOM     74   O  SGN C   4     112.127 116.358 120.3470  0.00  0.00     0.000 OA
ATOM     75   O  SGN C   4     110.073 115.224 119.8950  0.00  0.00     0.000 O
ENDBRANCH 62 70
ENDBRANCH 57 61
ENDBRANCH 41 57
ENDBRANCH 40 44
ENDBRANCH 20 40
ENDBRANCH 19 23
ENDBRANCH 1 19
TORSDOF 14
ENDMDL
MODEL 77
REMARK VINA RESULT:      -0.7    104.922    109.344
ROOT
ATOM      1  C1  IDS C   1      12.333 107.123  62.1730  0.00  0.00     0.000 C
ATOM      2  C2  IDS C   1      13.514 107.259  63.1170  0.00  0.00     0.000 C
ATOM      3  C3  IDS C   1      13.278 106.463  64.3960  0.00  0.00     0.000 C
ATOM      4  C4  IDS C   1      12.872 105.023  64.0830  0.00  0.00     0.000 C
ATOM      5  C5  IDS C   1      11.731 105.004  63.0450  0.00  0.00     0.000 C
ATOM      6  O5  IDS C   1      12.099 105.745  61.8870  0.00  0.00     0.000 O
ATOM      7   O  IDS C   1      12.272 107.108  65.1790  0.00  0.00     0.000 O
ATOM      9  HD  IDS C   1      12.178 106.288  65.4410  0.00  0.00     0.000 HD
ATOM      9   O  IDS C   1      14.008 104.322  63.5540  0.00  0.00     0.000 O
ATOM     11  HD  IDS C   1      13.914 103.502  63.8170  0.00  0.00     0.000 HD
ENDROOT
BRANCH 2 11
ATOM     11   O  IDS C   1      14.741 106.731  62.4800  0.00  0.00     0.000 O
ATOM     12   S  IDS C   1      16.019 107.668  62.2750  0.00  0.00     0.000 S
ATOM     13   O  IDS C   1      17.113 106.739  62.4550  0.00  0.00     0.000 OA
ATOM     14   O  IDS C   1      16.004 108.720  63.2640  0.00  0.00     0.000 OA
ATOM     15   O  IDS C   1      15.897 108.158  60.9250  0.00  0.00     0.000 OA
ENDBRANCH 2 11
BRANCH 5 16
ATOM     16   C  IDS C   1      11.351 103.604  62.5970  0.00  0.00     0.000 C
ATOM     17   O  IDS C   1      10.260 103.169  62.9010  0.00  0.00     0.000 OA
ATOM     18   O  IDS C   1      12.119 102.930  61.9680  0.00  0.00     0.000 OA
ENDBRANCH 5 16
BRANCH 1 19
ATOM     19  O4  SGN C   2      11.244 107.869  62.3840  0.00  0.00     0.000 O
BRANCH 19 23
ATOM     20  C1  SGN C   2       8.212 110.094  60.5730  0.00  0.00     0.000 C
ATOM     21  C2  SGN C   2       8.105 108.569  60.4570  0.00  0.00     0.000 C
ATOM     22  C3  SGN C   2       8.999 107.908  61.5020  0.00  0.00     0.000 C
ATOM     23  C4  SGN C   2      10.434 108.394  61.3310  0.00  0.00     0.000 C
ATOM     24  C5  SGN C   2      10.472 109.924  61.3680  0.00  0.00     0.000 C
ATOM     25  O5  SGN C   2       9.570 110.459  60.3830  0.00  0.00     0.000 O
ATOM     26   O  SGN C   2       8.924 106.491  61.3980  0.00  0.00     0.000 O
ATOM     28  HD  SGN C   2       8.769 105.643  61.3140  0.00  0.00     0.000 HD
BRANCH 21 30
ATOM     28   N  SGN C   2       6.669 108.794  60.2450  0.00  0.00     0.000 N
ATOM     30  HD  SGN C   2       6.111 108.311  60.6990  0.00  0.00     0.000 HD
ATOM     30   S  SGN C   2       5.835 107.910  59.2040  0.00  0.00     0.000 S
ATOM     31   O  SGN C   2       6.081 106.558  59.5770  0.00  0.00     0.000 OA
ATOM     32   O  SGN C   2       4.508 108.402  59.1590  0.00  0.00     0.000 OA
ATOM     33   O  SGN C   2       6.492 108.235  57.8190  0.00  0.00     0.000 OA
ENDBRANCH 21 30
BRANCH 24 34
ATOM     34   C  SGN C   2      11.833 110.504  61.0590  0.00  0.00     0.000 C
ATOM     35   O  SGN C   2      12.447 110.934  62.2860  0.00  0.00     0.000 O
ATOM     36   S  SGN C   2      13.645 111.983  62.1690  0.00  0.00     0.000 S
ATOM     37   O  SGN C   2      13.101 113.078  61.3900  0.00  0.00     0.000 OA
ATOM     38   O  SGN C   2      13.973 112.351  63.5250  0.00  0.00     0.000 OA
ATOM     39   O  SGN C   2      14.688 111.248  61.4970  0.00  0.00     0.000 OA
ENDBRANCH 24 34
BRANCH 20 40
ATOM     40  O4  IDS C   3       7.760 110.660  61.6900  0.00  0.00     0.000 O
BRANCH 40 44
ATOM     41  C1  IDS C   3       6.201 112.137  64.4850  0.00  0.00     0.000 C
ATOM     42  C2  IDS C   3       5.446 111.185  63.5610  0.00  0.00     0.000 C
ATOM     43  C3  IDS C   3       5.590 111.631  62.1080  0.00  0.00     0.000 C
ATOM     44  C4  IDS C   3       7.042 111.895  61.7410  0.00  0.00     0.000 C
ATOM     45  C5  IDS C   3       7.687 112.829  62.7860  0.00  0.00     0.000 C
ATOM     46  O5  IDS C   3       7.564 112.246  64.0850  0.00  0.00     0.000 O
ATOM     47   O  IDS C   3       4.814 112.808  61.8950  0.00  0.00     0.000 O
ATOM     49  HD  IDS C   3       4.896 111.954  62.0120  0.00  0.00     0.000 HD
BRANCH 42 49
ATOM     49   O  IDS C   3       5.988 109.813  63.6910  0.00  0.00     0.000 O
ATOM     50   S  IDS C   3       4.982 108.572  63.8190  0.00  0.00     0.000 S
ATOM     51   O  IDS C   3       4.422 108.458  62.4910  0.00  0.00     0.000 OA
ATOM     52   O  IDS C   3       3.976 108.867  64.8260  0.00  0.00     0.000 OA
ATOM     53   O  IDS C   3       5.799 107.434  64.1850  0.00  0.00     0.000 OA
ENDBRANCH 42 49
BRANCH 45 54
ATOM     54   C  IDS C   3       9.156 113.113  62.5150  0.00  0.00     0.000 C
ATOM     55   O  IDS C   3       9.977 112.868  63.3610  0.00  0.00     0.000 OA
ATOM     56   O  IDS C   3       9.493 113.602  61.4540  0.00  0.00     0.000 OA
ENDBRANCH 45 54
BRANCH 41 57
ATOM     57  O4  SGN C   4       5.433 113.222  64.6410  0.00  0.00     0.000 O
BRANCH 57 61
ATOM     58  C1  SGN C   4       5.374 116.698  66.9740  0.00  0.00     0.000 C
ATOM     59  C2  SGN C   4       6.575 116.518  66.0320  0.00  0.00     0.000 C
ATOM     60  C3  SGN C   4       6.287 115.456  64.9620  0.00  0.00     0.000 C
ATOM     61  C4  SGN C   4       5.848 114.166  65.6340  0.00  0.00     0.000 C
ATOM     62  C5  SGN C   4       4.673 114.424  66.5750  0.00  0.00     0.000 C
ATOM     63  O5  SGN C   4       5.005 115.446  67.5330  0.00  0.00     0.000 O
BRANCH 59 66
ATOM     64   N  SGN C   4       6.887 117.881  65.5890  0.00  0.00     0.000 N
ATOM     66  HD  SGN C   4       6.820 117.020  65.6420  0.00  0.00     0.000 HD
ATOM     66   O  SGN C   4       8.381 119.767  65.2060  0.00  0.00     0.000 OA
ATOM     67   O  SGN C   4       8.607 118.418  67.2490  0.00  0.00     0.000 OA
ATOM     68   S  SGN C   4       8.391 118.430  65.6960  0.00  0.00     0.000 S
ATOM     69   O  SGN C   4       9.258 117.478  65.1020  0.00  0.00     0.000 OA
ENDBRANCH 59 66
BRANCH 62 70
ATOM     70   C  SGN C   4       4.304 113.186  67.3540  0.00  0.00     0.000 C
ATOM     71   S  SGN C   4       5.282 111.236  68.7000  0.00  0.00     0.000 S
ATOM     72   O  SGN C   4       4.271 111.449  69.7170  0.00  0.00     0.000 OA
ATOM     73   O  SGN C   4       4.863 110.322  67.6570  0.00  0.00     0.000 OA
ATOM     74   O  SGN C   4       6.591 110.945  69.2380  0.00  0.00     0.000 OA
ATOM     75   O  SGN C   4       5.463 112.652  68.0050  0.00  0.00     0.000 O
ENDBRANCH 62 70
ENDBRANCH 57 61
ENDBRANCH 41 57
ENDBRANCH 40 44
ENDBRANCH 20 40
ENDBRANCH 19 23
ENDBRANCH 1 19
TORSDOF 14
ENDMDL
MODEL 78
REMARK VINA RESULT:      -0.7    110.334    114.968
ROOT
ATOM      1  C1  IDS C   1      95.967  86.634  57.3760  0.00  0.00     0.000 C
ATOM      2  C2  IDS C   1      95.202  87.597  58.2670  0.00  0.00     0.000 C
ATOM      3  C3  IDS C   1      93.899  88.026  57.6050  0.00  0.00     0.000 C
ATOM      4  C4  IDS C   1      93.094  86.815  57.1330  0.00  0.00     0.000 C
ATOM      5  C5  IDS C   1      93.992  85.861  56.3200  0.00  0.00     0.000 C
ATOM      6  O5  IDS C   1      95.149  85.506  57.0690  0.00  0.00     0.000 O
ATOM      7   O  IDS C   1      94.185  88.894  56.5070  0.00  0.00     0.000 O
ATOM      9  HD  IDS C   1      93.429  88.557  56.2510  0.00  0.00     0.000 HD
ATOM      9   O  IDS C   1      92.579  86.121  58.2800  0.00  0.00     0.000 O
ATOM     11  HD  IDS C   1      91.823  85.785  58.0250  0.00  0.00     0.000 HD
ENDROOT
BRANCH 2 11
ATOM     11   O  IDS C   1      94.861  86.944  59.5500  0.00  0.00     0.000 O
ATOM     12   S  IDS C   1      95.520  87.443  60.9180  0.00  0.00     0.000 S
ATOM     13   O  IDS C   1      94.448  87.239  61.8670  0.00  0.00     0.000 OA
ATOM     14   O  IDS C   1      95.901  88.829  60.7870  0.00  0.00     0.000 OA
ATOM     15   O  IDS C   1      96.643  86.563  61.1220  0.00  0.00     0.000 OA
ENDBRANCH 2 11
BRANCH 5 16
ATOM     16   C  IDS C   1      93.292  84.577  55.9140  0.00  0.00     0.000 C
ATOM     17   O  IDS C   1      93.888  83.780  55.2210  0.00  0.00     0.000 OA
ATOM     18   O  IDS C   1      92.163  84.358  56.2570  0.00  0.00     0.000 OA
ENDBRANCH 5 16
BRANCH 1 19
ATOM     19  O4  SGN C   2      96.692  87.122  56.3650  0.00  0.00     0.000 O
BRANCH 19 23
ATOM     20  C1  SGN C   2     100.100  86.583  54.0150  0.00  0.00     0.000 C
ATOM     21  C2  SGN C   2      98.947  85.598  53.7850  0.00  0.00     0.000 C
ATOM     22  C3  SGN C   2      97.657  86.169  54.3700  0.00  0.00     0.000 C
ATOM     23  C4  SGN C   2      97.858  86.477  55.8500  0.00  0.00     0.000 C
ATOM     24  C5  SGN C   2      99.073  87.392  56.0300  0.00  0.00     0.000 C
ATOM     25  O5  SGN C   2     100.228  86.797  55.4110  0.00  0.00     0.000 O
ATOM     26   O  SGN C   2      96.579  85.261  54.1800  0.00  0.00     0.000 O
ATOM     28  HD  SGN C   2      95.968  84.686  53.9640  0.00  0.00     0.000 HD
BRANCH 21 30
ATOM     28   N  SGN C   2      99.240  85.397  52.3600  0.00  0.00     0.000 N
ATOM     30  HD  SGN C   2      98.585  85.177  51.8380  0.00  0.00     0.000 HD
ATOM     30   S  SGN C   2      99.553  83.940  51.7760  0.00  0.00     0.000 S
ATOM     31   O  SGN C   2      98.456  83.128  52.1820  0.00  0.00     0.000 OA
ATOM     32   O  SGN C   2      99.871  84.066  50.4020  0.00  0.00     0.000 OA
ATOM     33   O  SGN C   2     100.868  83.510  52.5120  0.00  0.00     0.000 OA
ENDBRANCH 21 30
BRANCH 24 34
ATOM     34   C  SGN C   2      99.441  87.634  57.4750  0.00  0.00     0.000 C
ATOM     35   O  SGN C   2      98.893  88.898  57.8910  0.00  0.00     0.000 O
ATOM     36   S  SGN C   2      99.533  89.574  59.1880  0.00  0.00     0.000 S
ATOM     37   O  SGN C   2     100.954  89.632  58.9110  0.00  0.00     0.000 OA
ATOM     38   O  SGN C   2      98.915  90.873  59.2940  0.00  0.00     0.000 OA
ATOM     39   O  SGN C   2      99.182  88.673  60.2590  0.00  0.00     0.000 OA
ENDBRANCH 24 34
BRANCH 20 40
ATOM     40  O4  IDS C   3     100.037  87.759  53.3960  0.00  0.00     0.000 O
BRANCH 40 44
ATOM     41  C1  IDS C   3     100.023  90.726  51.4910  0.00  0.00     0.000 C
ATOM     42  C2  IDS C   3      99.878  89.355  50.8350  0.00  0.00     0.000 C
ATOM     43  C3  IDS C   3     101.004  88.429  51.2880  0.00  0.00     0.000 C
ATOM     44  C4  IDS C   3     101.155  88.423  52.8010  0.00  0.00     0.000 C
ATOM     45  C5  IDS C   3     101.239  89.872  53.3260  0.00  0.00     0.000 C
ATOM     46  O5  IDS C   3     100.080  90.597  52.9100  0.00  0.00     0.000 O
ATOM     47   O  IDS C   3     102.227  88.838  50.6790  0.00  0.00     0.000 O
ATOM     49  HD  IDS C   3     101.447  88.461  50.6580  0.00  0.00     0.000 HD
BRANCH 42 49
ATOM     49   O  IDS C   3      98.582  88.745  51.2110  0.00  0.00     0.000 O
ATOM     50   S  IDS C   3      97.654  88.093  50.0790  0.00  0.00     0.000 S
ATOM     51   O  IDS C   3      98.366  86.886  49.7190  0.00  0.00     0.000 OA
ATOM     52   O  IDS C   3      97.527  89.019  48.9660  0.00  0.00     0.000 OA
ATOM     53   O  IDS C   3      96.380  87.827  50.7130  0.00  0.00     0.000 OA
ENDBRANCH 42 49
BRANCH 45 54
ATOM     54   C  IDS C   3     101.352  89.958  54.8400  0.00  0.00     0.000 C
ATOM     55   O  IDS C   3     100.518  90.559  55.4670  0.00  0.00     0.000 OA
ATOM     56   O  IDS C   3     102.291  89.436  55.4090  0.00  0.00     0.000 OA
ENDBRANCH 45 54
BRANCH 41 57
ATOM     57  O4  SGN C   4     100.970  91.386  50.8150  0.00  0.00     0.000 O
BRANCH 57 61
ATOM     58  C1  SGN C   4     102.360  95.317  50.4310  0.00  0.00     0.000 C
ATOM     59  C2  SGN C   4     102.345  94.724  51.8500  0.00  0.00     0.000 C
ATOM     60  C3  SGN C   4     102.218  93.195  51.8100  0.00  0.00     0.000 C
ATOM     61  C4  SGN C   4     101.005  92.807  50.9810  0.00  0.00     0.000 C
ATOM     62  C5  SGN C   4     101.073  93.453  49.5980  0.00  0.00     0.000 C
ATOM     63  O5  SGN C   4     101.215  94.882  49.7120  0.00  0.00     0.000 O
BRANCH 59 66
ATOM     64   N  SGN C   4     103.528  95.307  52.4900  0.00  0.00     0.000 N
ATOM     66  HD  SGN C   4     102.863  94.792  52.2850  0.00  0.00     0.000 HD
ATOM     66   O  SGN C   4     104.688  96.487  54.2780  0.00  0.00     0.000 OA
ATOM     67   O  SGN C   4     102.449  97.220  53.5740  0.00  0.00     0.000 OA
ATOM     68   S  SGN C   4     103.392  96.017  53.9220  0.00  0.00     0.000 S
ATOM     69   O  SGN C   4     102.709  95.133  54.7960  0.00  0.00     0.000 OA
ENDBRANCH 59 66
BRANCH 62 70
ATOM     70   C  SGN C   4      99.818  93.194  48.8030  0.00  0.00     0.000 C
ATOM     71   S  SGN C   4      97.323  93.765  48.6530  0.00  0.00     0.000 S
ATOM     72   O  SGN C   4      97.469  93.962  47.2240  0.00  0.00     0.000 OA
ATOM     73   O  SGN C   4      97.001  92.399  49.0140  0.00  0.00     0.000 OA
ATOM     74   O  SGN C   4      96.479  94.750  49.2890  0.00  0.00     0.000 OA
ATOM     75   O  SGN C   4      98.765  94.056  49.2510  0.00  0.00     0.000 O
ENDBRANCH 62 70
ENDBRANCH 57 61
ENDBRANCH 41 57
ENDBRANCH 40 44
ENDBRANCH 20 40
ENDBRANCH 19 23
ENDBRANCH 1 19
TORSDOF 14
ENDMDL
MODEL 79
REMARK VINA RESULT:      -0.7    135.687    140.025
ROOT
ATOM      1  C1  IDS C   1     106.409  92.501  97.0860  0.00  0.00     0.000 C
ATOM      2  C2  IDS C   1     107.634  91.605  97.0320  0.00  0.00     0.000 C
ATOM      3  C3  IDS C   1     107.360  90.274  97.7230  0.00  0.00     0.000 C
ATOM      4  C4  IDS C   1     106.075  89.634  97.1980  0.00  0.00     0.000 C
ATOM      5  C5  IDS C   1     104.924  90.660  97.2100  0.00  0.00     0.000 C
ATOM      6  O5  IDS C   1     105.295  91.834  96.4960  0.00  0.00     0.000 O
ATOM      7   O  IDS C   1     107.277  90.479  99.1340  0.00  0.00     0.000 O
ATOM      9  HD  IDS C   1     106.780  89.775  99.0450  0.00  0.00     0.000 HD
ATOM      9   O  IDS C   1     106.295  89.181  95.8530  0.00  0.00     0.000 O
ATOM     11  HD  IDS C   1     105.798  88.478  95.7640  0.00  0.00     0.000 HD
ENDROOT
BRANCH 2 11
ATOM     11   O  IDS C   1     107.993  91.316  95.6260  0.00  0.00     0.000 O
ATOM     12   S  IDS C   1     109.488  91.538  95.1070  0.00  0.00     0.000 S
ATOM     13   O  IDS C   1     109.640  90.470  94.1430  0.00  0.00     0.000 OA
ATOM     14   O  IDS C   1     110.402  91.429  96.2180  0.00  0.00     0.000 OA
ATOM     15   O  IDS C   1     109.474  92.851  94.5110  0.00  0.00     0.000 OA
ENDBRANCH 2 11
BRANCH 5 16
ATOM     16   C  IDS C   1     103.642  90.129  96.5950  0.00  0.00     0.000 C
ATOM     17   O  IDS C   1     102.692  90.876  96.4890  0.00  0.00     0.000 OA
ATOM     18   O  IDS C   1     103.559  88.988  96.2330  0.00  0.00     0.000 OA
ENDBRANCH 5 16
BRANCH 1 19
ATOM     19  O4  SGN C   2     106.154  93.185  98.2060  0.00  0.00     0.000 O
BRANCH 19 23
ATOM     20  C1  SGN C   2     104.541  96.692  99.7930  0.00  0.00     0.000 C
ATOM     21  C2  SGN C   2     103.547  95.697  99.1830  0.00  0.00     0.000 C
ATOM     22  C3  SGN C   2     104.205  94.325  99.0540  0.00  0.00     0.000 C
ATOM     23  C4  SGN C   2     105.478  94.443  98.2230  0.00  0.00     0.000 C
ATOM     24  C5  SGN C   2     106.395  95.511  98.8260  0.00  0.00     0.000 C
ATOM     25  O5  SGN C   2     105.680  96.754  98.9510  0.00  0.00     0.000 O
ATOM     26   O  SGN C   2     103.301  93.392  98.4740  0.00  0.00     0.000 O
ATOM     28  HD  SGN C   2     102.672  92.874  98.1810  0.00  0.00     0.000 HD
BRANCH 21 30
ATOM     28   N  SGN C   2     102.516  96.258 100.0660  0.00  0.00     0.000 N
ATOM     30  HD  SGN C   2     101.968  95.708 100.4500  0.00  0.00     0.000 HD
ATOM     30   S  SGN C   2     101.046  96.583  99.5230  0.00  0.00     0.000 S
ATOM     31   O  SGN C   2     100.590  95.373  98.9260  0.00  0.00     0.000 OA
ATOM     32   O  SGN C   2     100.303  97.179 100.5700  0.00  0.00     0.000 OA
ATOM     33   O  SGN C   2     101.278  97.689  98.4380  0.00  0.00     0.000 OA
ENDBRANCH 21 30
BRANCH 24 34
ATOM     34   C  SGN C   2     107.617  95.804  97.9880  0.00  0.00     0.000 C
ATOM     35   O  SGN C   2     108.777  95.274  98.6530  0.00  0.00     0.000 O
ATOM     36   S  SGN C   2     110.196  95.861  98.2140  0.00  0.00     0.000 S
ATOM     37   O  SGN C   2     110.062  97.297  98.3590  0.00  0.00     0.000 OA
ATOM     38   O  SGN C   2     111.155  95.280  99.1220  0.00  0.00     0.000 OA
ATOM     39   O  SGN C   2     110.347  95.422  96.8490  0.00  0.00     0.000 OA
ENDBRANCH 24 34
BRANCH 20 40
ATOM     40  O4  IDS C   3     104.933  96.479 101.0470  0.00  0.00     0.000 O
BRANCH 40 44
ATOM     41  C1  IDS C   3     105.558  96.090 104.4940  0.00  0.00     0.000 C
ATOM     42  C2  IDS C   3     104.137  96.205 103.9490  0.00  0.00     0.000 C
ATOM     43  C3  IDS C   3     104.009  97.440 103.0590  0.00  0.00     0.000 C
ATOM     44  C4  IDS C   3     105.121  97.506 102.0240  0.00  0.00     0.000 C
ATOM     45  C5  IDS C   3     106.490  97.326 102.7120  0.00  0.00     0.000 C
ATOM     46  O5  IDS C   3     106.504  96.089 103.4290  0.00  0.00     0.000 O
ATOM     47   O  IDS C   3     104.030  98.612 103.8700  0.00  0.00     0.000 O
ATOM     49  HD  IDS C   3     103.643  97.905 103.5520  0.00  0.00     0.000 HD
BRANCH 42 49
ATOM     49   O  IDS C   3     103.800  95.006 103.1470  0.00  0.00     0.000 O
ATOM     50   S  IDS C   3     102.424  94.233 103.4160  0.00  0.00     0.000 S
ATOM     51   O  IDS C   3     101.425  95.135 102.8860  0.00  0.00     0.000 OA
ATOM     52   O  IDS C   3     102.269  94.005 104.8430  0.00  0.00     0.000 OA
ATOM     53   O  IDS C   3     102.512  92.993 102.6740  0.00  0.00     0.000 OA
ENDBRANCH 42 49
BRANCH 45 54
ATOM     54   C  IDS C   3     107.659  97.339 101.7390  0.00  0.00     0.000 C
ATOM     55   O  IDS C   3     108.427  96.412 101.7160  0.00  0.00     0.000 OA
ATOM     56   O  IDS C   3     107.824  98.292 101.0030  0.00  0.00     0.000 OA
ENDBRANCH 45 54
BRANCH 41 57
ATOM     57  O4  SGN C   4     105.658  96.953 105.5120  0.00  0.00     0.000 O
BRANCH 57 61
ATOM     58  C1  SGN C   4     108.371  97.880 108.5630  0.00  0.00     0.000 C
ATOM     59  C2  SGN C   4     108.790  98.247 107.1310  0.00  0.00     0.000 C
ATOM     60  C3  SGN C   4     107.584  98.244 106.1820  0.00  0.00     0.000 C
ATOM     61  C4  SGN C   4     106.866  96.907 106.2770  0.00  0.00     0.000 C
ATOM     62  C5  SGN C   4     106.507  96.595 107.7290  0.00  0.00     0.000 C
ATOM     63  O5  SGN C   4     107.680  96.639 108.5630  0.00  0.00     0.000 O
BRANCH 59 66
ATOM     64   N  SGN C   4     109.543  99.495 107.2870  0.00  0.00     0.000 N
ATOM     66  HD  SGN C   4     109.071  98.844 106.9660  0.00  0.00     0.000 HD
ATOM     66   O  SGN C   4     111.479 100.936 106.9570  0.00  0.00     0.000 OA
ATOM     67   O  SGN C   4     111.796  98.546 107.4350  0.00  0.00     0.000 OA
ATOM     68   S  SGN C   4     111.002  99.635 106.6340  0.00  0.00     0.000 S
ATOM     69   O  SGN C   4     110.922  99.240 105.2730  0.00  0.00     0.000 OA
ENDBRANCH 59 66
BRANCH 62 70
ATOM     70   C  SGN C   4     105.914  95.215 107.8680  0.00  0.00     0.000 C
ATOM     71   S  SGN C   4     106.219  92.766 107.1740  0.00  0.00     0.000 S
ATOM     72   O  SGN C   4     105.961  92.361 108.5420  0.00  0.00     0.000 OA
ATOM     73   O  SGN C   4     105.019  92.857 106.3670  0.00  0.00     0.000 OA
ATOM     74   O  SGN C   4     107.289  92.027 106.5450  0.00  0.00     0.000 OA
ATOM     75   O  SGN C   4     106.792  94.242 107.2890  0.00  0.00     0.000 O
ENDBRANCH 62 70
ENDBRANCH 57 61
ENDBRANCH 41 57
ENDBRANCH 40 44
ENDBRANCH 20 40
ENDBRANCH 19 23
ENDBRANCH 1 19
TORSDOF 14
ENDMDL
MODEL 80
REMARK VINA RESULT:      -0.7     58.795     63.768
ROOT
ATOM      1  C1  IDS C   1      30.938  62.008  55.9920  0.00  0.00     0.000 C
ATOM      2  C2  IDS C   1      30.156  61.539  54.7780  0.00  0.00     0.000 C
ATOM      3  C3  IDS C   1      29.789  62.716  53.8830  0.00  0.00     0.000 C
ATOM      4  C4  IDS C   1      31.017  63.568  53.5610  0.00  0.00     0.000 C
ATOM      5  C5  IDS C   1      31.785  63.906  54.8540  0.00  0.00     0.000 C
ATOM      6  O5  IDS C   1      32.102  62.718  55.5710  0.00  0.00     0.000 O
ATOM      7   O  IDS C   1      28.785  63.506  54.5220  0.00  0.00     0.000 O
ATOM      9  HD  IDS C   1      29.166  64.103  54.0230  0.00  0.00     0.000 HD
ATOM      9   O  IDS C   1      31.876  62.833  52.6750  0.00  0.00     0.000 O
ATOM     11  HD  IDS C   1      32.256  63.430  52.1770  0.00  0.00     0.000 HD
ENDROOT
BRANCH 2 11
ATOM     11   O  IDS C   1      30.972  60.600  53.9760  0.00  0.00     0.000 O
ATOM     12   S  IDS C   1      30.426  59.139  53.6280  0.00  0.00     0.000 S
ATOM     13   O  IDS C   1      30.974  58.914  52.3090  0.00  0.00     0.000 OA
ATOM     14   O  IDS C   1      28.983  59.152  53.6440  0.00  0.00     0.000 OA
ATOM     15   O  IDS C   1      30.997  58.287  54.6410  0.00  0.00     0.000 OA
ENDBRANCH 2 11
BRANCH 5 16
ATOM     16   C  IDS C   1      33.081  64.655  54.6040  0.00  0.00     0.000 C
ATOM     17   O  IDS C   1      33.203  65.285  53.5750  0.00  0.00     0.000 OA
ATOM     18   O  IDS C   1      33.980  64.614  55.3990  0.00  0.00     0.000 OA
ENDBRANCH 5 16
BRANCH 1 19
ATOM     19  O4  SGN C   2      30.276  62.534  57.0270  0.00  0.00     0.000 O
BRANCH 19 23
ATOM     20  C1  SGN C   2      30.010  62.719  61.1890  0.00  0.00     0.000 C
ATOM     21  C2  SGN C   2      31.199  63.443  60.5460  0.00  0.00     0.000 C
ATOM     22  C3  SGN C   2      30.929  63.658  59.0590  0.00  0.00     0.000 C
ATOM     23  C4  SGN C   2      30.647  62.318  58.3900  0.00  0.00     0.000 C
ATOM     24  C5  SGN C   2      29.511  61.599  59.1230  0.00  0.00     0.000 C
ATOM     25  O5  SGN C   2      29.832  61.480  60.5210  0.00  0.00     0.000 O
ATOM     26   O  SGN C   2      32.030  64.315  58.4430  0.00  0.00     0.000 O
ATOM     28  HD  SGN C   2      32.708  64.775  58.1620  0.00  0.00     0.000 HD
BRANCH 21 30
ATOM     28   N  SGN C   2      31.244  64.123  61.8470  0.00  0.00     0.000 N
ATOM     30  HD  SGN C   2      31.174  64.986  61.8560  0.00  0.00     0.000 HD
ATOM     30   S  SGN C   2      32.614  64.714  62.4260  0.00  0.00     0.000 S
ATOM     31   O  SGN C   2      33.122  65.561  61.4000  0.00  0.00     0.000 OA
ATOM     32   O  SGN C   2      32.366  65.239  63.7180  0.00  0.00     0.000 OA
ATOM     33   O  SGN C   2      33.524  63.453  62.6110  0.00  0.00     0.000 OA
ENDBRANCH 21 30
BRANCH 24 34
ATOM     34   C  SGN C   2      29.258  60.196  58.6230  0.00  0.00     0.000 C
ATOM     35   O  SGN C   2      28.088  60.202  57.7870  0.00  0.00     0.000 O
ATOM     36   S  SGN C   2      27.366  58.800  57.5400  0.00  0.00     0.000 S
ATOM     37   O  SGN C   2      27.116  58.274  58.8680  0.00  0.00     0.000 OA
ATOM     38   O  SGN C   2      26.161  59.106  56.8070  0.00  0.00     0.000 OA
ATOM     39   O  SGN C   2      28.330  58.040  56.7820  0.00  0.00     0.000 OA
ENDBRANCH 24 34
BRANCH 20 40
ATOM     40  O4  IDS C   3      28.847  63.364  61.2320  0.00  0.00     0.000 O
BRANCH 40 44
ATOM     41  C1  IDS C   3      25.955  65.320  61.7210  0.00  0.00     0.000 C
ATOM     42  C2  IDS C   3      27.314  65.759  62.2560  0.00  0.00     0.000 C
ATOM     43  C3  IDS C   3      27.949  64.638  63.0760  0.00  0.00     0.000 C
ATOM     44  C4  IDS C   3      27.931  63.314  62.3280  0.00  0.00     0.000 C
ATOM     45  C5  IDS C   3      26.508  63.026  61.8050  0.00  0.00     0.000 C
ATOM     46  O5  IDS C   3      26.076  64.109  60.9790  0.00  0.00     0.000 O
ATOM     47   O  IDS C   3      27.256  64.507  64.3140  0.00  0.00     0.000 O
ATOM     49  HD  IDS C   3      27.807  64.911  63.7830  0.00  0.00     0.000 HD
BRANCH 42 49
ATOM     49   O  IDS C   3      28.220  66.096  61.1330  0.00  0.00     0.000 O
ATOM     50   S  IDS C   3      29.086  67.442  61.1880  0.00  0.00     0.000 S
ATOM     51   O  IDS C   3      30.085  67.155  62.1930  0.00  0.00     0.000 OA
ATOM     52   O  IDS C   3      28.226  68.555  61.5580  0.00  0.00     0.000 OA
ATOM     53   O  IDS C   3      29.649  67.608  59.8650  0.00  0.00     0.000 OA
ENDBRANCH 42 49
BRANCH 45 54
ATOM     54   C  IDS C   3      26.409  61.734  61.0090  0.00  0.00     0.000 C
ATOM     55   O  IDS C   3      26.010  61.763  59.8730  0.00  0.00     0.000 OA
ATOM     56   O  IDS C   3      26.715  60.678  61.5260  0.00  0.00     0.000 OA
ENDBRANCH 45 54
BRANCH 41 57
ATOM     57  O4  SGN C   4      25.082  65.431  62.7300  0.00  0.00     0.000 O
BRANCH 57 61
ATOM     58  C1  SGN C   4      20.938  65.289  63.3070  0.00  0.00     0.000 C
ATOM     59  C2  SGN C   4      21.617  63.989  62.8470  0.00  0.00     0.000 C
ATOM     60  C3  SGN C   4      23.134  64.048  63.0680  0.00  0.00     0.000 C
ATOM     61  C4  SGN C   4      23.697  65.291  62.3990  0.00  0.00     0.000 C
ATOM     62  C5  SGN C   4      22.957  66.539  62.8800  0.00  0.00     0.000 C
ATOM     63  O5  SGN C   4      21.540  66.403  62.6640  0.00  0.00     0.000 O
BRANCH 59 66
ATOM     64   N  SGN C   4      20.872  62.924  63.5270  0.00  0.00     0.000 N
ATOM     66  HD  SGN C   4      21.482  63.376  63.1110  0.00  0.00     0.000 HD
ATOM     66   O  SGN C   4      19.595  60.851  63.5970  0.00  0.00     0.000 OA
ATOM     67   O  SGN C   4      19.217  62.465  61.7810  0.00  0.00     0.000 OA
ATOM     68   S  SGN C   4      20.260  61.709  62.6760  0.00  0.00     0.000 S
ATOM     69   O  SGN C   4      21.283  61.183  61.8480  0.00  0.00     0.000 OA
ENDBRANCH 59 66
BRANCH 62 70
ATOM     70   C  SGN C   4      23.405  67.770  62.1330  0.00  0.00     0.000 C
ATOM     71   S  SGN C   4      23.819  68.716  59.7860  0.00  0.00     0.000 S
ATOM     72   O  SGN C   4      23.128  69.931  60.1700  0.00  0.00     0.000 OA
ATOM     73   O  SGN C   4      25.241  68.751  60.0650  0.00  0.00     0.000 OA
ATOM     74   O  SGN C   4      23.498  68.265  58.4520  0.00  0.00     0.000 OA
ATOM     75   O  SGN C   4      23.209  67.590  60.7250  0.00  0.00     0.000 O
ENDBRANCH 62 70
ENDBRANCH 57 61
ENDBRANCH 41 57
ENDBRANCH 40 44
ENDBRANCH 20 40
ENDBRANCH 19 23
ENDBRANCH 1 19
TORSDOF 14
ENDMDL
MODEL 81
REMARK VINA RESULT:      -0.7     82.607     87.399
ROOT
ATOM      1  C1  IDS C   1      52.100  82.699  50.6670  0.00  0.00     0.000 C
ATOM      2  C2  IDS C   1      50.764  82.610  51.3830  0.00  0.00     0.000 C
ATOM      3  C3  IDS C   1      50.121  83.987  51.5020  0.00  0.00     0.000 C
ATOM      4  C4  IDS C   1      50.075  84.693  50.1470  0.00  0.00     0.000 C
ATOM      5  C5  IDS C   1      51.460  84.641  49.4700  0.00  0.00     0.000 C
ATOM      6  O5  IDS C   1      51.922  83.298  49.3840  0.00  0.00     0.000 O
ATOM      7   O  IDS C   1      50.847  84.771  52.4500  0.00  0.00     0.000 O
ATOM      9  HD  IDS C   1      50.517  85.394  51.9470  0.00  0.00     0.000 HD
ATOM      9   O  IDS C   1      49.111  84.035  49.3100  0.00  0.00     0.000 O
ATOM     11  HD  IDS C   1      48.781  84.657  48.8070  0.00  0.00     0.000 HD
ENDROOT
BRANCH 2 11
ATOM     11   O  IDS C   1      49.835  81.744  50.6230  0.00  0.00     0.000 O
ATOM     12   S  IDS C   1      49.208  80.437  51.2960  0.00  0.00     0.000 S
ATOM     13   O  IDS C   1      47.890  80.389  50.7010  0.00  0.00     0.000 OA
ATOM     14   O  IDS C   1      49.174  80.605  52.7280  0.00  0.00     0.000 OA
ATOM     15   O  IDS C   1      50.069  79.362  50.8700  0.00  0.00     0.000 OA
ENDBRANCH 2 11
BRANCH 5 16
ATOM     16   C  IDS C   1      51.464  85.222  48.0680  0.00  0.00     0.000 C
ATOM     17   O  IDS C   1      51.913  86.336  47.8990  0.00  0.00     0.000 OA
ATOM     18   O  IDS C   1      51.018  84.601  47.1430  0.00  0.00     0.000 OA
ENDBRANCH 5 16
BRANCH 1 19
ATOM     19  O4  SGN C   2      53.178  83.095  51.3520  0.00  0.00     0.000 O
BRANCH 19 23
ATOM     20  C1  SGN C   2      57.268  82.507  51.9400  0.00  0.00     0.000 C
ATOM     21  C2  SGN C   2      56.859  83.233  50.6530  0.00  0.00     0.000 C
ATOM     22  C3  SGN C   2      55.429  83.750  50.7850  0.00  0.00     0.000 C
ATOM     23  C4  SGN C   2      54.493  82.592  51.1100  0.00  0.00     0.000 C
ATOM     24  C5  SGN C   2      54.995  81.850  52.3510  0.00  0.00     0.000 C
ATOM     25  O5  SGN C   2      56.360  81.439  52.1550  0.00  0.00     0.000 O
ATOM     26   O  SGN C   2      55.027  84.413  49.5920  0.00  0.00     0.000 O
ATOM     28  HD  SGN C   2      54.887  84.857  48.8620  0.00  0.00     0.000 HD
BRANCH 21 30
ATOM     28   N  SGN C   2      58.180  83.875  50.6490  0.00  0.00     0.000 N
ATOM     30  HD  SGN C   2      58.223  84.714  50.4380  0.00  0.00     0.000 HD
ATOM     30   S  SGN C   2      59.041  83.993  49.3050  0.00  0.00     0.000 S
ATOM     31   O  SGN C   2      58.178  84.617  48.3600  0.00  0.00     0.000 OA
ATOM     32   O  SGN C   2      60.288  84.584  49.6220  0.00  0.00     0.000 OA
ATOM     33   O  SGN C   2      59.326  82.506  48.9050  0.00  0.00     0.000 OA
ENDBRANCH 21 30
BRANCH 24 34
ATOM     34   C  SGN C   2      54.214  80.595  52.6650  0.00  0.00     0.000 C
ATOM     35   O  SGN C   2      53.359  80.848  53.7950  0.00  0.00     0.000 O
ATOM     36   S  SGN C   2      52.811  79.575  54.5880  0.00  0.00     0.000 S
ATOM     37   O  SGN C   2      53.996  78.814  54.9280  0.00  0.00     0.000 OA
ATOM     38   O  SGN C   2      52.118  80.103  55.7380  0.00  0.00     0.000 OA
ATOM     39   O  SGN C   2      51.946  78.919  53.6380  0.00  0.00     0.000 OA
ENDBRANCH 24 34
BRANCH 20 40
ATOM     40  O4  IDS C   3      57.361  83.232  53.0520  0.00  0.00     0.000 O
BRANCH 40 44
ATOM     41  C1  IDS C   3      57.953  85.247  55.8840  0.00  0.00     0.000 C
ATOM     42  C2  IDS C   3      58.628  85.534  54.5460  0.00  0.00     0.000 C
ATOM     43  C3  IDS C   3      59.313  84.277  54.0160  0.00  0.00     0.000 C
ATOM     44  C4  IDS C   3      58.382  83.075  54.0410  0.00  0.00     0.000 C
ATOM     45  C5  IDS C   3      57.737  82.939  55.4370  0.00  0.00     0.000 C
ATOM     46  O5  IDS C   3      57.052  84.149  55.7650  0.00  0.00     0.000 O
ATOM     47   O  IDS C   3      60.475  84.007  54.7960  0.00  0.00     0.000 O
ATOM     49  HD  IDS C   3      60.042  84.453  54.1930  0.00  0.00     0.000 HD
BRANCH 42 49
ATOM     49   O  IDS C   3      57.622  85.979  53.5530  0.00  0.00     0.000 O
ATOM     50   S  IDS C   3      57.949  87.219  52.5940  0.00  0.00     0.000 S
ATOM     51   O  IDS C   3      58.932  86.683  51.6790  0.00  0.00     0.000 OA
ATOM     52   O  IDS C   3      58.468  88.321  53.3880  0.00  0.00     0.000 OA
ATOM     53   O  IDS C   3      56.701  87.559  51.9430  0.00  0.00     0.000 OA
ENDBRANCH 42 49
BRANCH 45 54
ATOM     54   C  IDS C   3      56.758  81.780  55.5380  0.00  0.00     0.000 C
ATOM     55   O  IDS C   3      55.627  81.985  55.8980  0.00  0.00     0.000 OA
ATOM     56   O  IDS C   3      57.123  80.652  55.2720  0.00  0.00     0.000 OA
ENDBRANCH 45 54
BRANCH 41 57
ATOM     57  O4  SGN C   4      58.913  85.259  56.8170  0.00  0.00     0.000 O
BRANCH 57 61
ATOM     58  C1  SGN C   4      59.211  85.316  60.9930  0.00  0.00     0.000 C
ATOM     59  C2  SGN C   4      58.496  84.107  60.3670  0.00  0.00     0.000 C
ATOM     60  C3  SGN C   4      58.808  83.994  58.8680  0.00  0.00     0.000 C
ATOM     61  C4  SGN C   4      58.483  85.309  58.1810  0.00  0.00     0.000 C
ATOM     62  C5  SGN C   4      59.203  86.467  58.8720  0.00  0.00     0.000 C
ATOM     63  O5  SGN C   4      58.883  86.497  60.2760  0.00  0.00     0.000 O
BRANCH 59 66
ATOM     64   N  SGN C   4      58.863  82.985  61.2360  0.00  0.00     0.000 N
ATOM     66  HD  SGN C   4      58.609  83.466  60.5630  0.00  0.00     0.000 HD
ATOM     66   O  SGN C   4      58.373  81.051  62.6330  0.00  0.00     0.000 OA
ATOM     67   O  SGN C   4      56.925  83.035  62.7330  0.00  0.00     0.000 OA
ATOM     68   S  SGN C   4      57.720  82.029  61.8310  0.00  0.00     0.000 S
ATOM     69   O  SGN C   4      56.887  81.610  60.7620  0.00  0.00     0.000 OA
ENDBRANCH 59 66
BRANCH 62 70
ATOM     70   C  SGN C   4      58.793  87.798  58.2930  0.00  0.00     0.000 C
ATOM     71   S  SGN C   4      56.762  89.221  57.6450  0.00  0.00     0.000 S
ATOM     72   O  SGN C   4      57.377  90.366  58.2860  0.00  0.00     0.000 OA
ATOM     73   O  SGN C   4      57.124  89.082  56.2490  0.00  0.00     0.000 OA
ATOM     74   O  SGN C   4      55.342  89.115  57.8920  0.00  0.00     0.000 OA
ATOM     75   O  SGN C   4      57.373  87.961  58.3930  0.00  0.00     0.000 O
ENDBRANCH 62 70
ENDBRANCH 57 61
ENDBRANCH 41 57
ENDBRANCH 40 44
ENDBRANCH 20 40
ENDBRANCH 19 23
ENDBRANCH 1 19
TORSDOF 14
ENDMDL
MODEL 82
REMARK VINA RESULT:      -0.7    121.117    125.996
ROOT
ATOM      1  C1  IDS C   1      35.023 104.582 108.0090  0.00  0.00     0.000 C
ATOM      2  C2  IDS C   1      34.465 104.838 109.3980  0.00  0.00     0.000 C
ATOM      3  C3  IDS C   1      33.590 106.086 109.4070  0.00  0.00     0.000 C
ATOM      4  C4  IDS C   1      32.541 106.033 108.2960  0.00  0.00     0.000 C
ATOM      5  C5  IDS C   1      33.205 105.674 106.9520  0.00  0.00     0.000 C
ATOM      6  O5  IDS C   1      33.953 104.469 107.0720  0.00  0.00     0.000 O
ATOM      7   O  IDS C   1      34.413 107.245 109.2630  0.00  0.00     0.000 O
ATOM      9  HD  IDS C   1      33.668 107.535 108.9290  0.00  0.00     0.000 HD
ATOM      9   O  IDS C   1      31.562 105.036 108.6260  0.00  0.00     0.000 O
ATOM     11  HD  IDS C   1      30.818 105.326 108.2920  0.00  0.00     0.000 HD
ENDROOT
BRANCH 2 11
ATOM     11   O  IDS C   1      33.626 103.698 109.8300  0.00  0.00     0.000 O
ATOM     12   S  IDS C   1      34.048 102.809 111.0880  0.00  0.00     0.000 S
ATOM     13   O  IDS C   1      32.766 102.463 111.6620  0.00  0.00     0.000 OA
ATOM     14   O  IDS C   1      34.869 103.596 111.9770  0.00  0.00     0.000 OA
ATOM     15   O  IDS C   1      34.745 101.682 110.5190  0.00  0.00     0.000 OA
ENDBRANCH 2 11
BRANCH 5 16
ATOM     16   C  IDS C   1      32.209 105.490 105.8210  0.00  0.00     0.000 C
ATOM     17   O  IDS C   1      31.124 106.025 105.9060  0.00  0.00     0.000 OA
ATOM     18   O  IDS C   1      32.479 104.815 104.8670  0.00  0.00     0.000 OA
ENDBRANCH 5 16
BRANCH 1 19
ATOM     19  O4  SGN C   2      36.087 105.278 107.5980  0.00  0.00     0.000 O
BRANCH 19 23
ATOM     20  C1  SGN C   2      39.600 105.153 105.3470  0.00  0.00     0.000 C
ATOM     21  C2  SGN C   2      38.285 105.223 104.5610  0.00  0.00     0.000 C
ATOM     22  C3  SGN C   2      37.160 105.695 105.4790  0.00  0.00     0.000 C
ATOM     23  C4  SGN C   2      37.057 104.766 106.6830  0.00  0.00     0.000 C
ATOM     24  C5  SGN C   2      38.416 104.663 107.3790  0.00  0.00     0.000 C
ATOM     25  O5  SGN C   2      39.420 104.256 106.4310  0.00  0.00     0.000 O
ATOM     26   O  SGN C   2      35.928 105.752 104.7690  0.00  0.00     0.000 O
ATOM     28  HD  SGN C   2      35.238 105.824 104.2510  0.00  0.00     0.000 HD
BRANCH 21 30
ATOM     28   N  SGN C   2      39.128 105.730 103.4700  0.00  0.00     0.000 N
ATOM     30  HD  SGN C   2      38.890 106.467 103.0820  0.00  0.00     0.000 HD
ATOM     30   S  SGN C   2      38.799 105.390 101.9410  0.00  0.00     0.000 S
ATOM     31   O  SGN C   2      37.443 105.782 101.7510  0.00  0.00     0.000 OA
ATOM     32   O  SGN C   2      39.817 105.945 101.1290  0.00  0.00     0.000 OA
ATOM     33   O  SGN C   2      38.946 103.832 101.8590  0.00  0.00     0.000 OA
ENDBRANCH 21 30
BRANCH 24 34
ATOM     34   C  SGN C   2      38.450 103.648 108.4970  0.00  0.00     0.000 C
ATOM     35   O  SGN C   2      38.392 104.340 109.7570  0.00  0.00     0.000 O
ATOM     36   S  SGN C   2      38.883 103.538 111.0480  0.00  0.00     0.000 S
ATOM     37   O  SGN C   2      40.215 103.077 110.7110  0.00  0.00     0.000 OA
ATOM     38   O  SGN C   2      38.862 104.492 112.1300  0.00  0.00     0.000 OA
ATOM     39   O  SGN C   2      37.915 102.478 111.1880  0.00  0.00     0.000 OA
ENDBRANCH 24 34
BRANCH 20 40
ATOM     40  O4  IDS C   3      40.106 106.296 105.8030  0.00  0.00     0.000 O
BRANCH 40 44
ATOM     41  C1  IDS C   3      41.600 109.384 106.6140  0.00  0.00     0.000 C
ATOM     42  C2  IDS C   3      41.209 109.039 105.1800  0.00  0.00     0.000 C
ATOM     43  C3  IDS C   3      41.794 107.686 104.7800  0.00  0.00     0.000 C
ATOM     44  C4  IDS C   3      41.499 106.617 105.8200  0.00  0.00     0.000 C
ATOM     45  C5  IDS C   3      41.899 107.123 107.2220  0.00  0.00     0.000 C
ATOM     46  O5  IDS C   3      41.209 108.342 107.5040  0.00  0.00     0.000 O
ATOM     47   O  IDS C   3      43.202 107.814 104.6010  0.00  0.00     0.000 O
ATOM     49  HD  IDS C   3      42.382 107.933 104.3480  0.00  0.00     0.000 HD
BRANCH 42 49
ATOM     49   O  IDS C   3      39.735 108.973 105.0560  0.00  0.00     0.000 O
ATOM     50   S  IDS C   3      39.010 109.687 103.8180  0.00  0.00     0.000 S
ATOM     51   O  IDS C   3      39.359 108.845 102.6960  0.00  0.00     0.000 OA
ATOM     52   O  IDS C   3      39.516 111.042 103.6780  0.00  0.00     0.000 OA
ATOM     53   O  IDS C   3      37.594 109.665 104.1200  0.00  0.00     0.000 OA
ENDBRANCH 42 49
BRANCH 45 54
ATOM     54   C  IDS C   3      41.600 106.125 108.3300  0.00  0.00     0.000 C
ATOM     55   O  IDS C   3      40.897 106.451 109.2520  0.00  0.00     0.000 OA
ATOM     56   O  IDS C   3      42.084 105.011 108.2910  0.00  0.00     0.000 OA
ENDBRANCH 45 54
BRANCH 41 57
ATOM     57  O4  SGN C   4      42.862 109.830 106.5790  0.00  0.00     0.000 O
BRANCH 57 61
ATOM     58  C1  SGN C   4      45.583 111.701 109.1530  0.00  0.00     0.000 C
ATOM     59  C2  SGN C   4      45.020 110.344 109.6090  0.00  0.00     0.000 C
ATOM     60  C3  SGN C   4      44.383 109.586 108.4360  0.00  0.00     0.000 C
ATOM     61  C4  SGN C   4      43.349 110.472 107.7620  0.00  0.00     0.000 C
ATOM     62  C5  SGN C   4      43.968 111.811 107.3630  0.00  0.00     0.000 C
ATOM     63  O5  SGN C   4      44.567 112.453 108.5050  0.00  0.00     0.000 O
BRANCH 59 66
ATOM     64   N  SGN C   4      46.138 109.705 110.3100  0.00  0.00     0.000 N
ATOM     66  HD  SGN C   4      45.403 109.850 109.8770  0.00  0.00     0.000 HD
ATOM     66   O  SGN C   4      47.172 108.584 112.2100  0.00  0.00     0.000 OA
ATOM     67   O  SGN C   4      45.611 110.445 112.5850  0.00  0.00     0.000 OA
ATOM     68   S  SGN C   4      45.925 109.129 111.7930  0.00  0.00     0.000 S
ATOM     69   O  SGN C   4      44.771 108.305 111.7910  0.00  0.00     0.000 OA
ENDBRANCH 59 66
BRANCH 62 70
ATOM     70   C  SGN C   4      42.932 112.759 106.8130  0.00  0.00     0.000 C
ATOM     71   S  SGN C   4      40.668 113.851 107.3190  0.00  0.00     0.000 S
ATOM     72   O  SGN C   4      41.200 115.125 106.8750  0.00  0.00     0.000 OA
ATOM     73   O  SGN C   4      40.069 113.075 106.2510  0.00  0.00     0.000 OA
ATOM     74   O  SGN C   4      39.843 113.949 108.5010  0.00  0.00     0.000 OA
ATOM     75   O  SGN C   4      41.937 113.031 107.8080  0.00  0.00     0.000 O
ENDBRANCH 62 70
ENDBRANCH 57 61
ENDBRANCH 41 57
ENDBRANCH 40 44
ENDBRANCH 20 40
ENDBRANCH 19 23
ENDBRANCH 1 19
TORSDOF 14
ENDMDL
MODEL 83
REMARK VINA RESULT:      -0.7    116.827    120.454
ROOT
ATOM      1  C1  IDS C   1     105.718  87.104  73.8500  0.00  0.00     0.000 C
ATOM      2  C2  IDS C   1     106.559  88.060  73.0220  0.00  0.00     0.000 C
ATOM      3  C3  IDS C   1     105.823  88.466  71.7510  0.00  0.00     0.000 C
ATOM      4  C4  IDS C   1     104.412  88.964  72.0650  0.00  0.00     0.000 C
ATOM      5  C5  IDS C   1     103.685  87.962  72.9860  0.00  0.00     0.000 C
ATOM      6  O5  IDS C   1     104.460  87.706  74.1520  0.00  0.00     0.000 O
ATOM      7   O  IDS C   1     105.773  87.355  70.8550  0.00  0.00     0.000 O
ATOM      9  HD  IDS C   1     105.067  87.791  70.6080  0.00  0.00     0.000 HD
ATOM      9   O  IDS C   1     104.502  90.237  72.7230  0.00  0.00     0.000 O
ATOM     11  HD  IDS C   1     103.796  90.673  72.4770  0.00  0.00     0.000 HD
ENDROOT
BRANCH 2 11
ATOM     11   O  IDS C   1     106.838  89.292  73.7930  0.00  0.00     0.000 O
ATOM     12   S  IDS C   1     108.342  89.727  74.1140  0.00  0.00     0.000 S
ATOM     13   O  IDS C   1     108.261  91.170  74.0650  0.00  0.00     0.000 OA
ATOM     14   O  IDS C   1     109.224  89.177  73.1130  0.00  0.00     0.000 OA
ATOM     15   O  IDS C   1     108.594  89.211  75.4370  0.00  0.00     0.000 OA
ENDBRANCH 2 11
BRANCH 5 16
ATOM     16   C  IDS C   1     102.318  88.444  73.4350  0.00  0.00     0.000 C
ATOM     17   O  IDS C   1     101.331  87.980  72.9040  0.00  0.00     0.000 OA
ATOM     18   O  IDS C   1     102.210  89.281  74.2880  0.00  0.00     0.000 OA
ENDBRANCH 5 16
BRANCH 1 19
ATOM     19  O4  SGN C   2     105.681  85.812  73.5110  0.00  0.00     0.000 O
BRANCH 19 23
ATOM     20  C1  SGN C   2     105.594  81.895  74.9500  0.00  0.00     0.000 C
ATOM     21  C2  SGN C   2     104.295  82.699  75.0760  0.00  0.00     0.000 C
ATOM     22  C3  SGN C   2     104.343  83.907  74.1430  0.00  0.00     0.000 C
ATOM     23  C4  SGN C   2     105.571  84.752  74.4620  0.00  0.00     0.000 C
ATOM     24  C5  SGN C   2     106.830  83.881  74.4080  0.00  0.00     0.000 C
ATOM     25  O5  SGN C   2     106.677  82.748  75.2810  0.00  0.00     0.000 O
ATOM     26   O  SGN C   2     103.151  84.674  74.2590  0.00  0.00     0.000 O
ATOM     28  HD  SGN C   2     102.372  85.044  74.3380  0.00  0.00     0.000 HD
BRANCH 21 30
ATOM     28   N  SGN C   2     103.415  81.531  74.9430  0.00  0.00     0.000 N
ATOM     30  HD  SGN C   2     102.622  81.655  74.6190  0.00  0.00     0.000 HD
ATOM     30   S  SGN C   2     102.360  81.152  76.0850  0.00  0.00     0.000 S
ATOM     31   O  SGN C   2     101.595  82.333  76.2970  0.00  0.00     0.000 OA
ATOM     32   O  SGN C   2     101.715  79.946  75.7180  0.00  0.00     0.000 OA
ATOM     33   O  SGN C   2     103.251  80.832  77.3340  0.00  0.00     0.000 OA
ENDBRANCH 21 30
BRANCH 24 34
ATOM     34   C  SGN C   2     108.083  84.598  74.8540  0.00  0.00     0.000 C
ATOM     35   O  SGN C   2     108.876  84.916  73.6970  0.00  0.00     0.000 O
ATOM     36   S  SGN C   2     110.421  85.235  73.9430  0.00  0.00     0.000 S
ATOM     37   O  SGN C   2     110.921  84.091  74.6810  0.00  0.00     0.000 OA
ATOM     38   O  SGN C   2     111.004  85.370  72.6300  0.00  0.00     0.000 OA
ATOM     39   O  SGN C   2     110.408  86.461  74.7030  0.00  0.00     0.000 OA
ENDBRANCH 24 34
BRANCH 20 40
ATOM     40  O4  IDS C   3     105.842  81.305  73.7830  0.00  0.00     0.000 O
BRANCH 40 44
ATOM     41  C1  IDS C   3     106.347  79.490  70.8040  0.00  0.00     0.000 C
ATOM     42  C2  IDS C   3     105.061  79.353  71.6130  0.00  0.00     0.000 C
ATOM     43  C3  IDS C   3     105.383  79.044  73.0730  0.00  0.00     0.000 C
ATOM     44  C4  IDS C   3     106.418  80.005  73.6370  0.00  0.00     0.000 C
ATOM     45  C5  IDS C   3     107.636  80.079  72.6920  0.00  0.00     0.000 C
ATOM     46  O5  IDS C   3     107.203  80.469  71.3870  0.00  0.00     0.000 O
ATOM     47   O  IDS C   3     105.856  77.703  73.1800  0.00  0.00     0.000 O
ATOM     49  HD  IDS C   3     105.227  78.289  73.0740  0.00  0.00     0.000 HD
BRANCH 42 49
ATOM     49   O  IDS C   3     104.285  80.614  71.5550  0.00  0.00     0.000 O
ATOM     50   S  IDS C   3     102.701  80.561  71.3260  0.00  0.00     0.000 S
ATOM     51   O  IDS C   3     102.198  80.055  72.5850  0.00  0.00     0.000 OA
ATOM     52   O  IDS C   3     102.403  79.677  70.2110  0.00  0.00     0.000 OA
ATOM     53   O  IDS C   3     102.291  81.924  71.0630  0.00  0.00     0.000 OA
ENDBRANCH 42 49
BRANCH 45 54
ATOM     54   C  IDS C   3     108.705  81.052  73.1640  0.00  0.00     0.000 C
ATOM     55   O  IDS C   3     109.200  80.913  74.2520  0.00  0.00     0.000 OA
ATOM     56   O  IDS C   3     109.044  81.974  72.4480  0.00  0.00     0.000 OA
ENDBRANCH 45 54
BRANCH 41 57
ATOM     57  O4  SGN C   4     106.783  78.251  70.5470  0.00  0.00     0.000 O
BRANCH 57 61
ATOM     58  C1  SGN C   4     109.645  76.384  68.1280  0.00  0.00     0.000 C
ATOM     59  C2  SGN C   4     110.174  77.288  69.2530  0.00  0.00     0.000 C
ATOM     60  C3  SGN C   4     109.084  77.571  70.2960  0.00  0.00     0.000 C
ATOM     61  C4  SGN C   4     107.852  78.128  69.6030  0.00  0.00     0.000 C
ATOM     62  C5  SGN C   4     107.400  77.195  68.4810  0.00  0.00     0.000 C
ATOM     63  O5  SGN C   4     108.477  76.955  67.5560  0.00  0.00     0.000 O
BRANCH 59 66
ATOM     64   N  SGN C   4     111.402  76.621  69.6990  0.00  0.00     0.000 N
ATOM     66  HD  SGN C   4     110.689  77.111  69.6610  0.00  0.00     0.000 HD
ATOM     66   O  SGN C   4     113.772  76.550  70.2540  0.00  0.00     0.000 OA
ATOM     67   O  SGN C   4     113.006  77.844  68.3100  0.00  0.00     0.000 OA
ATOM     68   S  SGN C   4     112.768  77.455  69.8100  0.00  0.00     0.000 S
ATOM     69   O  SGN C   4     112.513  78.633  70.5570  0.00  0.00     0.000 OA
ENDBRANCH 59 66
BRANCH 62 70
ATOM     70   C  SGN C   4     106.260  77.790  67.6910  0.00  0.00     0.000 C
ATOM     71   S  SGN C   4     105.450  79.935  66.5460  0.00  0.00     0.000 S
ATOM     72   O  SGN C   4     105.048  79.151  65.3940  0.00  0.00     0.000 OA
ATOM     73   O  SGN C   4     104.409  80.061  67.5450  0.00  0.00     0.000 OA
ATOM     74   O  SGN C   4     106.081  81.188  66.2000  0.00  0.00     0.000 OA
ATOM     75   O  SGN C   4     106.616  79.095  67.2210  0.00  0.00     0.000 O
ENDBRANCH 62 70
ENDBRANCH 57 61
ENDBRANCH 41 57
ENDBRANCH 40 44
ENDBRANCH 20 40
ENDBRANCH 19 23
ENDBRANCH 1 19
TORSDOF 14
ENDMDL
MODEL 84
REMARK VINA RESULT:      -0.7    134.427    138.501
ROOT
ATOM      1  C1  IDS C   1     102.511 105.222  74.2150  0.00  0.00     0.000 C
ATOM      2  C2  IDS C   1     101.948 105.283  75.6240  0.00  0.00     0.000 C
ATOM      3  C3  IDS C   1     101.057 106.507  75.7970  0.00  0.00     0.000 C
ATOM      4  C4  IDS C   1     100.011 106.590  74.6860  0.00  0.00     0.000 C
ATOM      5  C5  IDS C   1     100.681 106.423  73.3080  0.00  0.00     0.000 C
ATOM      6  O5  IDS C   1     101.445 105.221  73.2680  0.00  0.00     0.000 O
ATOM      7   O  IDS C   1     101.865 107.685  75.8130  0.00  0.00     0.000 O
ATOM      9  HD  IDS C   1     101.117 108.008  75.5190  0.00  0.00     0.000 HD
ATOM      9   O  IDS C   1      99.045 105.545  74.8760  0.00  0.00     0.000 O
ATOM     11  HD  IDS C   1      98.297 105.867  74.5820  0.00  0.00     0.000 HD
ENDROOT
BRANCH 2 11
ATOM     11   O  IDS C   1     101.123 104.084  75.8960  0.00  0.00     0.000 O
ATOM     12   S  IDS C   1     101.465 103.124  77.1270  0.00  0.00     0.000 S
ATOM     13   O  IDS C   1     100.152 102.691  77.5520  0.00  0.00     0.000 OA
ATOM     14   O  IDS C   1     102.165 103.876  78.1400  0.00  0.00     0.000 OA
ATOM     15   O  IDS C   1     102.260 102.068  76.5530  0.00  0.00     0.000 OA
ENDBRANCH 2 11
BRANCH 5 16
ATOM     16   C  IDS C   1      99.690 106.379  72.1600  0.00  0.00     0.000 C
ATOM     17   O  IDS C   1      99.556 107.364  71.4650  0.00  0.00     0.000 OA
ATOM     18   O  IDS C   1      99.036 105.395  71.9480  0.00  0.00     0.000 OA
ENDBRANCH 5 16
BRANCH 1 19
ATOM     19  O4  SGN C   2     103.567 105.980  73.9050  0.00  0.00     0.000 O
BRANCH 19 23
ATOM     20  C1  SGN C   2     107.166 106.138  71.7960  0.00  0.00     0.000 C
ATOM     21  C2  SGN C   2     105.882 106.255  70.9680  0.00  0.00     0.000 C
ATOM     22  C3  SGN C   2     104.711 106.616  71.8790  0.00  0.00     0.000 C
ATOM     23  C4  SGN C   2     104.584 105.576  72.9860  0.00  0.00     0.000 C
ATOM     24  C5  SGN C   2     105.918 105.436  73.7240  0.00  0.00     0.000 C
ATOM     25  O5  SGN C   2     106.967 105.140  72.7850  0.00  0.00     0.000 O
ATOM     26   O  SGN C   2     103.507 106.713  71.1280  0.00  0.00     0.000 O
ATOM     28  HD  SGN C   2     102.836 106.819  70.5910  0.00  0.00     0.000 HD
BRANCH 21 30
ATOM     28   N  SGN C   2     106.547 107.075  69.9470  0.00  0.00     0.000 N
ATOM     30  HD  SGN C   2     106.076 107.675  69.5380  0.00  0.00     0.000 HD
ATOM     30   S  SGN C   2     106.492 106.676  68.3980  0.00  0.00     0.000 S
ATOM     31   O  SGN C   2     105.108 106.527  68.0970  0.00  0.00     0.000 OA
ATOM     32   O  SGN C   2     107.279 107.600  67.6690  0.00  0.00     0.000 OA
ATOM     33   O  SGN C   2     107.230 105.295  68.3340  0.00  0.00     0.000 OA
ENDBRANCH 21 30
BRANCH 24 34
ATOM     34   C  SGN C   2     105.933 104.322  74.7450  0.00  0.00     0.000 C
ATOM     35   O  SGN C   2     105.877 104.895  76.0630  0.00  0.00     0.000 O
ATOM     36   S  SGN C   2     106.351 103.971  77.2760  0.00  0.00     0.000 S
ATOM     37   O  SGN C   2     107.679 103.525  76.9030  0.00  0.00     0.000 OA
ATOM     38   O  SGN C   2     106.336 104.821  78.4410  0.00  0.00     0.000 OA
ATOM     39   O  SGN C   2     105.368 102.915  77.3130  0.00  0.00     0.000 OA
ENDBRANCH 24 34
BRANCH 20 40
ATOM     40  O4  IDS C   3     107.627 107.243  72.3770  0.00  0.00     0.000 O
BRANCH 40 44
ATOM     41  C1  IDS C   3     109.011 110.250  73.5880  0.00  0.00     0.000 C
ATOM     42  C2  IDS C   3     108.658 110.071  72.1150  0.00  0.00     0.000 C
ATOM     43  C3  IDS C   3     109.291 108.794  71.5690  0.00  0.00     0.000 C
ATOM     44  C4  IDS C   3     109.009 107.598  72.4650  0.00  0.00     0.000 C
ATOM     45  C5  IDS C   3     109.366 107.941  73.9260  0.00  0.00     0.000 C
ATOM     46  O5  IDS C   3     108.634 109.098  74.3370  0.00  0.00     0.000 O
ATOM     47   O  IDS C   3     110.698 108.982  71.4380  0.00  0.00     0.000 O
ATOM     49  HD  IDS C   3     109.880 109.107  71.1830  0.00  0.00     0.000 HD
BRANCH 42 49
ATOM     49   O  IDS C   3     107.189 109.980  71.9500  0.00  0.00     0.000 O
ATOM     50   S  IDS C   3     106.463 110.840  70.8100  0.00  0.00     0.000 S
ATOM     51   O  IDS C   3     106.860 110.176  69.5880  0.00  0.00     0.000 OA
ATOM     52   O  IDS C   3     106.928 112.216  70.8730  0.00  0.00     0.000 OA
ATOM     53   O  IDS C   3     105.044 110.733  71.0740  0.00  0.00     0.000 OA
ENDBRANCH 42 49
BRANCH 45 54
ATOM     54   C  IDS C   3     109.076 106.809  74.8990  0.00  0.00     0.000 C
ATOM     55   O  IDS C   3     108.360 107.005  75.8460  0.00  0.00     0.000 OA
ATOM     56   O  IDS C   3     109.581 105.716  74.7260  0.00  0.00     0.000 OA
ENDBRANCH 45 54
BRANCH 41 57
ATOM     57  O4  SGN C   4     110.259 110.732  73.6370  0.00  0.00     0.000 O
BRANCH 57 61
ATOM     58  C1  SGN C   4     112.902 112.279  76.4910  0.00  0.00     0.000 C
ATOM     59  C2  SGN C   4     112.437 110.828  76.6950  0.00  0.00     0.000 C
ATOM     60  C3  SGN C   4     111.827 110.256  75.4070  0.00  0.00     0.000 C
ATOM     61  C4  SGN C   4     110.726 111.179  74.9140  0.00  0.00     0.000 C
ATOM     62  C5  SGN C   4     111.250 112.606  74.7630  0.00  0.00     0.000 C
ATOM     63  O5  SGN C   4     111.829 113.067  75.9990  0.00  0.00     0.000 O
BRANCH 59 66
ATOM     64   N  SGN C   4     113.608 110.152  77.2630  0.00  0.00     0.000 N
ATOM     66  HD  SGN C   4     112.858 110.321  76.8640  0.00  0.00     0.000 HD
ATOM     66   O  SGN C   4     114.746 108.769  78.9140  0.00  0.00     0.000 OA
ATOM     67   O  SGN C   4     113.055 110.401  79.6360  0.00  0.00     0.000 OA
ATOM     68   S  SGN C   4     113.457 109.289  78.6070  0.00  0.00     0.000 S
ATOM     69   O  SGN C   4     112.367 108.395  78.4440  0.00  0.00     0.000 OA
ENDBRANCH 59 66
BRANCH 62 70
ATOM     70   C  SGN C   4     110.146 113.568  74.4030  0.00  0.00     0.000 C
ATOM     71   S  SGN C   4     107.748 114.259  74.9900  0.00  0.00     0.000 S
ATOM     72   O  SGN C   4     108.155 115.650  74.9530  0.00  0.00     0.000 OA
ATOM     73   O  SGN C   4     107.302 113.757  73.7060  0.00  0.00     0.000 OA
ATOM     74   O  SGN C   4     106.852 113.947  76.0800  0.00  0.00     0.000 OA
ATOM     75   O  SGN C   4     109.072 113.458  75.3460  0.00  0.00     0.000 O
ENDBRANCH 62 70
ENDBRANCH 57 61
ENDBRANCH 41 57
ENDBRANCH 40 44
ENDBRANCH 20 40
ENDBRANCH 19 23
ENDBRANCH 1 19
TORSDOF 14
ENDMDL
MODEL 85
REMARK VINA RESULT:      -0.7     79.403     84.022
ROOT
ATOM      1  C1  IDS C   1      92.110  48.204  28.2490  0.00  0.00     0.000 C
ATOM      2  C2  IDS C   1      92.380  46.741  27.9440  0.00  0.00     0.000 C
ATOM      3  C3  IDS C   1      93.875  46.486  27.7980  0.00  0.00     0.000 C
ATOM      4  C4  IDS C   1      94.650  47.044  28.9920  0.00  0.00     0.000 C
ATOM      5  C5  IDS C   1      94.228  48.501  29.2680  0.00  0.00     0.000 C
ATOM      6  O5  IDS C   1      92.816  48.590  29.4270  0.00  0.00     0.000 O
ATOM      7   O  IDS C   1      94.341  47.073  26.5820  0.00  0.00     0.000 O
ATOM      9  HD  IDS C   1      95.066  47.090  27.0550  0.00  0.00     0.000 HD
ATOM      9   O  IDS C   1      94.367  46.239  30.1480  0.00  0.00     0.000 O
ATOM     11  HD  IDS C   1      95.092  46.256  30.6220  0.00  0.00     0.000 HD
ENDROOT
BRANCH 2 11
ATOM     11   O  IDS C   1      91.885  45.889  29.0490  0.00  0.00     0.000 O
ATOM     12   S  IDS C   1      90.622  44.934  28.8360  0.00  0.00     0.000 S
ATOM     13   O  IDS C   1      90.956  43.795  29.6630  0.00  0.00     0.000 OA
ATOM     14   O  IDS C   1      90.506  44.599  27.4370  0.00  0.00     0.000 OA
ATOM     15   O  IDS C   1      89.503  45.695  29.3320  0.00  0.00     0.000 OA
ENDBRANCH 2 11
BRANCH 5 16
ATOM     16   C  IDS C   1      94.872  49.086  30.5120  0.00  0.00     0.000 C
ATOM     17   O  IDS C   1      94.602  50.225  30.8300  0.00  0.00     0.000 OA
ATOM     18   O  IDS C   1      95.647  48.443  31.1650  0.00  0.00     0.000 OA
ENDBRANCH 5 16
BRANCH 1 19
ATOM     19  O4  SGN C   2      92.118  49.088  27.2470  0.00  0.00     0.000 O
BRANCH 19 23
ATOM     20  C1  SGN C   2      90.531  52.680  25.8320  0.00  0.00     0.000 C
ATOM     21  C2  SGN C   2      91.530  52.782  26.9920  0.00  0.00     0.000 C
ATOM     22  C3  SGN C   2      92.329  51.486  27.0990  0.00  0.00     0.000 C
ATOM     23  C4  SGN C   2      91.376  50.308  27.2690  0.00  0.00     0.000 C
ATOM     24  C5  SGN C   2      90.348  50.305  26.1340  0.00  0.00     0.000 C
ATOM     25  O5  SGN C   2      89.677  51.576  26.0790  0.00  0.00     0.000 O
ATOM     26   O  SGN C   2      93.250  51.558  28.1820  0.00  0.00     0.000 O
ATOM     28  HD  SGN C   2      93.827  51.708  28.8100  0.00  0.00     0.000 HD
BRANCH 21 30
ATOM     28   N  SGN C   2      92.063  54.092  26.5940  0.00  0.00     0.000 N
ATOM     30  HD  SGN C   2      92.872  54.290  26.8320  0.00  0.00     0.000 HD
ATOM     30   S  SGN C   2      91.984  55.352  27.5760  0.00  0.00     0.000 S
ATOM     31   O  SGN C   2      92.580  54.918  28.7950  0.00  0.00     0.000 OA
ATOM     32   O  SGN C   2      92.503  56.483  26.8990  0.00  0.00     0.000 OA
ATOM     33   O  SGN C   2      90.448  55.594  27.7620  0.00  0.00     0.000 OA
ENDBRANCH 21 30
BRANCH 24 34
ATOM     34   C  SGN C   2      89.270  49.259  26.2960  0.00  0.00     0.000 C
ATOM     35   O  SGN C   2      89.552  48.156  25.4170  0.00  0.00     0.000 O
ATOM     36   S  SGN C   2      88.340  47.178  25.0690  0.00  0.00     0.000 S
ATOM     37   O  SGN C   2      87.294  48.050  24.5710  0.00  0.00     0.000 OA
ATOM     38   O  SGN C   2      88.849  46.266  24.0730  0.00  0.00     0.000 OA
ATOM     39   O  SGN C   2      88.027  46.548  26.3280  0.00  0.00     0.000 OA
ENDBRANCH 24 34
BRANCH 20 40
ATOM     40  O4  IDS C   3      91.027  52.583  24.6010  0.00  0.00     0.000 O
BRANCH 40 44
ATOM     41  C1  IDS C   3      92.331  52.674  21.3270  0.00  0.00     0.000 C
ATOM     42  C2  IDS C   3      92.624  53.783  22.3330  0.00  0.00     0.000 C
ATOM     43  C3  IDS C   3      91.325  54.308  22.9380  0.00  0.00     0.000 C
ATOM     44  C4  IDS C   3      90.440  53.178  23.4410  0.00  0.00     0.000 C
ATOM     45  C5  IDS C   3      90.272  52.112  22.3370  0.00  0.00     0.000 C
ATOM     46  O5  IDS C   3      91.559  51.640  21.9320  0.00  0.00     0.000 O
ATOM     47   O  IDS C   3      90.625  55.076  21.9620  0.00  0.00     0.000 O
ATOM     49  HD  IDS C   3      91.262  54.964  22.5380  0.00  0.00     0.000 HD
BRANCH 42 49
ATOM     49   O  IDS C   3      93.480  53.265  23.4260  0.00  0.00     0.000 O
ATOM     50   S  IDS C   3      94.749  54.114  23.9100  0.00  0.00     0.000 S
ATOM     51   O  IDS C   3      94.155  55.231  24.6110  0.00  0.00     0.000 OA
ATOM     52   O  IDS C   3      95.523  54.530  22.7520  0.00  0.00     0.000 OA
ATOM     53   O  IDS C   3      95.504  53.240  24.7820  0.00  0.00     0.000 OA
ENDBRANCH 42 49
BRANCH 45 54
ATOM     54   C  IDS C   3      89.430  50.923  22.7720  0.00  0.00     0.000 C
ATOM     55   O  IDS C   3      89.893  49.813  22.7190  0.00  0.00     0.000 OA
ATOM     56   O  IDS C   3      88.289  51.095  23.1540  0.00  0.00     0.000 OA
ENDBRANCH 45 54
BRANCH 41 57
ATOM     57  O4  SGN C   4      91.931  53.268  20.1960  0.00  0.00     0.000 O
BRANCH 57 61
ATOM     58  C1  SGN C   4      91.160  52.215  16.2180  0.00  0.00     0.000 C
ATOM     59  C2  SGN C   4      90.209  51.643  17.2810  0.00  0.00     0.000 C
ATOM     60  C3  SGN C   4      90.333  52.408  18.6060  0.00  0.00     0.000 C
ATOM     61  C4  SGN C   4      91.787  52.429  19.0460  0.00  0.00     0.000 C
ATOM     62  C5  SGN C   4      92.676  52.980  17.9320  0.00  0.00     0.000 C
ATOM     63  O5  SGN C   4      92.490  52.231  16.7160  0.00  0.00     0.000 O
BRANCH 59 66
ATOM     64   N  SGN C   4      88.902  51.620  16.6160  0.00  0.00     0.000 N
ATOM     66  HD  SGN C   4      89.532  51.634  17.2100  0.00  0.00     0.000 HD
ATOM     66   O  SGN C   4      86.834  50.551  15.8970  0.00  0.00     0.000 OA
ATOM     67   O  SGN C   4      88.956  49.315  15.7870  0.00  0.00     0.000 OA
ATOM     68   S  SGN C   4      88.030  50.272  16.6160  0.00  0.00     0.000 S
ATOM     69   O  SGN C   4      87.947  49.793  17.9480  0.00  0.00     0.000 OA
ENDBRANCH 59 66
BRANCH 62 70
ATOM     70   C  SGN C   4      94.137  52.887  18.2920  0.00  0.00     0.000 C
ATOM     71   S  SGN C   4      95.919  51.326  19.2740  0.00  0.00     0.000 S
ATOM     72   O  SGN C   4      96.822  51.711  18.2080  0.00  0.00     0.000 OA
ATOM     73   O  SGN C   4      96.009  52.182  20.4400  0.00  0.00     0.000 OA
ATOM     74   O  SGN C   4      95.956  49.915  19.5830  0.00  0.00     0.000 OA
ATOM     75   O  SGN C   4      94.466  51.545  18.6720  0.00  0.00     0.000 O
ENDBRANCH 62 70
ENDBRANCH 57 61
ENDBRANCH 41 57
ENDBRANCH 40 44
ENDBRANCH 20 40
ENDBRANCH 19 23
ENDBRANCH 1 19
TORSDOF 14
ENDMDL
MODEL 86
REMARK VINA RESULT:      -0.7     41.130     47.326
ROOT
ATOM      1  C1  IDS C   1      45.254  51.155  34.2810  0.00  0.00     0.000 C
ATOM      2  C2  IDS C   1      44.473  52.265  34.9630  0.00  0.00     0.000 C
ATOM      3  C3  IDS C   1      45.134  52.663  36.2770  0.00  0.00     0.000 C
ATOM      4  C4  IDS C   1      46.621  52.956  36.0800  0.00  0.00     0.000 C
ATOM      5  C5  IDS C   1      47.292  51.809  35.2980  0.00  0.00     0.000 C
ATOM      6  O5  IDS C   1      46.603  51.571  34.0750  0.00  0.00     0.000 O
ATOM      7   O  IDS C   1      44.952  51.620  37.2360  0.00  0.00     0.000 O
ATOM      9  HD  IDS C   1      45.683  51.980  37.5280  0.00  0.00     0.000 HD
ATOM      9   O  IDS C   1      46.762  54.181  35.3440  0.00  0.00     0.000 O
ATOM     11  HD  IDS C   1      47.494  54.541  35.6360  0.00  0.00     0.000 HD
ENDROOT
BRANCH 2 11
ATOM     11   O  IDS C   1      44.432  53.466  34.0980  0.00  0.00     0.000 O
ATOM     12   S  IDS C   1      43.036  54.070  33.6110  0.00  0.00     0.000 S
ATOM     13   O  IDS C   1      43.309  55.490  33.5830  0.00  0.00     0.000 OA
ATOM     14   O  IDS C   1      42.004  53.714  34.5560  0.00  0.00     0.000 OA
ATOM     15   O  IDS C   1      42.829  53.500  32.3030  0.00  0.00     0.000 OA
ENDBRANCH 2 11
BRANCH 5 16
ATOM     16   C  IDS C   1      48.747  52.082  34.9640  0.00  0.00     0.000 C
ATOM     17   O  IDS C   1      49.368  52.866  35.6500  0.00  0.00     0.000 OA
ATOM     18   O  IDS C   1      49.275  51.546  34.0280  0.00  0.00     0.000 OA
ENDBRANCH 5 16
BRANCH 1 19
ATOM     19  O4  SGN C   2      45.088  49.896  34.6960  0.00  0.00     0.000 O
BRANCH 19 23
ATOM     20  C1  SGN C   2      44.731  45.915  33.4930  0.00  0.00     0.000 C
ATOM     21  C2  SGN C   2      46.139  46.520  33.4460  0.00  0.00     0.000 C
ATOM     22  C3  SGN C   2      46.185  47.784  34.3010  0.00  0.00     0.000 C
ATOM     23  C4  SGN C   2      45.124  48.768  33.8200  0.00  0.00     0.000 C
ATOM     24  C5  SGN C   2      43.753  48.086  33.8040  0.00  0.00     0.000 C
ATOM     25  O5  SGN C   2      43.815  46.885  33.0130  0.00  0.00     0.000 O
ATOM     26   O  SGN C   2      47.481  48.369  34.2560  0.00  0.00     0.000 O
ATOM     28  HD  SGN C   2      48.310  48.620  34.2310  0.00  0.00     0.000 HD
BRANCH 21 30
ATOM     28   N  SGN C   2      46.604  45.128  33.5090  0.00  0.00     0.000 N
ATOM     30  HD  SGN C   2      47.210  44.929  34.0950  0.00  0.00     0.000 HD
ATOM     30   S  SGN C   2      47.908  44.653  32.7140  0.00  0.00     0.000 S
ATOM     31   O  SGN C   2      48.942  45.545  33.1190  0.00  0.00     0.000 OA
ATOM     32   O  SGN C   2      48.065  43.258  32.9000  0.00  0.00     0.000 OA
ATOM     33   O  SGN C   2      47.538  44.875  31.2080  0.00  0.00     0.000 OA
ENDBRANCH 21 30
BRANCH 24 34
ATOM     34   C  SGN C   2      42.660  48.937  33.2010  0.00  0.00     0.000 C
ATOM     35   O  SGN C   2      41.770  49.364  34.2470  0.00  0.00     0.000 O
ATOM     36   S  SGN C   2      40.317  49.857  33.8060  0.00  0.00     0.000 S
ATOM     37   O  SGN C   2      39.783  48.769  33.0120  0.00  0.00     0.000 OA
ATOM     38   O  SGN C   2      39.592  50.081  35.0340  0.00  0.00     0.000 OA
ATOM     39   O  SGN C   2      40.571  51.061  33.0540  0.00  0.00     0.000 OA
ENDBRANCH 24 34
BRANCH 20 40
ATOM     40  O4  IDS C   3      44.301  45.447  34.6620  0.00  0.00     0.000 O
BRANCH 40 44
ATOM     41  C1  IDS C   3      43.413  43.844  37.6740  0.00  0.00     0.000 C
ATOM     42  C2  IDS C   3      44.691  43.481  36.9240  0.00  0.00     0.000 C
ATOM     43  C3  IDS C   3      44.380  43.170  35.4620  0.00  0.00     0.000 C
ATOM     44  C4  IDS C   3      43.526  44.256  34.8250  0.00  0.00     0.000 C
ATOM     45  C5  IDS C   3      42.300  44.550  35.7150  0.00  0.00     0.000 C
ATOM     46  O5  IDS C   3      42.739  44.919  37.0240  0.00  0.00     0.000 O
ATOM     47   O  IDS C   3      43.710  41.915  35.3770  0.00  0.00     0.000 O
ATOM     49  HD  IDS C   3      44.417  42.401  35.4920  0.00  0.00     0.000 HD
BRANCH 42 49
ATOM     49   O  IDS C   3      45.649  44.610  36.9740  0.00  0.00     0.000 O
ATOM     50   S  IDS C   3      47.186  44.332  37.3330  0.00  0.00     0.000 S
ATOM     51   O  IDS C   3      47.690  43.673  36.1480  0.00  0.00     0.000 OA
ATOM     52   O  IDS C   3      47.261  43.489  38.5150  0.00  0.00     0.000 OA
ATOM     53   O  IDS C   3      47.785  45.631  37.5530  0.00  0.00     0.000 OA
ENDBRANCH 42 49
BRANCH 45 54
ATOM     54   C  IDS C   3      41.411  45.657  35.1690  0.00  0.00     0.000 C
ATOM     55   O  IDS C   3      41.137  46.600  35.8650  0.00  0.00     0.000 OA
ATOM     56   O  IDS C   3      40.968  45.577  34.0400  0.00  0.00     0.000 OA
ENDBRANCH 45 54
BRANCH 41 57
ATOM     57  O4  SGN C   4      42.783  42.696  37.9510  0.00  0.00     0.000 O
BRANCH 57 61
ATOM     58  C1  SGN C   4      39.565  41.386  40.2870  0.00  0.00     0.000 C
ATOM     59  C2  SGN C   4      39.255  42.441  39.2140  0.00  0.00     0.000 C
ATOM     60  C3  SGN C   4      40.386  42.530  38.1800  0.00  0.00     0.000 C
ATOM     61  C4  SGN C   4      41.708  42.764  38.8930  0.00  0.00     0.000 C
ATOM     62  C5  SGN C   4      41.936  41.698  39.9630  0.00  0.00     0.000 C
ATOM     63  O5  SGN C   4      40.827  41.655  40.8810  0.00  0.00     0.000 O
BRANCH 59 66
ATOM     64   N  SGN C   4      37.913  42.087  38.7390  0.00  0.00     0.000 N
ATOM     66  HD  SGN C   4      38.716  42.405  38.8000  0.00  0.00     0.000 HD
ATOM     66   O  SGN C   4      35.588  42.570  38.1980  0.00  0.00     0.000 OA
ATOM     67   O  SGN C   4      36.610  43.554  40.2050  0.00  0.00     0.000 OA
ATOM     68   S  SGN C   4      36.765  43.206  38.6840  0.00  0.00     0.000 S
ATOM     69   O  SGN C   4      37.277  44.339  38.0020  0.00  0.00     0.000 OA
ENDBRANCH 59 66
BRANCH 62 70
ATOM     70   C  SGN C   4      43.174  41.984  40.7750  0.00  0.00     0.000 C
ATOM     71   S  SGN C   4      44.302  43.748  42.2550  0.00  0.00     0.000 S
ATOM     72   O  SGN C   4      44.645  42.709  43.2060  0.00  0.00     0.000 OA
ATOM     73   O  SGN C   4      45.309  43.945  41.2320  0.00  0.00     0.000 OA
ATOM     74   O  SGN C   4      43.853  44.974  42.8750  0.00  0.00     0.000 OA
ATOM     75   O  SGN C   4      43.010  43.203  41.5100  0.00  0.00     0.000 O
ENDBRANCH 62 70
ENDBRANCH 57 61
ENDBRANCH 41 57
ENDBRANCH 40 44
ENDBRANCH 20 40
ENDBRANCH 19 23
ENDBRANCH 1 19
TORSDOF 14
ENDMDL
MODEL 87
REMARK VINA RESULT:      -0.7     96.008    100.208
ROOT
ATOM      1  C1  IDS C   1      91.544  45.959  99.7760  0.00  0.00     0.000 C
ATOM      2  C2  IDS C   1      90.637  46.274 100.9520  0.00  0.00     0.000 C
ATOM      3  C3  IDS C   1      89.693  45.111 101.2340  0.00  0.00     0.000 C
ATOM      4  C4  IDS C   1      90.461  43.794 101.3530  0.00  0.00     0.000 C
ATOM      5  C5  IDS C   1      91.417  43.624 100.1560  0.00  0.00     0.000 C
ATOM      6  O5  IDS C   1      92.270  44.758 100.0340  0.00  0.00     0.000 O
ATOM      7   O  IDS C   1      88.716  45.028 100.1940  0.00  0.00     0.000 O
ATOM      9  HD  IDS C   1      88.741  44.203 100.4570  0.00  0.00     0.000 HD
ATOM      9   O  IDS C   1      91.220  43.805 102.5720  0.00  0.00     0.000 O
ATOM     11  HD  IDS C   1      91.244  42.980 102.8340  0.00  0.00     0.000 HD
ENDROOT
BRANCH 2 11
ATOM     11   O  IDS C   1      91.443  46.504 102.1720  0.00  0.00     0.000 O
ATOM     12   S  IDS C   1      91.359  47.896 102.9520  0.00  0.00     0.000 S
ATOM     13   O  IDS C   1      91.523  47.486 104.3290  0.00  0.00     0.000 OA
ATOM     14   O  IDS C   1      90.079  48.512 102.6960  0.00  0.00     0.000 OA
ATOM     15   O  IDS C   1      92.470  48.664 102.4460  0.00  0.00     0.000 OA
ENDBRANCH 2 11
BRANCH 5 16
ATOM     16   C  IDS C   1      92.299  42.392 100.2630  0.00  0.00     0.000 C
ATOM     17   O  IDS C   1      93.281  42.437 100.9730  0.00  0.00     0.000 OA
ATOM     18   O  IDS C   1      92.041  41.396  99.6450  0.00  0.00     0.000 OA
ENDBRANCH 5 16
BRANCH 1 19
ATOM     19  O4  SGN C   2      91.070  46.100  98.5350  0.00  0.00     0.000 O
BRANCH 19 23
ATOM     20  C1  SGN C   2      91.956  47.357  94.6540  0.00  0.00     0.000 C
ATOM     21  C2  SGN C   2      92.564  46.020  95.0960  0.00  0.00     0.000 C
ATOM     22  C3  SGN C   2      91.821  45.497  96.3230  0.00  0.00     0.000 C
ATOM     23  C4  SGN C   2      91.867  46.541  97.4340  0.00  0.00     0.000 C
ATOM     24  C5  SGN C   2      91.331  47.877  96.9140  0.00  0.00     0.000 C
ATOM     25  O5  SGN C   2      92.057  48.269  95.7350  0.00  0.00     0.000 O
ATOM     26   O  SGN C   2      92.382  44.264  96.7580  0.00  0.00     0.000 O
ATOM     28  HD  SGN C   2      92.736  43.489  96.9130  0.00  0.00     0.000 HD
BRANCH 21 30
ATOM     28   N  SGN C   2      92.543  45.390  93.7690  0.00  0.00     0.000 N
ATOM     30  HD  SGN C   2      92.524  44.525  93.7310  0.00  0.00     0.000 HD
ATOM     30   S  SGN C   2      93.893  44.907  93.0600  0.00  0.00     0.000 S
ATOM     31   O  SGN C   2      94.533  44.058  94.0070  0.00  0.00     0.000 OA
ATOM     32   O  SGN C   2      93.572  44.414  91.7720  0.00  0.00     0.000 OA
ATOM     33   O  SGN C   2      94.709  46.229  92.8540  0.00  0.00     0.000 OA
ENDBRANCH 21 30
BRANCH 24 34
ATOM     34   C  SGN C   2      91.474  49.013  97.8990  0.00  0.00     0.000 C
ATOM     35   O  SGN C   2      90.177  49.333  98.4340  0.00  0.00     0.000 O
ATOM     36   S  SGN C   2      90.007  50.769  99.1110  0.00  0.00     0.000 S
ATOM     37   O  SGN C   2      90.455  51.708  98.1020  0.00  0.00     0.000 OA
ATOM     38   O  SGN C   2      88.602  50.888  99.4220  0.00  0.00     0.000 OA
ATOM     39   O  SGN C   2      90.857  50.709 100.2740  0.00  0.00     0.000 OA
ENDBRANCH 24 34
BRANCH 20 40
ATOM     40  O4  IDS C   3      90.702  47.345  94.2070  0.00  0.00     0.000 O
BRANCH 40 44
ATOM     41  C1  IDS C   3      87.486  47.299  92.7660  0.00  0.00     0.000 C
ATOM     42  C2  IDS C   3      88.597  46.381  92.2660  0.00  0.00     0.000 C
ATOM     43  C3  IDS C   3      89.854  47.190  91.9530  0.00  0.00     0.000 C
ATOM     44  C4  IDS C   3      90.228  48.115  93.1000  0.00  0.00     0.000 C
ATOM     45  C5  IDS C   3      88.999  48.942  93.5300  0.00  0.00     0.000 C
ATOM     46  O5  IDS C   3      87.931  48.061  93.8850  0.00  0.00     0.000 O
ATOM     47   O  IDS C   3      89.643  47.949  90.7650  0.00  0.00     0.000 O
ATOM     49  HD  IDS C   3      89.797  47.207  91.1840  0.00  0.00     0.000 HD
BRANCH 42 49
ATOM     49   O  IDS C   3      88.928  45.372  93.2990  0.00  0.00     0.000 O
ATOM     50   S  IDS C   3      89.127  43.839  92.8770  0.00  0.00     0.000 S
ATOM     51   O  IDS C   3      90.389  43.849  92.1720  0.00  0.00     0.000 OA
ATOM     52   O  IDS C   3      88.019  43.423  92.0330  0.00  0.00     0.000 OA
ATOM     53   O  IDS C   3      89.179  43.090  94.1150  0.00  0.00     0.000 OA
ENDBRANCH 42 49
BRANCH 45 54
ATOM     54   C  IDS C   3      89.277  49.869  94.7030  0.00  0.00     0.000 C
ATOM     55   O  IDS C   3      88.535  49.870  95.6510  0.00  0.00     0.000 OA
ATOM     56   O  IDS C   3      90.235  50.616  94.6720  0.00  0.00     0.000 OA
ENDBRANCH 45 54
BRANCH 41 57
ATOM     57  O4  SGN C   4      86.954  47.891  91.6900  0.00  0.00     0.000 O
BRANCH 57 61
ATOM     58  C1  SGN C   4      83.631  50.258  90.7490  0.00  0.00     0.000 C
ATOM     59  C2  SGN C   4      84.683  50.883  91.6800  0.00  0.00     0.000 C
ATOM     60  C3  SGN C   4      86.007  50.110  91.6160  0.00  0.00     0.000 C
ATOM     61  C4  SGN C   4      85.751  48.639  91.8970  0.00  0.00     0.000 C
ATOM     62  C5  SGN C   4      84.676  48.093  90.9580  0.00  0.00     0.000 C
ATOM     63  O5  SGN C   4      83.473  48.880  91.0520  0.00  0.00     0.000 O
BRANCH 59 66
ATOM     64   N  SGN C   4      84.693  52.301  91.3080  0.00  0.00     0.000 N
ATOM     66  HD  SGN C   4      84.911  51.519  91.6100  0.00  0.00     0.000 HD
ATOM     66   O  SGN C   4      84.576  54.687  91.7870  0.00  0.00     0.000 OA
ATOM     67   O  SGN C   4      83.092  53.124  92.9690  0.00  0.00     0.000 OA
ATOM     68   S  SGN C   4      84.538  53.424  92.4430  0.00  0.00     0.000 S
ATOM     69   O  SGN C   4      85.471  53.149  93.4760  0.00  0.00     0.000 OA
ENDBRANCH 59 66
BRANCH 62 70
ATOM     70   C  SGN C   4      84.307  46.673  91.3030  0.00  0.00     0.000 C
ATOM     71   S  SGN C   4      83.754  45.108  93.2580  0.00  0.00     0.000 S
ATOM     72   O  SGN C   4      82.637  44.580  92.4990  0.00  0.00     0.000 OA
ATOM     73   O  SGN C   4      84.994  44.397  93.0240  0.00  0.00     0.000 OA
ATOM     74   O  SGN C   4      83.456  45.316  94.6560  0.00  0.00     0.000 OA
ATOM     75   O  SGN C   4      83.968  46.577  92.6920  0.00  0.00     0.000 O
ENDBRANCH 62 70
ENDBRANCH 57 61
ENDBRANCH 41 57
ENDBRANCH 40 44
ENDBRANCH 20 40
ENDBRANCH 19 23
ENDBRANCH 1 19
TORSDOF 14
ENDMDL
MODEL 88
REMARK VINA RESULT:      -0.7    105.037    109.630
ROOT
ATOM      1  C1  IDS C   1      84.640  65.114  94.0080  0.00  0.00     0.000 C
ATOM      2  C2  IDS C   1      84.868  63.771  93.3380  0.00  0.00     0.000 C
ATOM      3  C3  IDS C   1      84.133  62.663  94.0830  0.00  0.00     0.000 C
ATOM      4  C4  IDS C   1      82.665  63.027  94.3050  0.00  0.00     0.000 C
ATOM      5  C5  IDS C   1      82.550  64.444  94.9010  0.00  0.00     0.000 C
ATOM      6  O5  IDS C   1      83.242  65.385  94.0860  0.00  0.00     0.000 O
ATOM      7   O  IDS C   1      84.782  62.419  95.3320  0.00  0.00     0.000 O
ATOM      9  HD  IDS C   1      83.974  62.169  95.5200  0.00  0.00     0.000 HD
ATOM      9   O  IDS C   1      81.978  62.983  93.0450  0.00  0.00     0.000 O
ATOM     11  HD  IDS C   1      81.170  62.733  93.2320  0.00  0.00     0.000 HD
ENDROOT
BRANCH 2 11
ATOM     11   O  IDS C   1      84.351  63.798  91.9510  0.00  0.00     0.000 O
ATOM     12   S  IDS C   1      85.353  63.718  90.7080  0.00  0.00     0.000 S
ATOM     13   O  IDS C   1      84.582  62.967  89.7420  0.00  0.00     0.000 OA
ATOM     14   O  IDS C   1      86.562  63.042  91.1110  0.00  0.00     0.000 OA
ATOM     15   O  IDS C   1      85.569  65.091  90.3270  0.00  0.00     0.000 OA
ENDBRANCH 2 11
BRANCH 5 16
ATOM     16   C  IDS C   1      81.116  64.922  95.0420  0.00  0.00     0.000 C
ATOM     17   O  IDS C   1      80.911  66.036  95.4750  0.00  0.00     0.000 OA
ATOM     18   O  IDS C   1      80.198  64.207  94.7480  0.00  0.00     0.000 OA
ENDBRANCH 5 16
BRANCH 1 19
ATOM     19  O4  SGN C   2      85.357  65.428  95.0910  0.00  0.00     0.000 O
BRANCH 19 23
ATOM     20  C1  SGN C   2      87.102  68.532  97.2690  0.00  0.00     0.000 C
ATOM     21  C2  SGN C   2      85.571  68.459  97.2880  0.00  0.00     0.000 C
ATOM     22  C3  SGN C   2      85.115  67.074  96.8380  0.00  0.00     0.000 C
ATOM     23  C4  SGN C   2      85.684  66.770  95.4570  0.00  0.00     0.000 C
ATOM     24  C5  SGN C   2      87.205  66.942  95.4720  0.00  0.00     0.000 C
ATOM     25  O5  SGN C   2      87.543  68.257  95.9500  0.00  0.00     0.000 O
ATOM     26   O  SGN C   2      83.694  66.993  96.8350  0.00  0.00     0.000 O
ATOM     28  HD  SGN C   2      82.833  67.006  96.9260  0.00  0.00     0.000 HD
BRANCH 21 30
ATOM     28   N  SGN C   2      85.630  69.187  98.5630  0.00  0.00     0.000 N
ATOM     30  HD  SGN C   2      85.128  68.910  99.2110  0.00  0.00     0.000 HD
ATOM     30   S  SGN C   2      84.590  70.354  98.9010  0.00  0.00     0.000 S
ATOM     31   O  SGN C   2      83.302  69.777  98.7130  0.00  0.00     0.000 OA
ATOM     32   O  SGN C   2      84.937  70.917 100.1520  0.00  0.00     0.000 OA
ATOM     33   O  SGN C   2      84.876  71.445  97.8130  0.00  0.00     0.000 OA
ENDBRANCH 21 30
BRANCH 24 34
ATOM     34   C  SGN C   2      87.845  66.805  94.1110  0.00  0.00     0.000 C
ATOM     35   O  SGN C   2      88.457  65.508  94.0100  0.00  0.00     0.000 O
ATOM     36   S  SGN C   2      89.572  65.317  92.8830  0.00  0.00     0.000 S
ATOM     37   O  SGN C   2      90.526  66.381  93.1240  0.00  0.00     0.000 OA
ATOM     38   O  SGN C   2      90.117  63.998  93.0930  0.00  0.00     0.000 OA
ATOM     39   O  SGN C   2      88.843  65.455  91.6450  0.00  0.00     0.000 OA
ENDBRANCH 24 34
BRANCH 20 40
ATOM     40  O4  IDS C   3      87.765  67.756  98.1230  0.00  0.00     0.000 O
BRANCH 40 44
ATOM     41  C1  IDS C   3      89.452  65.980 100.6590  0.00  0.00     0.000 C
ATOM     42  C2  IDS C   3      88.332  66.965 100.9840  0.00  0.00     0.000 C
ATOM     43  C3  IDS C   3      88.601  68.313 100.3190  0.00  0.00     0.000 C
ATOM     44  C4  IDS C   3      88.934  68.156  98.8430  0.00  0.00     0.000 C
ATOM     45  C5  IDS C   3      90.043  67.098  98.6650  0.00  0.00     0.000 C
ATOM     46  O5  IDS C   3      89.621  65.863  99.2480  0.00  0.00     0.000 O
ATOM     47   O  IDS C   3      89.673  68.967 100.9920  0.00  0.00     0.000 O
ATOM     49  HD  IDS C   3      88.850  68.703 100.9350  0.00  0.00     0.000 HD
BRANCH 42 49
ATOM     49   O  IDS C   3      87.036  66.443 100.4910  0.00  0.00     0.000 O
ATOM     50   S  IDS C   3      85.744  66.506 101.4360  0.00  0.00     0.000 S
ATOM     51   O  IDS C   3      85.416  67.914 101.4590  0.00  0.00     0.000 OA
ATOM     52   O  IDS C   3      86.083  65.991 102.7520  0.00  0.00     0.000 OA
ATOM     53   O  IDS C   3      84.733  65.703 100.7820  0.00  0.00     0.000 OA
ENDBRANCH 42 49
BRANCH 45 54
ATOM     54   C  IDS C   3      90.410  66.850  97.2100  0.00  0.00     0.000 C
ATOM     55   O  IDS C   3      90.321  65.740  96.7530  0.00  0.00     0.000 OA
ATOM     56   O  IDS C   3      90.808  67.768  96.5200  0.00  0.00     0.000 OA
ENDBRANCH 45 54
BRANCH 41 57
ATOM     57  O4  SGN C   4      90.481  66.280 101.4600  0.00  0.00     0.000 O
BRANCH 57 61
ATOM     58  C1  SGN C   4      94.056  64.506 102.7260  0.00  0.00     0.000 C
ATOM     59  C2  SGN C   4      93.830  64.599 101.2090  0.00  0.00     0.000 C
ATOM     60  C3  SGN C   4      92.723  65.608 100.8730  0.00  0.00     0.000 C
ATOM     61  C4  SGN C   4      91.465  65.258 101.6500  0.00  0.00     0.000 C
ATOM     62  C5  SGN C   4      91.769  65.154 103.1440  0.00  0.00     0.000 C
ATOM     63  O5  SGN C   4      92.831  64.211 103.3810  0.00  0.00     0.000 O
BRANCH 59 66
ATOM     64   N  SGN C   4      95.173  64.831 100.6670  0.00  0.00     0.000 N
ATOM     66  HD  SGN C   4      94.315  64.801 100.7760  0.00  0.00     0.000 HD
ATOM     66   O  SGN C   4      97.032  64.371  99.1610  0.00  0.00     0.000 OA
ATOM     67   O  SGN C   4      95.759  62.511 100.1420  0.00  0.00     0.000 OA
ATOM     68   S  SGN C   4      95.715  63.922  99.4610  0.00  0.00     0.000 S
ATOM     69   O  SGN C   4      94.734  63.909  98.4360  0.00  0.00     0.000 OA
ENDBRANCH 59 66
BRANCH 62 70
ATOM     70   C  SGN C   4      90.569  64.677 103.9220  0.00  0.00     0.000 C
ATOM     71   S  SGN C   4      89.061  62.646 104.3390  0.00  0.00     0.000 S
ATOM     72   O  SGN C   4      89.132  62.904 105.7630  0.00  0.00     0.000 OA
ATOM     73   O  SGN C   4      87.969  63.337 103.6840  0.00  0.00     0.000 OA
ATOM     74   O  SGN C   4      89.151  61.244 104.0000  0.00  0.00     0.000 OA
ATOM     75   O  SGN C   4      90.399  63.266 103.7480  0.00  0.00     0.000 O
ENDBRANCH 62 70
ENDBRANCH 57 61
ENDBRANCH 41 57
ENDBRANCH 40 44
ENDBRANCH 20 40
ENDBRANCH 19 23
ENDBRANCH 1 19
TORSDOF 14
ENDMDL
MODEL 89
REMARK VINA RESULT:      -0.7     87.166     90.511
ROOT
ATOM      1  C1  IDS C   1     101.798   3.817  83.8640  0.00  0.00     0.000 C
ATOM      2  C2  IDS C   1     103.173   3.830  83.2200  0.00  0.00     0.000 C
ATOM      3  C3  IDS C   1     103.945   5.081  83.6180  0.00  0.00     0.000 C
ATOM      4  C4  IDS C   1     103.949   5.269  85.1350  0.00  0.00     0.000 C
ATOM      5  C5  IDS C   1     102.516   5.144  85.6910  0.00  0.00     0.000 C
ATOM      6  O5  IDS C   1     101.928   3.913  85.2820  0.00  0.00     0.000 O
ATOM      7   O  IDS C   1     103.370   6.220  82.9750  0.00  0.00     0.000 O
ATOM      9  HD  IDS C   1     103.715   6.591  83.6770  0.00  0.00     0.000 HD
ATOM      9   O  IDS C   1     104.780   4.259  85.7280  0.00  0.00     0.000 O
ATOM     11  HD  IDS C   1     105.125   4.630  86.4310  0.00  0.00     0.000 HD
ENDROOT
BRANCH 2 11
ATOM     11   O  IDS C   1     103.957   2.657  83.6670  0.00  0.00     0.000 O
ATOM     12   S  IDS C   1     104.465   1.568  82.6130  0.00  0.00     0.000 S
ATOM     13   O  IDS C   1     105.736   1.167  83.1750  0.00  0.00     0.000 OA
ATOM     14   O  IDS C   1     104.591   2.183  81.3140  0.00  0.00     0.000 OA
ATOM     15   O  IDS C   1     103.466   0.529  82.6550  0.00  0.00     0.000 OA
ENDBRANCH 2 11
BRANCH 5 16
ATOM     16   C  IDS C   1     102.454   5.204  87.2070  0.00  0.00     0.000 C
ATOM     17   O  IDS C   1     103.477   5.406  87.8260  0.00  0.00     0.000 OA
ATOM     18   O  IDS C   1     101.416   5.040  87.7870  0.00  0.00     0.000 OA
ENDBRANCH 5 16
BRANCH 1 19
ATOM     19  O4  SGN C   2     100.818   4.542  83.3170  0.00  0.00     0.000 O
BRANCH 19 23
ATOM     20  C1  SGN C   2      96.716   4.760  82.5800  0.00  0.00     0.000 C
ATOM     21  C2  SGN C   2      97.163   4.976  84.0300  0.00  0.00     0.000 C
ATOM     22  C3  SGN C   2      98.654   5.299  84.0670  0.00  0.00     0.000 C
ATOM     23  C4  SGN C   2      99.438   4.181  83.3890  0.00  0.00     0.000 C
ATOM     24  C5  SGN C   2      98.894   3.948  81.9760  0.00  0.00     0.000 C
ATOM     25  O5  SGN C   2      97.479   3.696  82.0340  0.00  0.00     0.000 O
ATOM     26   O  SGN C   2      99.090   5.486  85.4090  0.00  0.00     0.000 O
ATOM     28  HD  SGN C   2      99.257   5.652  86.2420  0.00  0.00     0.000 HD
BRANCH 21 30
ATOM     28   N  SGN C   2      95.918   5.731  84.2200  0.00  0.00     0.000 N
ATOM     30  HD  SGN C   2      95.960   6.482  84.6500  0.00  0.00     0.000 HD
ATOM     30   S  SGN C   2      95.048   5.575  85.5540  0.00  0.00     0.000 S
ATOM     31   O  SGN C   2      95.953   5.823  86.6250  0.00  0.00     0.000 OA
ATOM     32   O  SGN C   2      93.877   6.359  85.4210  0.00  0.00     0.000 OA
ATOM     33   O  SGN C   2      94.598   4.074  85.5410  0.00  0.00     0.000 OA
ENDBRANCH 21 30
BRANCH 24 34
ATOM     34   C  SGN C   2      99.511   2.760  81.2770  0.00  0.00     0.000 C
ATOM     35   O  SGN C   2     100.518   3.227  80.3620  0.00  0.00     0.000 O
ATOM     36   S  SGN C   2     100.959   2.228  79.1970  0.00  0.00     0.000 S
ATOM     37   O  SGN C   2      99.720   1.857  78.5410  0.00  0.00     0.000 OA
ATOM     38   O  SGN C   2     101.851   2.984  78.3530  0.00  0.00     0.000 OA
ATOM     39   O  SGN C   2     101.600   1.140  79.8950  0.00  0.00     0.000 OA
ENDBRANCH 24 34
BRANCH 20 40
ATOM     40  O4  IDS C   3      96.771   5.805  81.7570  0.00  0.00     0.000 O
BRANCH 40 44
ATOM     41  C1  IDS C   3      96.580   8.675  79.7190  0.00  0.00     0.000 C
ATOM     42  C2  IDS C   3      95.893   8.616  81.0800  0.00  0.00     0.000 C
ATOM     43  C3  IDS C   3      95.022   7.366  81.1820  0.00  0.00     0.000 C
ATOM     44  C4  IDS C   3      95.782   6.115  80.7710  0.00  0.00     0.000 C
ATOM     45  C5  IDS C   3      96.463   6.338  79.4040  0.00  0.00     0.000 C
ATOM     46  O5  IDS C   3      97.319   7.480  79.4790  0.00  0.00     0.000 O
ATOM     47   O  IDS C   3      93.869   7.525  80.3590  0.00  0.00     0.000 O
ATOM     49  HD  IDS C   3      94.332   7.692  81.0710  0.00  0.00     0.000 HD
BRANCH 42 49
ATOM     49   O  IDS C   3      96.906   8.577  82.1610  0.00  0.00     0.000 O
ATOM     50   S  IDS C   3      96.708   9.483  83.4670  0.00  0.00     0.000 S
ATOM     51   O  IDS C   3      95.622   8.831  84.1640  0.00  0.00     0.000 OA
ATOM     52   O  IDS C   3      96.379  10.841  83.0670  0.00  0.00     0.000 OA
ATOM     53   O  IDS C   3      97.961   9.418  84.1890  0.00  0.00     0.000 OA
ENDBRANCH 42 49
BRANCH 45 54
ATOM     54   C  IDS C   3      97.280   5.144  78.9370  0.00  0.00     0.000 C
ATOM     55   O  IDS C   3      98.454   5.279  78.7070  0.00  0.00     0.000 OA
ATOM     56   O  IDS C   3      96.743   4.065  78.7800  0.00  0.00     0.000 OA
ENDBRANCH 45 54
BRANCH 41 57
ATOM     57  O4  SGN C   4      95.672   9.118  78.8410  0.00  0.00     0.000 O
BRANCH 57 61
ATOM     58  C1  SGN C   4      95.630  10.862  75.0350  0.00  0.00     0.000 C
ATOM     59  C2  SGN C   4      95.863   9.344  75.0970  0.00  0.00     0.000 C
ATOM     60  C3  SGN C   4      95.453   8.776  76.4630  0.00  0.00     0.000 C
ATOM     61  C4  SGN C   4      96.165   9.541  77.5650  0.00  0.00     0.000 C
ATOM     62  C5  SGN C   4      95.914  11.042  77.4250  0.00  0.00     0.000 C
ATOM     63  O5  SGN C   4      96.298  11.499  76.1140  0.00  0.00     0.000 O
BRANCH 59 66
ATOM     64   N  SGN C   4      95.185   8.827  73.9040  0.00  0.00     0.000 N
ATOM     66  HD  SGN C   4      95.553   8.901  74.6840  0.00  0.00     0.000 HD
ATOM     66   O  SGN C   4      95.069   7.533  71.8440  0.00  0.00     0.000 OA
ATOM     67   O  SGN C   4      97.098   8.816  72.3740  0.00  0.00     0.000 OA
ATOM     68   S  SGN C   4      95.971   7.858  72.8960  0.00  0.00     0.000 S
ATOM     69   O  SGN C   4      96.566   6.815  73.6510  0.00  0.00     0.000 OA
ENDBRANCH 59 66
BRANCH 62 70
ATOM     70   C  SGN C   4      96.718  11.834  78.4260  0.00  0.00     0.000 C
ATOM     71   S  SGN C   4      99.060  12.106  79.4300  0.00  0.00     0.000 S
ATOM     72   O  SGN C   4      98.938  13.543  79.2910  0.00  0.00     0.000 OA
ATOM     73   O  SGN C   4      98.562  11.607  80.6960  0.00  0.00     0.000 OA
ATOM     74   O  SGN C   4     100.368  11.600  79.0790  0.00  0.00     0.000 OA
ATOM     75   O  SGN C   4      98.108  11.507  78.3090  0.00  0.00     0.000 O
ENDBRANCH 62 70
ENDBRANCH 57 61
ENDBRANCH 41 57
ENDBRANCH 40 44
ENDBRANCH 20 40
ENDBRANCH 19 23
ENDBRANCH 1 19
TORSDOF 14
ENDMDL
MODEL 90
REMARK VINA RESULT:      -0.7    105.164    109.645
ROOT
ATOM      1  C1  IDS C   1      86.663  65.030  91.9390  0.00  0.00     0.000 C
ATOM      2  C2  IDS C   1      86.890  63.686  91.2680  0.00  0.00     0.000 C
ATOM      3  C3  IDS C   1      86.155  62.579  92.0140  0.00  0.00     0.000 C
ATOM      4  C4  IDS C   1      84.687  62.943  92.2360  0.00  0.00     0.000 C
ATOM      5  C5  IDS C   1      84.573  64.360  92.8310  0.00  0.00     0.000 C
ATOM      6  O5  IDS C   1      85.264  65.301  92.0160  0.00  0.00     0.000 O
ATOM      7   O  IDS C   1      86.804  62.334  93.2630  0.00  0.00     0.000 O
ATOM      9  HD  IDS C   1      85.997  62.085  93.4510  0.00  0.00     0.000 HD
ATOM      9   O  IDS C   1      84.000  62.899  90.9750  0.00  0.00     0.000 O
ATOM     11  HD  IDS C   1      83.193  62.649  91.1630  0.00  0.00     0.000 HD
ENDROOT
BRANCH 2 11
ATOM     11   O  IDS C   1      86.374  63.714  89.8820  0.00  0.00     0.000 O
ATOM     12   S  IDS C   1      87.375  63.635  88.6390  0.00  0.00     0.000 S
ATOM     13   O  IDS C   1      86.605  62.884  87.6720  0.00  0.00     0.000 OA
ATOM     14   O  IDS C   1      88.586  62.961  89.0420  0.00  0.00     0.000 OA
ATOM     15   O  IDS C   1      87.590  65.009  88.2590  0.00  0.00     0.000 OA
ENDBRANCH 2 11
BRANCH 5 16
ATOM     16   C  IDS C   1      83.139  64.837  92.9730  0.00  0.00     0.000 C
ATOM     17   O  IDS C   1      82.933  65.949  93.4120  0.00  0.00     0.000 OA
ATOM     18   O  IDS C   1      82.221  64.125  92.6720  0.00  0.00     0.000 OA
ENDBRANCH 5 16
BRANCH 1 19
ATOM     19  O4  SGN C   2      87.380  65.344  93.0220  0.00  0.00     0.000 O
BRANCH 19 23
ATOM     20  C1  SGN C   2      89.126  68.450  95.1960  0.00  0.00     0.000 C
ATOM     21  C2  SGN C   2      87.596  68.354  95.2480  0.00  0.00     0.000 C
ATOM     22  C3  SGN C   2      87.152  66.966  94.7920  0.00  0.00     0.000 C
ATOM     23  C4  SGN C   2      87.694  66.686  93.3960  0.00  0.00     0.000 C
ATOM     24  C5  SGN C   2      89.213  66.882  93.3790  0.00  0.00     0.000 C
ATOM     25  O5  SGN C   2      89.541  68.196  93.8640  0.00  0.00     0.000 O
ATOM     26   O  SGN C   2      85.733  66.864  94.8190  0.00  0.00     0.000 O
ATOM     28  HD  SGN C   2      84.874  66.862  94.9290  0.00  0.00     0.000 HD
BRANCH 21 30
ATOM     28   N  SGN C   2      87.671  69.065  96.5310  0.00  0.00     0.000 N
ATOM     30  HD  SGN C   2      87.183  68.774  97.1850  0.00  0.00     0.000 HD
ATOM     30   S  SGN C   2      86.623  70.216  96.9030  0.00  0.00     0.000 S
ATOM     31   O  SGN C   2      85.339  69.625  96.7310  0.00  0.00     0.000 OA
ATOM     32   O  SGN C   2      86.987  70.766  98.1560  0.00  0.00     0.000 OA
ATOM     33   O  SGN C   2      86.877  71.324  95.8250  0.00  0.00     0.000 OA
ENDBRANCH 21 30
BRANCH 24 34
ATOM     34   C  SGN C   2      89.824  66.770  92.0020  0.00  0.00     0.000 C
ATOM     35   O  SGN C   2      90.407  65.464  91.8540  0.00  0.00     0.000 O
ATOM     36   S  SGN C   2      91.496  65.282  90.7010  0.00  0.00     0.000 S
ATOM     37   O  SGN C   2      92.477  66.320  90.9530  0.00  0.00     0.000 OA
ATOM     38   O  SGN C   2      92.018  63.947  90.8650  0.00  0.00     0.000 OA
ATOM     39   O  SGN C   2      90.748  65.468  89.4820  0.00  0.00     0.000 OA
ENDBRANCH 24 34
BRANCH 20 40
ATOM     40  O4  IDS C   3      89.820  67.676  96.0260  0.00  0.00     0.000 O
BRANCH 40 44
ATOM     41  C1  IDS C   3      91.589  65.897  98.5020  0.00  0.00     0.000 C
ATOM     42  C2  IDS C   3      90.463  66.861  98.8640  0.00  0.00     0.000 C
ATOM     43  C3  IDS C   3      90.696  68.220  98.2080  0.00  0.00     0.000 C
ATOM     44  C4  IDS C   3      90.998  68.085  96.7240  0.00  0.00     0.000 C
ATOM     45  C5  IDS C   3      92.118  67.046  96.5090  0.00  0.00     0.000 C
ATOM     46  O5  IDS C   3      91.729  65.798  97.0870  0.00  0.00     0.000 O
ATOM     47   O  IDS C   3      91.773  68.883  98.8650  0.00  0.00     0.000 O
ATOM     49  HD  IDS C   3      90.953  68.607  98.8230  0.00  0.00     0.000 HD
BRANCH 42 49
ATOM     49   O  IDS C   3      89.164  66.325  98.3940  0.00  0.00     0.000 O
ATOM     50   S  IDS C   3      87.894  66.354  99.3700  0.00  0.00     0.000 S
ATOM     51   O  IDS C   3      87.544  67.757  99.4210  0.00  0.00     0.000 OA
ATOM     52   O  IDS C   3      88.272  65.827 100.6710  0.00  0.00     0.000 OA
ATOM     53   O  IDS C   3      86.880  65.544  98.7290  0.00  0.00     0.000 OA
ENDBRANCH 42 49
BRANCH 45 54
ATOM     54   C  IDS C   3      92.456  66.820  95.0430  0.00  0.00     0.000 C
ATOM     55   O  IDS C   3      92.379  65.712  94.5770  0.00  0.00     0.000 OA
ATOM     56   O  IDS C   3      92.819  67.753  94.3540  0.00  0.00     0.000 OA
ENDBRANCH 45 54
BRANCH 41 57
ATOM     57  O4  SGN C   4      92.632  66.204  99.2830  0.00  0.00     0.000 O
BRANCH 57 61
ATOM     58  C1  SGN C   4      96.264  64.481 100.4530  0.00  0.00     0.000 C
ATOM     59  C2  SGN C   4      96.038  64.659  98.9430  0.00  0.00     0.000 C
ATOM     60  C3  SGN C   4      94.898  65.648  98.6660  0.00  0.00     0.000 C
ATOM     61  C4  SGN C   4      93.651  65.207  99.4150  0.00  0.00     0.000 C
ATOM     62  C5  SGN C   4      93.955  65.022 100.9010  0.00  0.00     0.000 C
ATOM     63  O5  SGN C   4      95.049  64.103 101.0840  0.00  0.00     0.000 O
BRANCH 59 66
ATOM     64   N  SGN C   4      97.376  64.966  98.4260  0.00  0.00     0.000 N
ATOM     66  HD  SGN C   4      96.518  64.905  98.5290  0.00  0.00     0.000 HD
ATOM     66   O  SGN C   4      99.250  64.669  96.8990  0.00  0.00     0.000 OA
ATOM     67   O  SGN C   4      98.026  62.708  97.7350  0.00  0.00     0.000 OA
ATOM     68   S  SGN C   4      97.945  64.164  97.1590  0.00  0.00     0.000 S
ATOM     69   O  SGN C   4      96.967  64.200  96.1310  0.00  0.00     0.000 OA
ENDBRANCH 59 66
BRANCH 62 70
ATOM     70   C  SGN C   4      92.771  64.457 101.6430  0.00  0.00     0.000 C
ATOM     71   S  SGN C   4      91.384  62.329 101.9880  0.00  0.00     0.000 S
ATOM     72   O  SGN C   4      91.408  62.562 103.4190  0.00  0.00     0.000 OA
ATOM     73   O  SGN C   4      90.265  62.964 101.3220  0.00  0.00     0.000 OA
ATOM     74   O  SGN C   4      91.567  60.942 101.6260  0.00  0.00     0.000 OA
ATOM     75   O  SGN C   4      92.693  63.041 101.4390  0.00  0.00     0.000 O
ENDBRANCH 62 70
ENDBRANCH 57 61
ENDBRANCH 41 57
ENDBRANCH 40 44
ENDBRANCH 20 40
ENDBRANCH 19 23
ENDBRANCH 1 19
TORSDOF 14
ENDMDL
MODEL 91
REMARK VINA RESULT:      -0.7     92.667     98.109
ROOT
ATOM      1  C1  IDS C   1      50.018  69.558  96.1230  0.00  0.00     0.000 C
ATOM      2  C2  IDS C   1      51.340  69.289  95.4270  0.00  0.00     0.000 C
ATOM      3  C3  IDS C   1      52.061  68.112  96.0720  0.00  0.00     0.000 C
ATOM      4  C4  IDS C   1      51.141  66.897  96.1880  0.00  0.00     0.000 C
ATOM      5  C5  IDS C   1      49.795  67.305  96.8220  0.00  0.00     0.000 C
ATOM      6  O5  IDS C   1      49.210  68.382  96.0980  0.00  0.00     0.000 O
ATOM      7   O  IDS C   1      52.544  68.498  97.3600  0.00  0.00     0.000 O
ATOM      9  HD  IDS C   1      52.451  67.645  97.4740  0.00  0.00     0.000 HD
ATOM      9   O  IDS C   1      50.906  66.362  94.8760  0.00  0.00     0.000 O
ATOM     11  HD  IDS C   1      50.813  65.509  94.9900  0.00  0.00     0.000 HD
ENDROOT
BRANCH 2 11
ATOM     11   O  IDS C   1      51.109  68.949  94.0050  0.00  0.00     0.000 O
ATOM     12   S  IDS C   1      51.665  69.894  92.8420  0.00  0.00     0.000 S
ATOM     13   O  IDS C   1      52.000  68.941  91.8070  0.00  0.00     0.000 OA
ATOM     14   O  IDS C   1      52.810  70.626  93.3260  0.00  0.00     0.000 OA
ATOM     15   O  IDS C   1      50.551  70.743  92.5010  0.00  0.00     0.000 OA
ENDBRANCH 2 11
BRANCH 5 16
ATOM     16   C  IDS C   1      48.785  66.174  96.8650  0.00  0.00     0.000 C
ATOM     17   O  IDS C   1      47.603  66.446  96.9000  0.00  0.00     0.000 OA
ATOM     18   O  IDS C   1      49.143  65.029  96.8790  0.00  0.00     0.000 OA
ENDBRANCH 5 16
BRANCH 1 19
ATOM     19  O4  SGN C   2      50.016  70.243  97.2700  0.00  0.00     0.000 O
BRANCH 19 23
ATOM     20  C1  SGN C   2      47.941  73.018  99.5980  0.00  0.00     0.000 C
ATOM     21  C2  SGN C   2      47.374  71.594  99.5630  0.00  0.00     0.000 C
ATOM     22  C3  SGN C   2      48.441  70.627  99.0570  0.00  0.00     0.000 C
ATOM     23  C4  SGN C   2      48.935  71.078  97.6870  0.00  0.00     0.000 C
ATOM     24  C5  SGN C   2      49.407  72.533  97.7580  0.00  0.00     0.000 C
ATOM     25  O5  SGN C   2      48.356  73.362  98.2860  0.00  0.00     0.000 O
ATOM     26   O  SGN C   2      47.927  69.301  99.0030  0.00  0.00     0.000 O
ATOM     28  HD  SGN C   2      47.561  68.519  99.0650  0.00  0.00     0.000 HD
BRANCH 21 30
ATOM     28   N  SGN C   2      46.648  72.078 100.7440  0.00  0.00     0.000 N
ATOM     30  HD  SGN C   2      46.786  71.675 101.4980  0.00  0.00     0.000 HD
ATOM     30   S  SGN C   2      45.265  71.413 101.1980  0.00  0.00     0.000 S
ATOM     31   O  SGN C   2      45.537  70.020 101.3130  0.00  0.00     0.000 OA
ATOM     32   O  SGN C   2      44.766  72.131 102.3110  0.00  0.00     0.000 OA
ATOM     33   O  SGN C   2      44.297  71.696  99.9990  0.00  0.00     0.000 OA
ENDBRANCH 21 30
BRANCH 24 34
ATOM     34   C  SGN C   2      49.777  73.118  96.4150  0.00  0.00     0.000 C
ATOM     35   O  SGN C   2      51.210  73.208  96.3240  0.00  0.00     0.000 O
ATOM     36   S  SGN C   2      51.805  74.207  95.2290  0.00  0.00     0.000 S
ATOM     37   O  SGN C   2      51.169  75.480  95.5070  0.00  0.00     0.000 OA
ATOM     38   O  SGN C   2      53.232  74.218  95.4480  0.00  0.00     0.000 OA
ATOM     39   O  SGN C   2      51.413  73.618  93.9720  0.00  0.00     0.000 OA
ENDBRANCH 24 34
BRANCH 20 40
ATOM     40  O4  IDS C   3      48.933  73.265 100.4500  0.00  0.00     0.000 O
BRANCH 40 44
ATOM     41  C1  IDS C   3      51.211  73.943 103.0530  0.00  0.00     0.000 C
ATOM     42  C2  IDS C   3      49.815  73.398 103.3370  0.00  0.00     0.000 C
ATOM     43  C3  IDS C   3      48.759  74.256 102.6440  0.00  0.00     0.000 C
ATOM     44  C4  IDS C   3      49.092  74.485 101.1780  0.00  0.00     0.000 C
ATOM     45  C5  IDS C   3      50.546  74.986 101.0420  0.00  0.00     0.000 C
ATOM     46  O5  IDS C   3      51.433  74.044 101.6480  0.00  0.00     0.000 O
ATOM     47   O  IDS C   3      48.649  75.507 103.3180  0.00  0.00     0.000 O
ATOM     49  HD  IDS C   3      48.509  74.655 103.2540  0.00  0.00     0.000 HD
BRANCH 42 49
ATOM     49   O  IDS C   3      49.699  72.008 102.8370  0.00  0.00     0.000 O
ATOM     50   S  IDS C   3      49.021  70.887 103.7590  0.00  0.00     0.000 S
ATOM     51   O  IDS C   3      47.620  71.241 103.7400  0.00  0.00     0.000 OA
ATOM     52   O  IDS C   3      49.595  70.948 105.0940  0.00  0.00     0.000 OA
ATOM     53   O  IDS C   3      49.291  69.621 103.1100  0.00  0.00     0.000 OA
ENDBRANCH 42 49
BRANCH 45 54
ATOM     54   C  IDS C   3      50.975  75.203  99.6000  0.00  0.00     0.000 C
ATOM     55   O  IDS C   3      51.952  74.640  99.1770  0.00  0.00     0.000 OA
ATOM     56   O  IDS C   3      50.342  75.955  98.8850  0.00  0.00     0.000 OA
ENDBRANCH 45 54
BRANCH 41 57
ATOM     57  O4  SGN C   4      51.394  74.993 103.8620  0.00  0.00     0.000 O
BRANCH 57 61
ATOM     58  C1  SGN C   4      54.521  77.503 105.0660  0.00  0.00     0.000 C
ATOM     59  C2  SGN C   4      54.162  77.514 103.5710  0.00  0.00     0.000 C
ATOM     60  C3  SGN C   4      52.778  76.896 103.3290  0.00  0.00     0.000 C
ATOM     61  C4  SGN C   4      52.725  75.511 103.9520  0.00  0.00     0.000 C
ATOM     62  C5  SGN C   4      53.121  75.571 105.4260  0.00  0.00     0.000 C
ATOM     63  O5  SGN C   4      54.415  76.184 105.5790  0.00  0.00     0.000 O
BRANCH 59 66
ATOM     64   N  SGN C   4      54.377  78.906 103.1610  0.00  0.00     0.000 N
ATOM     66  HD  SGN C   4      54.104  78.085 103.2050  0.00  0.00     0.000 HD
ATOM     66   O  SGN C   4      55.316  80.644 101.7360  0.00  0.00     0.000 OA
ATOM     67   O  SGN C   4      56.680  78.695 102.3540  0.00  0.00     0.000 OA
ATOM     68   S  SGN C   4      55.285  79.228 101.8780  0.00  0.00     0.000 S
ATOM     69   O  SGN C   4      54.830  78.430 100.7960  0.00  0.00     0.000 OA
ENDBRANCH 59 66
BRANCH 62 70
ATOM     70   C  SGN C   4      53.206  74.194 106.0340  0.00  0.00     0.000 C
ATOM     71   S  SGN C   4      54.223  71.862 105.7110  0.00  0.00     0.000 S
ATOM     72   O  SGN C   4      54.600  71.849 107.1110  0.00  0.00     0.000 OA
ATOM     73   O  SGN C   4      52.897  71.331 105.4690  0.00  0.00     0.000 OA
ATOM     74   O  SGN C   4      55.236  71.322 104.8350  0.00  0.00     0.000 OA
ATOM     75   O  SGN C   4      54.164  73.401 105.3220  0.00  0.00     0.000 O
ENDBRANCH 62 70
ENDBRANCH 57 61
ENDBRANCH 41 57
ENDBRANCH 40 44
ENDBRANCH 20 40
ENDBRANCH 19 23
ENDBRANCH 1 19
TORSDOF 14
ENDMDL
MODEL 92
REMARK VINA RESULT:      -0.7     73.511     77.229
ROOT
ATOM      1  C1  IDS C   1      42.350  78.072  44.2140  0.00  0.00     0.000 C
ATOM      2  C2  IDS C   1      43.210  78.152  45.4620  0.00  0.00     0.000 C
ATOM      3  C3  IDS C   1      43.330  79.592  45.9450  0.00  0.00     0.000 C
ATOM      4  C4  IDS C   1      41.955  80.247  46.0730  0.00  0.00     0.000 C
ATOM      5  C5  IDS C   1      41.135  80.023  44.7870  0.00  0.00     0.000 C
ATOM      6  O5  IDS C   1      41.066  78.636  44.4750  0.00  0.00     0.000 O
ATOM      7   O  IDS C   1      44.153  80.331  45.0400  0.00  0.00     0.000 O
ATOM      9  HD  IDS C   1      43.659  80.965  45.3620  0.00  0.00     0.000 HD
ATOM      9   O  IDS C   1      41.262  79.663  47.1870  0.00  0.00     0.000 O
ATOM     11  HD  IDS C   1      40.768  80.298  47.5090  0.00  0.00     0.000 HD
ENDROOT
BRANCH 2 11
ATOM     11   O  IDS C   1      42.601  77.361  46.5540  0.00  0.00     0.000 O
ATOM     12   S  IDS C   1      43.158  75.907  46.9150  0.00  0.00     0.000 S
ATOM     13   O  IDS C   1      42.975  75.856  48.3490  0.00  0.00     0.000 OA
ATOM     14   O  IDS C   1      44.542  75.813  46.5190  0.00  0.00     0.000 OA
ATOM     15   O  IDS C   1      42.299  75.000  46.1940  0.00  0.00     0.000 OA
ENDBRANCH 2 11
BRANCH 5 16
ATOM     16   C  IDS C   1      39.713  80.547  44.8830  0.00  0.00     0.000 C
ATOM     17   O  IDS C   1      39.425  81.292  45.7960  0.00  0.00     0.000 OA
ATOM     18   O  IDS C   1      38.882  80.220  44.0820  0.00  0.00     0.000 OA
ENDBRANCH 5 16
BRANCH 1 19
ATOM     19  O4  SGN C   2      42.892  78.377  43.0310  0.00  0.00     0.000 O
BRANCH 19 23
ATOM     20  C1  SGN C   2      42.791  77.651  38.9220  0.00  0.00     0.000 C
ATOM     21  C2  SGN C   2      41.488  78.143  39.5620  0.00  0.00     0.000 C
ATOM     22  C3  SGN C   2      41.785  78.767  40.9230  0.00  0.00     0.000 C
ATOM     23  C4  SGN C   2      42.507  77.754  41.8050  0.00  0.00     0.000 C
ATOM     24  C5  SGN C   2      43.752  77.230  41.0820  0.00  0.00     0.000 C
ATOM     25  O5  SGN C   2      43.383  76.703  39.7950  0.00  0.00     0.000 O
ATOM     26   O  SGN C   2      40.584  79.215  41.5400  0.00  0.00     0.000 O
ATOM     28  HD  SGN C   2      39.821  79.520  41.8120  0.00  0.00     0.000 HD
BRANCH 21 30
ATOM     28   N  SGN C   2      41.073  78.762  38.2960  0.00  0.00     0.000 N
ATOM     30  HD  SGN C   2      40.629  79.505  38.3340  0.00  0.00     0.000 HD
ATOM     30   S  SGN C   2      39.623  78.492  37.6770  0.00  0.00     0.000 S
ATOM     31   O  SGN C   2      38.704  78.813  38.7160  0.00  0.00     0.000 OA
ATOM     32   O  SGN C   2      39.538  79.154  36.4280  0.00  0.00     0.000 OA
ATOM     33   O  SGN C   2      39.617  76.954  37.3810  0.00  0.00     0.000 OA
ENDBRANCH 21 30
BRANCH 24 34
ATOM     34   C  SGN C   2      44.453  76.111  41.8160  0.00  0.00     0.000 C
ATOM     35   O  SGN C   2      45.691  76.609  42.3540  0.00  0.00     0.000 O
ATOM     36   S  SGN C   2      46.798  75.528  42.7460  0.00  0.00     0.000 S
ATOM     37   O  SGN C   2      46.977  74.732  41.5470  0.00  0.00     0.000 OA
ATOM     38   O  SGN C   2      47.970  76.286  43.1110  0.00  0.00     0.000 OA
ATOM     39   O  SGN C   2      46.207  74.805  43.8450  0.00  0.00     0.000 OA
ENDBRANCH 24 34
BRANCH 20 40
ATOM     40  O4  IDS C   3      43.697  78.567  38.5890  0.00  0.00     0.000 O
BRANCH 40 44
ATOM     41  C1  IDS C   3      45.900  81.043  37.3880  0.00  0.00     0.000 C
ATOM     42  C2  IDS C   3      44.428  81.023  36.9880  0.00  0.00     0.000 C
ATOM     43  C3  IDS C   3      44.040  79.645  36.4570  0.00  0.00     0.000 C
ATOM     44  C4  IDS C   3      44.484  78.534  37.3960  0.00  0.00     0.000 C
ATOM     45  C5  IDS C   3      45.976  78.711  37.7510  0.00  0.00     0.000 C
ATOM     46  O5  IDS C   3      46.179  80.004  38.3240  0.00  0.00     0.000 O
ATOM     47   O  IDS C   3      44.621  79.454  35.1690  0.00  0.00     0.000 O
ATOM     49  HD  IDS C   3      44.036  79.804  35.7030  0.00  0.00     0.000 HD
BRANCH 42 49
ATOM     49   O  IDS C   3      43.578  81.335  38.1600  0.00  0.00     0.000 O
ATOM     50   S  IDS C   3      42.396  82.408  38.0200  0.00  0.00     0.000 S
ATOM     51   O  IDS C   3      41.412  81.718  37.2170  0.00  0.00     0.000 OA
ATOM     52   O  IDS C   3      42.906  83.605  37.3720  0.00  0.00     0.000 OA
ATOM     53   O  IDS C   3      41.938  82.673  39.3680  0.00  0.00     0.000 OA
ENDBRANCH 42 49
BRANCH 45 54
ATOM     54   C  IDS C   3      46.492  77.660  38.7210  0.00  0.00     0.000 C
ATOM     55   O  IDS C   3      46.363  76.492  38.4600  0.00  0.00     0.000 OA
ATOM     56   O  IDS C   3      47.018  78.002  39.7630  0.00  0.00     0.000 OA
ENDBRANCH 45 54
BRANCH 41 57
ATOM     57  O4  SGN C   4      46.611  81.170  36.2610  0.00  0.00     0.000 O
BRANCH 57 61
ATOM     58  C1  SGN C   4      50.577  81.895  35.1330  0.00  0.00     0.000 C
ATOM     59  C2  SGN C   4      50.288  80.550  35.8190  0.00  0.00     0.000 C
ATOM     60  C3  SGN C   4      48.787  80.232  35.8060  0.00  0.00     0.000 C
ATOM     61  C4  SGN C   4      48.016  81.395  36.4090  0.00  0.00     0.000 C
ATOM     62  C5  SGN C   4      48.374  82.700  35.6990  0.00  0.00     0.000 C
ATOM     63  O5  SGN C   4      49.796  82.920  35.7290  0.00  0.00     0.000 O
BRANCH 59 66
ATOM     64   N  SGN C   4      51.199  79.608  35.1600  0.00  0.00     0.000 N
ATOM     66  HD  SGN C   4      50.539  79.957  35.5980  0.00  0.00     0.000 HD
ATOM     66   O  SGN C   4      52.916  77.881  35.1370  0.00  0.00     0.000 OA
ATOM     67   O  SGN C   4      53.062  79.735  36.7440  0.00  0.00     0.000 OA
ATOM     68   S  SGN C   4      52.152  78.668  36.0440  0.00  0.00     0.000 S
ATOM     69   O  SGN C   4      51.357  78.024  37.0270  0.00  0.00     0.000 OA
ENDBRANCH 59 66
BRANCH 62 70
ATOM     70   C  SGN C   4      47.725  83.888  36.3640  0.00  0.00     0.000 C
ATOM     71   S  SGN C   4      47.267  84.975  38.6400  0.00  0.00     0.000 S
ATOM     72   O  SGN C   4      47.664  86.257  38.0920  0.00  0.00     0.000 OA
ATOM     73   O  SGN C   4      45.855  84.693  38.4780  0.00  0.00     0.000 OA
ATOM     74   O  SGN C   4      47.757  84.743  39.9800  0.00  0.00     0.000 OA
ATOM     75   O  SGN C   4      48.041  83.902  37.7620  0.00  0.00     0.000 O
ENDBRANCH 62 70
ENDBRANCH 57 61
ENDBRANCH 41 57
ENDBRANCH 40 44
ENDBRANCH 20 40
ENDBRANCH 19 23
ENDBRANCH 1 19
TORSDOF 14
ENDMDL
MODEL 93
REMARK VINA RESULT:      -0.7     78.948     82.454
ROOT
ATOM      1  C1  IDS C   1      91.725  48.944  61.2730  0.00  0.00     0.000 C
ATOM      2  C2  IDS C   1      92.371  48.499  59.9730  0.00  0.00     0.000 C
ATOM      3  C3  IDS C   1      91.986  49.431  58.8310  0.00  0.00     0.000 C
ATOM      4  C4  IDS C   1      92.237  50.893  59.2030  0.00  0.00     0.000 C
ATOM      5  C5  IDS C   1      91.619  51.207  60.5800  0.00  0.00     0.000 C
ATOM      6  O5  IDS C   1      92.095  50.291  61.5610  0.00  0.00     0.000 O
ATOM      7   O  IDS C   1      90.612  49.230  58.4950  0.00  0.00     0.000 O
ATOM      9  HD  IDS C   1      90.719  50.052  58.2460  0.00  0.00     0.000 HD
ATOM      9   O  IDS C   1      93.653  51.125  59.2530  0.00  0.00     0.000 O
ATOM     11  HD  IDS C   1      93.760  51.948  59.0040  0.00  0.00     0.000 HD
ENDROOT
BRANCH 2 11
ATOM     11   O  IDS C   1      93.846  48.529  60.1000  0.00  0.00     0.000 O
ATOM     12   S  IDS C   1      94.711  47.209  59.8470  0.00  0.00     0.000 S
ATOM     13   O  IDS C   1      95.916  47.742  59.2520  0.00  0.00     0.000 OA
ATOM     14   O  IDS C   1      93.989  46.326  58.9630  0.00  0.00     0.000 OA
ATOM     15   O  IDS C   1      94.917  46.653  61.1610  0.00  0.00     0.000 OA
ENDBRANCH 2 11
BRANCH 5 16
ATOM     16   C  IDS C   1      91.926  52.610  61.0700  0.00  0.00     0.000 C
ATOM     17   O  IDS C   1      92.240  53.456  60.2590  0.00  0.00     0.000 OA
ATOM     18   O  IDS C   1      91.878  52.879  62.2390  0.00  0.00     0.000 OA
ENDBRANCH 5 16
BRANCH 1 19
ATOM     19  O4  SGN C   2      90.447  48.627  61.5040  0.00  0.00     0.000 O
BRANCH 19 23
ATOM     20  C1  SGN C   2      87.695  47.365  64.3770  0.00  0.00     0.000 C
ATOM     21  C2  SGN C   2      88.175  48.817  64.4810  0.00  0.00     0.000 C
ATOM     22  C3  SGN C   2      88.805  49.247  63.1590  0.00  0.00     0.000 C
ATOM     23  C4  SGN C   2      89.940  48.295  62.7970  0.00  0.00     0.000 C
ATOM     24  C5  SGN C   2      89.426  46.853  62.7940  0.00  0.00     0.000 C
ATOM     25  O5  SGN C   2      88.811  46.550  64.0590  0.00  0.00     0.000 O
ATOM     26   O  SGN C   2      89.272  50.589  63.2420  0.00  0.00     0.000 O
ATOM     28  HD  SGN C   2      89.464  51.426  63.3530  0.00  0.00     0.000 HD
BRANCH 21 30
ATOM     28   N  SGN C   2      86.915  49.132  65.1660  0.00  0.00     0.000 N
ATOM     30  HD  SGN C   2      86.511  49.869  64.9550  0.00  0.00     0.000 HD
ATOM     30   S  SGN C   2      86.889  50.061  66.4690  0.00  0.00     0.000 S
ATOM     31   O  SGN C   2      87.567  51.256  66.0930  0.00  0.00     0.000 OA
ATOM     32   O  SGN C   2      85.558  50.124  66.9490  0.00  0.00     0.000 OA
ATOM     33   O  SGN C   2      87.720  49.257  67.5260  0.00  0.00     0.000 OA
ENDBRANCH 21 30
BRANCH 24 34
ATOM     34   C  SGN C   2      90.513  45.823  62.5910  0.00  0.00     0.000 C
ATOM     35   O  SGN C   2      90.464  45.354  61.2320  0.00  0.00     0.000 O
ATOM     36   S  SGN C   2      91.177  43.960  60.9200  0.00  0.00     0.000 S
ATOM     37   O  SGN C   2      90.595  43.028  61.8660  0.00  0.00     0.000 OA
ATOM     38   O  SGN C   2      90.856  43.657  59.5460  0.00  0.00     0.000 OA
ATOM     39   O  SGN C   2      92.576  44.226  61.1450  0.00  0.00     0.000 OA
ENDBRANCH 24 34
BRANCH 20 40
ATOM     40  O4  IDS C   3      86.705  47.103  63.5260  0.00  0.00     0.000 O
BRANCH 40 44
ATOM     41  C1  IDS C   3      83.840  46.533  61.5540  0.00  0.00     0.000 C
ATOM     42  C2  IDS C   3      83.852  47.586  62.6570  0.00  0.00     0.000 C
ATOM     43  C3  IDS C   3      84.336  46.975  63.9700  0.00  0.00     0.000 C
ATOM     44  C4  IDS C   3      85.630  46.198  63.7860  0.00  0.00     0.000 C
ATOM     45  C5  IDS C   3      85.486  45.210  62.6090  0.00  0.00     0.000 C
ATOM     46  O5  IDS C   3      85.123  45.926  61.4270  0.00  0.00     0.000 O
ATOM     47   O  IDS C   3      83.325  46.118  64.4940  0.00  0.00     0.000 O
ATOM     49  HD  IDS C   3      83.656  46.900  64.3250  0.00  0.00     0.000 HD
BRANCH 42 49
ATOM     49   O  IDS C   3      84.759  48.699  62.2900  0.00  0.00     0.000 O
ATOM     50   S  IDS C   3      84.268  50.214  62.4660  0.00  0.00     0.000 S
ATOM     51   O  IDS C   3      84.268  50.400  63.9000  0.00  0.00     0.000 OA
ATOM     52   O  IDS C   3      82.945  50.364  61.8830  0.00  0.00     0.000 OA
ATOM     53   O  IDS C   3      85.254  51.032  61.7920  0.00  0.00     0.000 OA
ENDBRANCH 42 49
BRANCH 45 54
ATOM     54   C  IDS C   3      86.753  44.417  62.3310  0.00  0.00     0.000 C
ATOM     55   O  IDS C   3      87.256  43.767  63.2110  0.00  0.00     0.000 OA
ATOM     56   O  IDS C   3      87.262  44.455  61.2270  0.00  0.00     0.000 OA
ENDBRANCH 45 54
BRANCH 41 57
ATOM     57  O4  SGN C   4      82.737  45.794  61.7290  0.00  0.00     0.000 O
BRANCH 57 61
ATOM     58  C1  SGN C   4      80.476  43.002  59.5800  0.00  0.00     0.000 C
ATOM     59  C2  SGN C   4      81.952  42.652  59.8290  0.00  0.00     0.000 C
ATOM     60  C3  SGN C   4      82.547  43.520  60.9460  0.00  0.00     0.000 C
ATOM     61  C4  SGN C   4      82.321  44.988  60.6230  0.00  0.00     0.000 C
ATOM     62  C5  SGN C   4      80.841  45.257  60.3590  0.00  0.00     0.000 C
ATOM     63  O5  SGN C   4      80.345  44.392  59.3200  0.00  0.00     0.000 O
BRANCH 59 66
ATOM     64   N  SGN C   4      81.949  41.197  60.0130  0.00  0.00     0.000 N
ATOM     66  HD  SGN C   4      82.160  42.037  60.0300  0.00  0.00     0.000 HD
ATOM     66   O  SGN C   4      82.718  38.933  59.5470  0.00  0.00     0.000 OA
ATOM     67   O  SGN C   4      82.434  40.537  57.7050  0.00  0.00     0.000 OA
ATOM     68   S  SGN C   4      82.956  40.283  59.1620  0.00  0.00     0.000 S
ATOM     69   O  SGN C   4      84.262  40.822  59.2850  0.00  0.00     0.000 OA
ENDBRANCH 59 66
BRANCH 62 70
ATOM     70   C  SGN C   4      80.607  46.676  59.9060  0.00  0.00     0.000 C
ATOM     71   S  SGN C   4      81.091  48.337  58.0140  0.00  0.00     0.000 S
ATOM     72   O  SGN C   4      79.702  48.753  58.0440  0.00  0.00     0.000 OA
ATOM     73   O  SGN C   4      81.937  49.096  58.9120  0.00  0.00     0.000 OA
ATOM     74   O  SGN C   4      81.626  48.208  56.6780  0.00  0.00     0.000 OA
ATOM     75   O  SGN C   4      81.079  46.847  58.5640  0.00  0.00     0.000 O
ENDBRANCH 62 70
ENDBRANCH 57 61
ENDBRANCH 41 57
ENDBRANCH 40 44
ENDBRANCH 20 40
ENDBRANCH 19 23
ENDBRANCH 1 19
TORSDOF 14
ENDMDL
MODEL 94
REMARK VINA RESULT:      -0.7     98.371    102.824
ROOT
ATOM      1  C1  IDS C   1      29.958  95.297  75.5420  0.00  0.00     0.000 C
ATOM      2  C2  IDS C   1      28.453  95.495  75.5700  0.00  0.00     0.000 C
ATOM      3  C3  IDS C   1      27.901  95.642  74.1570  0.00  0.00     0.000 C
ATOM      4  C4  IDS C   1      28.379  94.503  73.2570  0.00  0.00     0.000 C
ATOM      5  C5  IDS C   1      29.906  94.331  73.3790  0.00  0.00     0.000 C
ATOM      6  O5  IDS C   1      30.281  94.161  74.7420  0.00  0.00     0.000 O
ATOM      7   O  IDS C   1      28.297  96.905  73.6200  0.00  0.00     0.000 O
ATOM      9  HD  IDS C   1      28.205  96.443  72.8930  0.00  0.00     0.000 HD
ATOM      9   O  IDS C   1      27.729  93.287  73.6580  0.00  0.00     0.000 O
ATOM     11  HD  IDS C   1      27.637  92.825  72.9310  0.00  0.00     0.000 HD
ENDROOT
BRANCH 2 11
ATOM     11   O  IDS C   1      27.795  94.324  76.1910  0.00  0.00     0.000 O
ATOM     12   S  IDS C   1      26.900  94.495  77.5030  0.00  0.00     0.000 S
ATOM     13   O  IDS C   1      25.868  93.501  77.3020  0.00  0.00     0.000 OA
ATOM     14   O  IDS C   1      26.383  95.841  77.5580  0.00  0.00     0.000 OA
ATOM     15   O  IDS C   1      27.791  94.184  78.5930  0.00  0.00     0.000 OA
ENDBRANCH 2 11
BRANCH 5 16
ATOM     16   C  IDS C   1      30.440  93.142  72.6000  0.00  0.00     0.000 C
ATOM     17   O  IDS C   1      29.801  92.727  71.6570  0.00  0.00     0.000 OA
ATOM     18   O  IDS C   1      31.467  92.610  72.9180  0.00  0.00     0.000 OA
ENDBRANCH 5 16
BRANCH 1 19
ATOM     19  O4  SGN C   2      30.750  96.362  75.3900  0.00  0.00     0.000 O
BRANCH 19 23
ATOM     20  C1  SGN C   2      34.314  98.176  76.5860  0.00  0.00     0.000 C
ATOM     21  C2  SGN C   2      34.439  96.995  75.6170  0.00  0.00     0.000 C
ATOM     22  C3  SGN C   2      33.093  96.732  74.9480  0.00  0.00     0.000 C
ATOM     23  C4  SGN C   2      32.030  96.487  76.0130  0.00  0.00     0.000 C
ATOM     24  C5  SGN C   2      32.007  97.655  77.0030  0.00  0.00     0.000 C
ATOM     25  O5  SGN C   2      33.323  97.857  77.5490  0.00  0.00     0.000 O
ATOM     26   O  SGN C   2      33.187  95.627  74.0560  0.00  0.00     0.000 O
ATOM     28  HD  SGN C   2      33.345  94.994  73.4870  0.00  0.00     0.000 HD
BRANCH 21 30
ATOM     28   N  SGN C   2      35.677  97.533  75.0370  0.00  0.00     0.000 N
ATOM     30  HD  SGN C   2      35.830  97.383  74.1980  0.00  0.00     0.000 HD
ATOM     30   S  SGN C   2      37.002  96.643  74.9380  0.00  0.00     0.000 S
ATOM     31   O  SGN C   2      36.608  95.454  74.2610  0.00  0.00     0.000 OA
ATOM     32   O  SGN C   2      38.043  97.445  74.4100  0.00  0.00     0.000 OA
ATOM     33   O  SGN C   2      37.369  96.340  76.4310  0.00  0.00     0.000 OA
ENDBRANCH 21 30
BRANCH 24 34
ATOM     34   C  SGN C   2      31.086  97.434  78.1800  0.00  0.00     0.000 C
ATOM     35   O  SGN C   2      29.945  98.300  78.0490  0.00  0.00     0.000 O
ATOM     36   S  SGN C   2      29.097  98.586  79.3710  0.00  0.00     0.000 S
ATOM     37   O  SGN C   2      30.068  99.065  80.3360  0.00  0.00     0.000 OA
ATOM     38   O  SGN C   2      28.120  99.581  78.9980  0.00  0.00     0.000 OA
ATOM     39   O  SGN C   2      28.525  97.305  79.7030  0.00  0.00     0.000 OA
ENDBRANCH 24 34
BRANCH 20 40
ATOM     40  O4  IDS C   3      34.051  99.373  76.0670  0.00  0.00     0.000 O
BRANCH 40 44
ATOM     41  C1  IDS C   3      33.781 102.561  74.5860  0.00  0.00     0.000 C
ATOM     42  C2  IDS C   3      34.912 101.604  74.2200  0.00  0.00     0.000 C
ATOM     43  C3  IDS C   3      35.620 101.111  75.4800  0.00  0.00     0.000 C
ATOM     44  C4  IDS C   3      34.632 100.599  76.5170  0.00  0.00     0.000 C
ATOM     45  C5  IDS C   3      33.522 101.647  76.7470  0.00  0.00     0.000 C
ATOM     46  O5  IDS C   3      32.882 101.945  75.5050  0.00  0.00     0.000 O
ATOM     47   O  IDS C   3      36.397 102.171  76.0320  0.00  0.00     0.000 O
ATOM     49  HD  IDS C   3      36.251 101.552  75.4440  0.00  0.00     0.000 HD
BRANCH 42 49
ATOM     49   O  IDS C   3      34.373 100.433  73.4910  0.00  0.00     0.000 O
ATOM     50   S  IDS C   3      35.028  99.997  72.0950  0.00  0.00     0.000 S
ATOM     51   O  IDS C   3      36.304  99.441  72.4850  0.00  0.00     0.000 OA
ATOM     52   O  IDS C   3      35.166 101.165  71.2410  0.00  0.00     0.000 OA
ATOM     53   O  IDS C   3      34.133  99.011  71.5270  0.00  0.00     0.000 OA
ENDBRANCH 42 49
BRANCH 45 54
ATOM     54   C  IDS C   3      32.466 101.196  77.7450  0.00  0.00     0.000 C
ATOM     55   O  IDS C   3      31.303 101.228  77.4370  0.00  0.00     0.000 OA
ATOM     56   O  IDS C   3      32.798 100.822  78.8530  0.00  0.00     0.000 OA
ENDBRANCH 45 54
BRANCH 41 57
ATOM     57  O4  SGN C   4      34.342 103.747  74.8530  0.00  0.00     0.000 O
BRANCH 57 61
ATOM     58  C1  SGN C   4      33.122 107.633  75.8190  0.00  0.00     0.000 C
ATOM     59  C2  SGN C   4      32.748 106.524  76.8150  0.00  0.00     0.000 C
ATOM     60  C3  SGN C   4      33.582 105.258  76.5730  0.00  0.00     0.000 C
ATOM     61  C4  SGN C   4      33.450 104.834  75.1200  0.00  0.00     0.000 C
ATOM     62  C5  SGN C   4      33.808 105.991  74.1890  0.00  0.00     0.000 C
ATOM     63  O5  SGN C   4      33.007 107.150  74.4890  0.00  0.00     0.000 O
BRANCH 59 66
ATOM     64   N  SGN C   4      32.826 107.206  78.1110  0.00  0.00     0.000 N
ATOM     66  HD  SGN C   4      32.834 106.608  77.4840  0.00  0.00     0.000 HD
ATOM     66   O  SGN C   4      31.995 107.797  80.3230  0.00  0.00     0.000 OA
ATOM     67   O  SGN C   4      30.441 107.668  78.4220  0.00  0.00     0.000 OA
ATOM     68   S  SGN C   4      31.648 107.017  79.1830  0.00  0.00     0.000 S
ATOM     69   O  SGN C   4      31.401 105.629  79.3380  0.00  0.00     0.000 OA
ENDBRANCH 59 66
BRANCH 62 70
ATOM     70   C  SGN C   4      33.558 105.639  72.7440  0.00  0.00     0.000 C
ATOM     71   S  SGN C   4      31.781 104.759  71.1200  0.00  0.00     0.000 S
ATOM     72   O  SGN C   4      32.146 105.799  70.1790  0.00  0.00     0.000 OA
ATOM     73   O  SGN C   4      32.550 103.541  70.9570  0.00  0.00     0.000 OA
ATOM     74   O  SGN C   4      30.356 104.540  71.2140  0.00  0.00     0.000 OA
ATOM     75   O  SGN C   4      32.170 105.345  72.5430  0.00  0.00     0.000 O
ENDBRANCH 62 70
ENDBRANCH 57 61
ENDBRANCH 41 57
ENDBRANCH 40 44
ENDBRANCH 20 40
ENDBRANCH 19 23
ENDBRANCH 1 19
TORSDOF 14
ENDMDL
MODEL 95
REMARK VINA RESULT:      -0.7     60.426     65.038
ROOT
ATOM      1  C1  IDS C   1      72.637  46.272  40.2370  0.00  0.00     0.000 C
ATOM      2  C2  IDS C   1      73.416  47.537  40.5510  0.00  0.00     0.000 C
ATOM      3  C3  IDS C   1      74.754  47.542  39.8230  0.00  0.00     0.000 C
ATOM      4  C4  IDS C   1      74.573  47.257  38.3330  0.00  0.00     0.000 C
ATOM      5  C5  IDS C   1      73.691  46.008  38.1320  0.00  0.00     0.000 C
ATOM      6  O5  IDS C   1      72.457  46.153  38.8270  0.00  0.00     0.000 O
ATOM      7   O  IDS C   1      75.623  46.575  40.4160  0.00  0.00     0.000 O
ATOM      9  HD  IDS C   1      75.939  46.601  39.6100  0.00  0.00     0.000 HD
ATOM      9   O  IDS C   1      73.944  48.389  37.7140  0.00  0.00     0.000 O
ATOM     11  HD  IDS C   1      74.260  48.415  36.9080  0.00  0.00     0.000 HD
ENDROOT
BRANCH 2 11
ATOM     11   O  IDS C   1      72.657  48.727  40.1060  0.00  0.00     0.000 O
ATOM     12   S  IDS C   1      72.126  49.797  41.1680  0.00  0.00     0.000 S
ATOM     13   O  IDS C   1      72.240  51.039  40.4350  0.00  0.00     0.000 OA
ATOM     14   O  IDS C   1      72.960  49.758  42.3450  0.00  0.00     0.000 OA
ATOM     15   O  IDS C   1      70.762  49.406  41.4250  0.00  0.00     0.000 OA
ENDBRANCH 2 11
BRANCH 5 16
ATOM     16   C  IDS C   1      73.371  45.727  36.6750  0.00  0.00     0.000 C
ATOM     17   O  IDS C   1      72.469  46.341  36.1460  0.00  0.00     0.000 OA
ATOM     18   O  IDS C   1      73.987  44.903  36.0570  0.00  0.00     0.000 OA
ENDBRANCH 5 16
BRANCH 1 19
ATOM     19  O4  SGN C   2      72.944  45.143  40.8840  0.00  0.00     0.000 O
BRANCH 19 23
ATOM     20  C1  SGN C   2      71.416  41.648  42.5800  0.00  0.00     0.000 C
ATOM     21  C2  SGN C   2      71.509  41.683  41.0500  0.00  0.00     0.000 C
ATOM     22  C3  SGN C   2      72.460  42.795  40.6160  0.00  0.00     0.000 C
ATOM     23  C4  SGN C   2      71.988  44.127  41.1890  0.00  0.00     0.000 C
ATOM     24  C5  SGN C   2      71.828  44.011  42.7080  0.00  0.00     0.000 C
ATOM     25  O5  SGN C   2      70.953  42.913  43.0240  0.00  0.00     0.000 O
ATOM     26   O  SGN C   2      72.547  42.852  39.1970  0.00  0.00     0.000 O
ATOM     28  HD  SGN C   2      72.595  42.775  38.3360  0.00  0.00     0.000 HD
BRANCH 21 30
ATOM     28   N  SGN C   2      71.754  40.244  40.8840  0.00  0.00     0.000 N
ATOM     30  HD  SGN C   2      72.174  39.984  40.1720  0.00  0.00     0.000 HD
ATOM     30   S  SGN C   2      70.753  39.325  40.0400  0.00  0.00     0.000 S
ATOM     31   O  SGN C   2      70.634  39.963  38.7720  0.00  0.00     0.000 OA
ATOM     32   O  SGN C   2      71.202  37.984  40.1170  0.00  0.00     0.000 OA
ATOM     33   O  SGN C   2      69.405  39.403  40.8330  0.00  0.00     0.000 OA
ENDBRANCH 21 30
BRANCH 24 34
ATOM     34   C  SGN C   2      71.222  45.238  43.3490  0.00  0.00     0.000 C
ATOM     35   O  SGN C   2      72.250  45.951  44.0580  0.00  0.00     0.000 O
ATOM     36   S  SGN C   2      71.776  46.985  45.1780  0.00  0.00     0.000 S
ATOM     37   O  SGN C   2      70.912  46.213  46.0500  0.00  0.00     0.000 OA
ATOM     38   O  SGN C   2      72.983  47.441  45.8230  0.00  0.00     0.000 OA
ATOM     39   O  SGN C   2      71.089  48.013  44.4340  0.00  0.00     0.000 OA
ENDBRANCH 24 34
BRANCH 20 40
ATOM     40  O4  IDS C   3      72.515  41.322  43.2560  0.00  0.00     0.000 O
BRANCH 40 44
ATOM     41  C1  IDS C   3      75.331  40.021  44.9300  0.00  0.00     0.000 C
ATOM     42  C2  IDS C   3      74.646  39.251  43.8050  0.00  0.00     0.000 C
ATOM     43  C3  IDS C   3      73.147  39.140  44.0740  0.00  0.00     0.000 C
ATOM     44  C4  IDS C   3      72.535  40.489  44.4180  0.00  0.00     0.000 C
ATOM     45  C5  IDS C   3      73.359  41.170  45.5320  0.00  0.00     0.000 C
ATOM     46  O5  IDS C   3      74.718  41.295  45.1110  0.00  0.00     0.000 O
ATOM     47   O  IDS C   3      72.924  38.220  45.1390  0.00  0.00     0.000 O
ATOM     49  HD  IDS C   3      73.122  38.410  44.3180  0.00  0.00     0.000 HD
BRANCH 42 49
ATOM     49   O  IDS C   3      74.845  39.951  42.5140  0.00  0.00     0.000 O
ATOM     50   S  IDS C   3      75.430  39.146  41.2580  0.00  0.00     0.000 S
ATOM     51   O  IDS C   3      74.333  38.287  40.8720  0.00  0.00     0.000 OA
ATOM     52   O  IDS C   3      76.607  38.398  41.6690  0.00  0.00     0.000 OA
ATOM     53   O  IDS C   3      75.744  40.145  40.2580  0.00  0.00     0.000 OA
ENDBRANCH 42 49
BRANCH 45 54
ATOM     54   C  IDS C   3      72.836  42.547  45.9110  0.00  0.00     0.000 C
ATOM     55   O  IDS C   3      71.688  42.677  46.2500  0.00  0.00     0.000 OA
ATOM     56   O  IDS C   3      73.573  43.512  45.8530  0.00  0.00     0.000 OA
ENDBRANCH 45 54
BRANCH 41 57
ATOM     57  O4  SGN C   4      75.479  39.171  45.9530  0.00  0.00     0.000 O
BRANCH 57 61
ATOM     58  C1  SGN C   4      77.350  39.103  49.6980  0.00  0.00     0.000 C
ATOM     59  C2  SGN C   4      76.054  39.923  49.5870  0.00  0.00     0.000 C
ATOM     60  C3  SGN C   4      75.264  39.543  48.3270  0.00  0.00     0.000 C
ATOM     61  C4  SGN C   4      76.162  39.667  47.1080  0.00  0.00     0.000 C
ATOM     62  C5  SGN C   4      77.441  38.853  47.3000  0.00  0.00     0.000 C
ATOM     63  O5  SGN C   4      78.115  39.245  48.5100  0.00  0.00     0.000 O
BRANCH 59 66
ATOM     64   N  SGN C   4      75.399  39.743  50.8870  0.00  0.00     0.000 N
ATOM     66  HD  SGN C   4      75.556  39.903  50.0510  0.00  0.00     0.000 HD
ATOM     66   O  SGN C   4      74.336  40.541  52.9280  0.00  0.00     0.000 OA
ATOM     67   O  SGN C   4      76.292  41.722  52.0210  0.00  0.00     0.000 OA
ATOM     68   S  SGN C   4      74.919  41.025  51.7230  0.00  0.00     0.000 S
ATOM     69   O  SGN C   4      74.156  41.858  50.8660  0.00  0.00     0.000 OA
ENDBRANCH 59 66
BRANCH 62 70
ATOM     70   C  SGN C   4      78.409  39.066  46.1630  0.00  0.00     0.000 C
ATOM     71   S  SGN C   4      79.398  40.850  44.6110  0.00  0.00     0.000 S
ATOM     72   O  SGN C   4      80.718  40.295  44.8380  0.00  0.00     0.000 OA
ATOM     73   O  SGN C   4      78.706  40.244  43.4920  0.00  0.00     0.000 OA
ATOM     74   O  SGN C   4      79.373  42.295  44.5980  0.00  0.00     0.000 OA
ATOM     75   O  SGN C   4      78.569  40.467  45.9090  0.00  0.00     0.000 O
ENDBRANCH 62 70
ENDBRANCH 57 61
ENDBRANCH 41 57
ENDBRANCH 40 44
ENDBRANCH 20 40
ENDBRANCH 19 23
ENDBRANCH 1 19
TORSDOF 14
ENDMDL
MODEL 96
REMARK VINA RESULT:      -0.7    102.749    108.615
ROOT
ATOM      1  C1  IDS C   1      47.613 107.486  34.7310  0.00  0.00     0.000 C
ATOM      2  C2  IDS C   1      47.464 107.143  33.2590  0.00  0.00     0.000 C
ATOM      3  C3  IDS C   1      48.384 105.991  32.8770  0.00  0.00     0.000 C
ATOM      4  C4  IDS C   1      48.213 104.808  33.8300  0.00  0.00     0.000 C
ATOM      5  C5  IDS C   1      48.289 105.286  35.2940  0.00  0.00     0.000 C
ATOM      6  O5  IDS C   1      47.350 106.331  35.5260  0.00  0.00     0.000 O
ATOM      7   O  IDS C   1      49.739 106.443  32.8790  0.00  0.00     0.000 O
ATOM      9  HD  IDS C   1      49.851 105.600  33.0460  0.00  0.00     0.000 HD
ATOM      9   O  IDS C   1      46.934 104.200  33.5930  0.00  0.00     0.000 O
ATOM     11  HD  IDS C   1      47.046 103.357  33.7600  0.00  0.00     0.000 HD
ENDROOT
BRANCH 2 11
ATOM     11   O  IDS C   1      46.074 106.723  32.9720  0.00  0.00     0.000 O
ATOM     12   S  IDS C   1      45.205 107.487  31.8690  0.00  0.00     0.000 S
ATOM     13   O  IDS C   1      44.408 106.417  31.3120  0.00  0.00     0.000 OA
ATOM     14   O  IDS C   1      46.086 108.096  30.9030  0.00  0.00     0.000 OA
ATOM     15   O  IDS C   1      44.433 108.448  32.6180  0.00  0.00     0.000 OA
ENDBRANCH 2 11
BRANCH 5 16
ATOM     16   C  IDS C   1      48.013 104.184  36.3000  0.00  0.00     0.000 C
ATOM     17   O  IDS C   1      48.207 103.032  35.9730  0.00  0.00     0.000 OA
ATOM     18   O  IDS C   1      47.594 104.442  37.3950  0.00  0.00     0.000 OA
ENDBRANCH 5 16
BRANCH 1 19
ATOM     19  O4  SGN C   2      48.646 108.240  35.1200  0.00  0.00     0.000 O
BRANCH 19 23
ATOM     20  C1  SGN C   2      49.878 111.338  37.6310  0.00  0.00     0.000 C
ATOM     21  C2  SGN C   2      49.547 110.001  38.3050  0.00  0.00     0.000 C
ATOM     22  C3  SGN C   2      49.545 108.886  37.2630  0.00  0.00     0.000 C
ATOM     23  C4  SGN C   2      48.558 109.224  36.1520  0.00  0.00     0.000 C
ATOM     24  C5  SGN C   2      48.880 110.605  35.5730  0.00  0.00     0.000 C
ATOM     25  O5  SGN C   2      48.904 111.582  36.6290  0.00  0.00     0.000 O
ATOM     26   O  SGN C   2      49.224 107.639  37.8690  0.00  0.00     0.000 O
ATOM     28  HD  SGN C   2      49.091 106.914  38.3240  0.00  0.00     0.000 HD
BRANCH 21 30
ATOM     28   N  SGN C   2      50.520 110.142  39.3960  0.00  0.00     0.000 N
ATOM     30  HD  SGN C   2      50.820 109.419  39.7680  0.00  0.00     0.000 HD
ATOM     30   S  SGN C   2      50.053 110.155  40.9270  0.00  0.00     0.000 S
ATOM     31   O  SGN C   2      49.279 108.971  41.0940  0.00  0.00     0.000 OA
ATOM     32   O  SGN C   2      51.190 110.378  41.7410  0.00  0.00     0.000 OA
ATOM     33   O  SGN C   2      49.152 111.432  41.0380  0.00  0.00     0.000 OA
ENDBRANCH 21 30
BRANCH 24 34
ATOM     34   C  SGN C   2      47.865 111.091  34.5650  0.00  0.00     0.000 C
ATOM     35   O  SGN C   2      48.444 111.024  33.2500  0.00  0.00     0.000 O
ATOM     36   S  SGN C   2      47.760 111.908  32.1100  0.00  0.00     0.000 S
ATOM     37   O  SGN C   2      47.731 113.252  32.6530  0.00  0.00     0.000 OA
ATOM     38   O  SGN C   2      48.609 111.775  30.9520  0.00  0.00     0.000 OA
ATOM     39   O  SGN C   2      46.455 111.315  31.9460  0.00  0.00     0.000 OA
ENDBRANCH 24 34
BRANCH 20 40
ATOM     40  O4  IDS C   3      51.092 111.479  37.1050  0.00  0.00     0.000 O
BRANCH 40 44
ATOM     41  C1  IDS C   3      54.416 111.961  36.0350  0.00  0.00     0.000 C
ATOM     42  C2  IDS C   3      54.090 111.565  37.4720  0.00  0.00     0.000 C
ATOM     43  C3  IDS C   3      53.051 112.516  38.0610  0.00  0.00     0.000 C
ATOM     44  C4  IDS C   3      51.856 112.687  37.1370  0.00  0.00     0.000 C
ATOM     45  C5  IDS C   3      52.339 113.035  35.7130  0.00  0.00     0.000 C
ATOM     46  O5  IDS C   3      53.228 112.017  35.2490  0.00  0.00     0.000 O
ATOM     47   O  IDS C   3      53.656 113.782  38.3120  0.00  0.00     0.000 O
ATOM     49  HD  IDS C   3      53.517 112.948  38.4980  0.00  0.00     0.000 HD
BRANCH 42 49
ATOM     49   O  IDS C   3      53.548 110.187  37.5110  0.00  0.00     0.000 O
ATOM     50   S  IDS C   3      54.109 109.144  38.5890  0.00  0.00     0.000 S
ATOM     51   O  IDS C   3      53.561 109.627  39.8370  0.00  0.00     0.000 OA
ATOM     52   O  IDS C   3      55.562 109.166  38.5720  0.00  0.00     0.000 OA
ATOM     53   O  IDS C   3      53.580 107.852  38.2050  0.00  0.00     0.000 OA
ENDBRANCH 42 49
BRANCH 45 54
ATOM     54   C  IDS C   3      51.204 113.185  34.7120  0.00  0.00     0.000 C
ATOM     55   O  IDS C   3      51.214 112.537  33.6970  0.00  0.00     0.000 OA
ATOM     56   O  IDS C   3      50.301 113.970  34.9310  0.00  0.00     0.000 OA
ENDBRANCH 45 54
BRANCH 41 57
ATOM     57  O4  SGN C   4      55.258 112.999  36.0960  0.00  0.00     0.000 O
BRANCH 57 61
ATOM     58  C1  SGN C   4      57.716 115.186  33.5060  0.00  0.00     0.000 C
ATOM     59  C2  SGN C   4      56.203 115.253  33.2440  0.00  0.00     0.000 C
ATOM     60  C3  SGN C   4      55.407 114.771  34.4650  0.00  0.00     0.000 C
ATOM     61  C4  SGN C   4      55.888 113.388  34.8710  0.00  0.00     0.000 C
ATOM     62  C5  SGN C   4      57.401 113.389  35.0850  0.00  0.00     0.000 C
ATOM     63  O5  SGN C   4      58.079 113.874  33.9110  0.00  0.00     0.000 O
BRANCH 59 66
ATOM     64   N  SGN C   4      55.984 116.624  32.7710  0.00  0.00     0.000 N
ATOM     66  HD  SGN C   4      55.875 115.833  33.1070  0.00  0.00     0.000 HD
ATOM     66   O  SGN C   4      55.127 118.287  31.2110  0.00  0.00     0.000 OA
ATOM     67   O  SGN C   4      56.113 116.202  30.3610  0.00  0.00     0.000 OA
ATOM     68   S  SGN C   4      55.168 116.879  31.4130  0.00  0.00     0.000 S
ATOM     69   O  SGN C   4      53.953 116.150  31.4790  0.00  0.00     0.000 OA
ENDBRANCH 59 66
BRANCH 62 70
ATOM     70   C  SGN C   4      57.922 112.000  35.3580  0.00  0.00     0.000 C
ATOM     71   S  SGN C   4      57.932 109.595  34.4710  0.00  0.00     0.000 S
ATOM     72   O  SGN C   4      59.361 109.529  34.7060  0.00  0.00     0.000 OA
ATOM     73   O  SGN C   4      57.142 109.183  35.6140  0.00  0.00     0.000 OA
ATOM     74   O  SGN C   4      57.522 108.982  33.2280  0.00  0.00     0.000 OA
ATOM     75   O  SGN C   4      57.628 111.138  34.2520  0.00  0.00     0.000 O
ENDBRANCH 62 70
ENDBRANCH 57 61
ENDBRANCH 41 57
ENDBRANCH 40 44
ENDBRANCH 20 40
ENDBRANCH 19 23
ENDBRANCH 1 19
TORSDOF 14
ENDMDL
MODEL 97
REMARK VINA RESULT:      -0.7    104.986    109.633
ROOT
ATOM      1  C1  IDS C   1      68.927  92.033  91.1130  0.00  0.00     0.000 C
ATOM      2  C2  IDS C   1      70.202  92.755  90.7150  0.00  0.00     0.000 C
ATOM      3  C3  IDS C   1      70.223  93.029  89.2160  0.00  0.00     0.000 C
ATOM      4  C4  IDS C   1      68.933  93.712  88.7620  0.00  0.00     0.000 C
ATOM      5  C5  IDS C   1      67.707  92.948  89.3000  0.00  0.00     0.000 C
ATOM      6  O5  IDS C   1      67.793  92.800  90.7140  0.00  0.00     0.000 O
ATOM      7   O  IDS C   1      70.414  91.801  88.5100  0.00  0.00     0.000 O
ATOM      9  HD  IDS C   1      69.988  92.263  87.9150  0.00  0.00     0.000 HD
ATOM      9   O  IDS C   1      68.915  95.057  89.2650  0.00  0.00     0.000 O
ATOM     11  HD  IDS C   1      68.488  95.519  88.6700  0.00  0.00     0.000 HD
ENDROOT
BRANCH 2 11
ATOM     11   O  IDS C   1      70.290  94.058  91.4110  0.00  0.00     0.000 O
ATOM     12   S  IDS C   1      71.382  94.298  92.5530  0.00  0.00     0.000 S
ATOM     13   O  IDS C   1      71.717  95.693  92.3680  0.00  0.00     0.000 OA
ATOM     14   O  IDS C   1      72.503  93.416  92.3370  0.00  0.00     0.000 OA
ATOM     15   O  IDS C   1      70.682  94.035  93.7860  0.00  0.00     0.000 OA
ENDBRANCH 2 11
BRANCH 5 16
ATOM     16   C  IDS C   1      66.389  93.632  88.9860  0.00  0.00     0.000 C
ATOM     17   O  IDS C   1      65.359  93.127  89.3810  0.00  0.00     0.000 OA
ATOM     18   O  IDS C   1      66.359  94.646  88.3450  0.00  0.00     0.000 OA
ENDBRANCH 5 16
BRANCH 1 19
ATOM     19  O4  SGN C   2      68.840  90.714  90.9150  0.00  0.00     0.000 O
BRANCH 19 23
ATOM     20  C1  SGN C   2      67.172  87.143  92.2910  0.00  0.00     0.000 C
ATOM     21  C2  SGN C   2      66.214  88.131  91.6160  0.00  0.00     0.000 C
ATOM     22  C3  SGN C   2      67.010  89.147  90.8010  0.00  0.00     0.000 C
ATOM     23  C4  SGN C   2      68.015  89.853  91.7030  0.00  0.00     0.000 C
ATOM     24  C5  SGN C   2      68.888  88.819  92.4180  0.00  0.00     0.000 C
ATOM     25  O5  SGN C   2      68.055  87.880  93.1210  0.00  0.00     0.000 O
ATOM     26   O  SGN C   2      66.135  90.082  90.1790  0.00  0.00     0.000 O
ATOM     28  HD  SGN C   2      65.534  90.565  89.7840  0.00  0.00     0.000 HD
BRANCH 21 30
ATOM     28   N  SGN C   2      65.336  87.057  91.1330  0.00  0.00     0.000 N
ATOM     30  HD  SGN C   2      64.915  87.182  90.3860  0.00  0.00     0.000 HD
ATOM     30   S  SGN C   2      63.768  87.059  91.4550  0.00  0.00     0.000 S
ATOM     31   O  SGN C   2      63.295  88.329  91.0160  0.00  0.00     0.000 OA
ATOM     32   O  SGN C   2      63.201  85.873  90.9310  0.00  0.00     0.000 OA
ATOM     33   O  SGN C   2      63.701  86.948  93.0160  0.00  0.00     0.000 OA
ENDBRANCH 21 30
BRANCH 24 34
ATOM     34   C  SGN C   2      69.819  89.417  93.4470  0.00  0.00     0.000 C
ATOM     35   O  SGN C   2      71.160  89.402  92.9290  0.00  0.00     0.000 O
ATOM     36   S  SGN C   2      72.348  89.535  93.9870  0.00  0.00     0.000 S
ATOM     37   O  SGN C   2      72.098  88.486  94.9560  0.00  0.00     0.000 OA
ATOM     38   O  SGN C   2      73.564  89.344  93.2340  0.00  0.00     0.000 OA
ATOM     39   O  SGN C   2      72.195  90.869  94.5160  0.00  0.00     0.000 OA
ENDBRANCH 24 34
BRANCH 20 40
ATOM     40  O4  IDS C   3      67.881  86.338  91.5030  0.00  0.00     0.000 O
BRANCH 40 44
ATOM     41  C1  IDS C   3      69.356  83.952  89.3690  0.00  0.00     0.000 C
ATOM     42  C2  IDS C   3      67.845  84.156  89.4140  0.00  0.00     0.000 C
ATOM     43  C3  IDS C   3      67.341  84.077  90.8530  0.00  0.00     0.000 C
ATOM     44  C4  IDS C   3      68.155  84.963  91.7840  0.00  0.00     0.000 C
ATOM     45  C5  IDS C   3      69.660  84.683  91.5930  0.00  0.00     0.000 C
ATOM     46  O5  IDS C   3      70.013  84.885  90.2230  0.00  0.00     0.000 O
ATOM     47   O  IDS C   3      67.396  82.724  91.3000  0.00  0.00     0.000 O
ATOM     49  HD  IDS C   3      67.044  83.366  90.8380  0.00  0.00     0.000 HD
BRANCH 42 49
ATOM     49   O  IDS C   3      67.493  85.484  88.8610  0.00  0.00     0.000 O
ATOM     50   S  IDS C   3      66.393  85.595  87.7010  0.00  0.00     0.000 S
ATOM     51   O  IDS C   3      65.153  85.311  88.3900  0.00  0.00     0.000 OA
ATOM     52   O  IDS C   3      66.688  84.623  86.6610  0.00  0.00     0.000 OA
ATOM     53   O  IDS C   3      66.467  86.955  87.2110  0.00  0.00     0.000 OA
ENDBRANCH 42 49
BRANCH 45 54
ATOM     54   C  IDS C   3      70.551  85.558  92.4610  0.00  0.00     0.000 C
ATOM     55   O  IDS C   3      71.398  86.242  91.9470  0.00  0.00     0.000 OA
ATOM     56   O  IDS C   3      70.416  85.552  93.6690  0.00  0.00     0.000 OA
ENDBRANCH 45 54
BRANCH 41 57
ATOM     57  O4  SGN C   4      69.578  82.636  89.4770  0.00  0.00     0.000 O
BRANCH 57 61
ATOM     58  C1  SGN C   4      72.775  79.965  89.0620  0.00  0.00     0.000 C
ATOM     59  C2  SGN C   4      72.947  81.095  90.0900  0.00  0.00     0.000 C
ATOM     60  C3  SGN C   4      71.597  81.735  90.4420  0.00  0.00     0.000 C
ATOM     61  C4  SGN C   4      70.898  82.179  89.1680  0.00  0.00     0.000 C
ATOM     62  C5  SGN C   4      70.788  81.017  88.1830  0.00  0.00     0.000 C
ATOM     63  O5  SGN C   4      72.086  80.451  87.9190  0.00  0.00     0.000 O
BRANCH 59 66
ATOM     64   N  SGN C   4      73.717  80.485  91.1790  0.00  0.00     0.000 N
ATOM     66  HD  SGN C   4      73.201  81.003  90.7140  0.00  0.00     0.000 HD
ATOM     66   O  SGN C   4      75.584  80.373  92.7400  0.00  0.00     0.000 OA
ATOM     67   O  SGN C   4      75.965  81.093  90.4200  0.00  0.00     0.000 OA
ATOM     68   S  SGN C   4      75.061  81.191  91.6980  0.00  0.00     0.000 S
ATOM     69   O  SGN C   4      74.778  82.556  91.9600  0.00  0.00     0.000 OA
ENDBRANCH 59 66
BRANCH 62 70
ATOM     70   C  SGN C   4      70.220  81.463  86.8600  0.00  0.00     0.000 C
ATOM     71   S  SGN C   4      70.738  82.833  84.7550  0.00  0.00     0.000 S
ATOM     72   O  SGN C   4      70.202  81.759  83.9420  0.00  0.00     0.000 OA
ATOM     73   O  SGN C   4      69.739  83.803  85.1550  0.00  0.00     0.000 OA
ATOM     74   O  SGN C   4      71.940  83.423  84.2130  0.00  0.00     0.000 OA
ATOM     75   O  SGN C   4      71.230  82.124  86.0880  0.00  0.00     0.000 O
ENDBRANCH 62 70
ENDBRANCH 57 61
ENDBRANCH 41 57
ENDBRANCH 40 44
ENDBRANCH 20 40
ENDBRANCH 19 23
ENDBRANCH 1 19
TORSDOF 14
ENDMDL
MODEL 98
REMARK VINA RESULT:      -0.7     56.262     60.612
ROOT
ATOM      1  C1  IDS C   1      34.696  57.840  49.9510  0.00  0.00     0.000 C
ATOM      2  C2  IDS C   1      35.350  57.551  48.6120  0.00  0.00     0.000 C
ATOM      3  C3  IDS C   1      36.543  56.618  48.7830  0.00  0.00     0.000 C
ATOM      4  C4  IDS C   1      36.162  55.377  49.5900  0.00  0.00     0.000 C
ATOM      5  C5  IDS C   1      35.423  55.785  50.8800  0.00  0.00     0.000 C
ATOM      6  O5  IDS C   1      34.308  56.616  50.5740  0.00  0.00     0.000 O
ATOM      7   O  IDS C   1      37.610  57.322  49.4220  0.00  0.00     0.000 O
ATOM      9  HD  IDS C   1      37.786  56.510  49.6640  0.00  0.00     0.000 HD
ATOM      9   O  IDS C   1      35.304  54.547  48.7920  0.00  0.00     0.000 O
ATOM     11  HD  IDS C   1      35.481  53.734  49.0340  0.00  0.00     0.000 HD
ENDROOT
BRANCH 2 11
ATOM     11   O  IDS C   1      34.386  56.886  47.7060  0.00  0.00     0.000 O
ATOM     12   S  IDS C   1      34.003  57.545  46.3010  0.00  0.00     0.000 S
ATOM     13   O  IDS C   1      33.812  56.384  45.4600  0.00  0.00     0.000 OA
ATOM     14   O  IDS C   1      35.086  58.390  45.8580  0.00  0.00     0.000 OA
ATOM     15   O  IDS C   1      32.786  58.272  46.5620  0.00  0.00     0.000 OA
ENDBRANCH 2 11
BRANCH 5 16
ATOM     16   C  IDS C   1      34.911  54.600  51.6780  0.00  0.00     0.000 C
ATOM     17   O  IDS C   1      35.453  53.524  51.5400  0.00  0.00     0.000 OA
ATOM     18   O  IDS C   1      33.976  54.717  52.4220  0.00  0.00     0.000 OA
ENDBRANCH 5 16
BRANCH 1 19
ATOM     19  O4  SGN C   2      35.241  58.757  50.7550  0.00  0.00     0.000 O
BRANCH 19 23
ATOM     20  C1  SGN C   2      34.462  61.879  53.4140  0.00  0.00     0.000 C
ATOM     21  C2  SGN C   2      34.202  60.459  53.9300  0.00  0.00     0.000 C
ATOM     22  C3  SGN C   2      34.925  59.448  53.0450  0.00  0.00     0.000 C
ATOM     23  C4  SGN C   2      34.476  59.620  51.5980  0.00  0.00     0.000 C
ATOM     24  C5  SGN C   2      34.677  61.074  51.1610  0.00  0.00     0.000 C
ATOM     25  O5  SGN C   2      34.000  61.956  52.0760  0.00  0.00     0.000 O
ATOM     26   O  SGN C   2      34.680  58.122  53.5000  0.00  0.00     0.000 O
ATOM     28  HD  SGN C   2      34.539  57.357  53.8810  0.00  0.00     0.000 HD
BRANCH 21 30
ATOM     28   N  SGN C   2      34.523  60.773  55.3290  0.00  0.00     0.000 N
ATOM     30  HD  SGN C   2      34.815  60.131  55.8320  0.00  0.00     0.000 HD
ATOM     30   S  SGN C   2      33.453  60.548  56.4960  0.00  0.00     0.000 S
ATOM     31   O  SGN C   2      33.037  59.191  56.3700  0.00  0.00     0.000 OA
ATOM     32   O  SGN C   2      34.013  61.005  57.7140  0.00  0.00     0.000 OA
ATOM     33   O  SGN C   2      32.284  61.526  56.1340  0.00  0.00     0.000 OA
ENDBRANCH 21 30
BRANCH 24 34
ATOM     34   C  SGN C   2      34.124  61.377  49.7890  0.00  0.00     0.000 C
ATOM     35   O  SGN C   2      35.215  61.477  48.8570  0.00  0.00     0.000 O
ATOM     36   S  SGN C   2      34.930  62.240  47.4840  0.00  0.00     0.000 S
ATOM     37   O  SGN C   2      34.401  63.530  47.8830  0.00  0.00     0.000 OA
ATOM     38   O  SGN C   2      36.205  62.326  46.8140  0.00  0.00     0.000 OA
ATOM     39   O  SGN C   2      33.972  61.398  46.8100  0.00  0.00     0.000 OA
ENDBRANCH 24 34
BRANCH 20 40
ATOM     40  O4  IDS C   3      35.711  62.336  53.4730  0.00  0.00     0.000 O
BRANCH 40 44
ATOM     41  C1  IDS C   3      38.942  63.654  53.9690  0.00  0.00     0.000 C
ATOM     42  C2  IDS C   3      38.120  63.101  55.1290  0.00  0.00     0.000 C
ATOM     43  C3  IDS C   3      36.733  63.740  55.1490  0.00  0.00     0.000 C
ATOM     44  C4  IDS C   3      36.068  63.685  53.7830  0.00  0.00     0.000 C
ATOM     45  C5  IDS C   3      37.032  64.229  52.7070  0.00  0.00     0.000 C
ATOM     46  O5  IDS C   3      38.249  63.481  52.7360  0.00  0.00     0.000 O
ATOM     47   O  IDS C   3      36.843  65.094  55.5820  0.00  0.00     0.000 O
ATOM     49  HD  IDS C   3      36.840  64.240  55.7260  0.00  0.00     0.000 HD
BRANCH 42 49
ATOM     49   O  IDS C   3      37.963  61.634  54.9890  0.00  0.00     0.000 O
ATOM     50   S  IDS C   3      38.235  60.683  56.2490  0.00  0.00     0.000 S
ATOM     51   O  IDS C   3      37.103  60.940  57.1110  0.00  0.00     0.000 OA
ATOM     52   O  IDS C   3      39.500  61.048  56.8650  0.00  0.00     0.000 OA
ATOM     53   O  IDS C   3      38.253  59.331  55.7300  0.00  0.00     0.000 OA
ENDBRANCH 42 49
BRANCH 45 54
ATOM     54   C  IDS C   3      36.457  64.172  51.3010  0.00  0.00     0.000 C
ATOM     55   O  IDS C   3      35.412  64.719  51.0610  0.00  0.00     0.000 OA
ATOM     56   O  IDS C   3      37.046  63.563  50.4290  0.00  0.00     0.000 OA
ENDBRANCH 45 54
BRANCH 41 57
ATOM     57  O4  SGN C   4      39.395  64.855  54.3480  0.00  0.00     0.000 O
BRANCH 57 61
ATOM     58  C1  SGN C   4      42.152  67.715  53.0260  0.00  0.00     0.000 C
ATOM     59  C2  SGN C   4      40.967  67.416  52.0950  0.00  0.00     0.000 C
ATOM     60  C3  SGN C   4      39.842  66.689  52.8450  0.00  0.00     0.000 C
ATOM     61  C4  SGN C   4      40.403  65.451  53.5250  0.00  0.00     0.000 C
ATOM     62  C5  SGN C   4      41.593  65.818  54.4090  0.00  0.00     0.000 C
ATOM     63  O5  SGN C   4      42.595  66.517  53.6470  0.00  0.00     0.000 O
BRANCH 59 66
ATOM     64   N  SGN C   4      40.635  68.704  51.4790  0.00  0.00     0.000 N
ATOM     66  HD  SGN C   4      40.603  67.890  51.7700  0.00  0.00     0.000 HD
ATOM     66   O  SGN C   4      40.247  70.185  49.5840  0.00  0.00     0.000 OA
ATOM     67   O  SGN C   4      42.075  68.544  49.5030  0.00  0.00     0.000 OA
ATOM     68   S  SGN C   4      40.581  68.834  49.8800  0.00  0.00     0.000 S
ATOM     69   O  SGN C   4      39.766  67.788  49.3740  0.00  0.00     0.000 OA
ENDBRANCH 59 66
BRANCH 62 70
ATOM     70   C  SGN C   4      42.251  64.592  54.9900  0.00  0.00     0.000 C
ATOM     71   S  SGN C   4      43.333  62.351  54.3740  0.00  0.00     0.000 S
ATOM     72   O  SGN C   4      44.412  62.633  55.2990  0.00  0.00     0.000 OA
ATOM     73   O  SGN C   4      42.218  61.658  54.9870  0.00  0.00     0.000 OA
ATOM     74   O  SGN C   4      43.776  61.758  53.1330  0.00  0.00     0.000 OA
ATOM     75   O  SGN C   4      42.787  63.777  53.9400  0.00  0.00     0.000 O
ENDBRANCH 62 70
ENDBRANCH 57 61
ENDBRANCH 41 57
ENDBRANCH 40 44
ENDBRANCH 20 40
ENDBRANCH 19 23
ENDBRANCH 1 19
TORSDOF 14
ENDMDL
MODEL 99
REMARK VINA RESULT:      -0.7     84.808     88.785
ROOT
ATOM      1  C1  IDS C   1     107.001  13.152  48.7570  0.00  0.00     0.000 C
ATOM      2  C2  IDS C   1     108.388  13.016  48.1550  0.00  0.00     0.000 C
ATOM      3  C3  IDS C   1     109.057  11.729  48.6230  0.00  0.00     0.000 C
ATOM      4  C4  IDS C   1     108.145  10.522  48.4060  0.00  0.00     0.000 C
ATOM      5  C5  IDS C   1     106.739  10.807  48.9720  0.00  0.00     0.000 C
ATOM      6  O5  IDS C   1     106.214  12.010  48.4210  0.00  0.00     0.000 O
ATOM      7   O  IDS C   1     109.407  11.850  50.0030  0.00  0.00     0.000 O
ATOM      9  HD  IDS C   1     109.313  10.991  49.9360  0.00  0.00     0.000 HD
ATOM      9   O  IDS C   1     108.047  10.259  46.9980  0.00  0.00     0.000 O
ATOM     11  HD  IDS C   1     107.952   9.400  46.9310  0.00  0.00     0.000 HD
ENDROOT
BRANCH 2 11
ATOM     11   O  IDS C   1     108.301  12.966  46.6780  0.00  0.00     0.000 O
ATOM     12   S  IDS C   1     109.025  14.073  45.7820  0.00  0.00     0.000 S
ATOM     13   O  IDS C   1     109.430  13.312  44.6210  0.00  0.00     0.000 OA
ATOM     14   O  IDS C   1     110.142  14.624  46.5130  0.00  0.00     0.000 OA
ATOM     15   O  IDS C   1     107.996  15.043  45.5030  0.00  0.00     0.000 OA
ENDBRANCH 2 11
BRANCH 5 16
ATOM     16   C  IDS C   1     105.743   9.697  48.6910  0.00  0.00     0.000 C
ATOM     17   O  IDS C   1     105.466   8.920  49.5810  0.00  0.00     0.000 OA
ATOM     18   O  IDS C   1     105.247   9.575  47.6050  0.00  0.00     0.000 OA
ENDBRANCH 5 16
BRANCH 1 19
ATOM     19  O4  SGN C   2     106.879  13.596  50.0110  0.00  0.00     0.000 O
BRANCH 19 23
ATOM     20  C1  SGN C   2     104.636  15.995  52.5890  0.00  0.00     0.000 C
ATOM     21  C2  SGN C   2     104.023  14.642  52.2050  0.00  0.00     0.000 C
ATOM     22  C3  SGN C   2     105.107  13.726  51.6430  0.00  0.00     0.000 C
ATOM     23  C4  SGN C   2     105.787  14.402  50.4580  0.00  0.00     0.000 C
ATOM     24  C5  SGN C   2     106.302  15.783  50.8720  0.00  0.00     0.000 C
ATOM     25  O5  SGN C   2     105.226  16.559  51.4290  0.00  0.00     0.000 O
ATOM     26   O  SGN C   2     104.553  12.471  51.2670  0.00  0.00     0.000 O
ATOM     28  HD  SGN C   2     104.151  11.716  51.1290  0.00  0.00     0.000 HD
BRANCH 21 30
ATOM     28   N  SGN C   2     103.302  14.517  53.4780  0.00  0.00     0.000 N
ATOM     30  HD  SGN C   2     103.161  13.720  53.7880  0.00  0.00     0.000 HD
ATOM     30   S  SGN C   2     101.719  14.283  53.5150  0.00  0.00     0.000 S
ATOM     31   O  SGN C   2     101.487  13.144  52.6930  0.00  0.00     0.000 OA
ATOM     32   O  SGN C   2     101.297  14.278  54.8660  0.00  0.00     0.000 OA
ATOM     33   O  SGN C   2     101.129  15.576  52.8560  0.00  0.00     0.000 OA
ENDBRANCH 21 30
BRANCH 24 34
ATOM     34   C  SGN C   2     106.862  16.591  49.7250  0.00  0.00     0.000 C
ATOM     35   O  SGN C   2     108.295  16.634  49.8390  0.00  0.00     0.000 O
ATOM     36   S  SGN C   2     109.051  17.793  49.0420  0.00  0.00     0.000 S
ATOM     37   O  SGN C   2     108.407  19.018  49.4730  0.00  0.00     0.000 OA
ATOM     38   O  SGN C   2     110.435  17.701  49.4410  0.00  0.00     0.000 OA
ATOM     39   O  SGN C   2     108.823  17.467  47.6550  0.00  0.00     0.000 OA
ENDBRANCH 24 34
BRANCH 20 40
ATOM     40  O4  IDS C   3     105.521  16.009  53.5820  0.00  0.00     0.000 O
BRANCH 40 44
ATOM     41  C1  IDS C   3     107.530  16.034  56.4790  0.00  0.00     0.000 C
ATOM     42  C2  IDS C   3     106.117  15.459  56.4930  0.00  0.00     0.000 C
ATOM     43  C3  IDS C   3     105.127  16.470  55.9190  0.00  0.00     0.000 C
ATOM     44  C4  IDS C   3     105.600  17.025  54.5840  0.00  0.00     0.000 C
ATOM     45  C5  IDS C   3     107.056  17.522  54.7080  0.00  0.00     0.000 C
ATOM     46  O5  IDS C   3     107.887  16.452  55.1640  0.00  0.00     0.000 O
ATOM     47   O  IDS C   3     104.943  17.534  56.8500  0.00  0.00     0.000 O
ATOM     49  HD  IDS C   3     104.816  16.722  56.5770  0.00  0.00     0.000 HD
BRANCH 42 49
ATOM     49   O  IDS C   3     106.060  14.224  55.6770  0.00  0.00     0.000 O
ATOM     50   S  IDS C   3     105.406  12.897  56.2910  0.00  0.00     0.000 S
ATOM     51   O  IDS C   3     103.993  13.203  56.3180  0.00  0.00     0.000 OA
ATOM     52   O  IDS C   3     105.952  12.659  57.6170  0.00  0.00     0.000 OA
ATOM     53   O  IDS C   3     105.733  11.830  55.3690  0.00  0.00     0.000 OA
ENDBRANCH 42 49
BRANCH 45 54
ATOM     54   C  IDS C   3     107.623  18.059  53.4030  0.00  0.00     0.000 C
ATOM     55   O  IDS C   3     108.650  17.607  52.9680  0.00  0.00     0.000 OA
ATOM     56   O  IDS C   3     107.046  18.952  52.8140  0.00  0.00     0.000 OA
ENDBRANCH 45 54
BRANCH 41 57
ATOM     57  O4  SGN C   4     107.626  16.866  57.5220  0.00  0.00     0.000 O
BRANCH 57 61
ATOM     58  C1  SGN C   4     110.570  19.147  59.4350  0.00  0.00     0.000 C
ATOM     59  C2  SGN C   4     110.109  19.634  58.0510  0.00  0.00     0.000 C
ATOM     60  C3  SGN C   4     108.778  18.982  57.6500  0.00  0.00     0.000 C
ATOM     61  C4  SGN C   4     108.903  17.471  57.7470  0.00  0.00     0.000 C
ATOM     62  C5  SGN C   4     109.393  17.062  59.1350  0.00  0.00     0.000 C
ATOM     63  O5  SGN C   4     110.629  17.728  59.4540  0.00  0.00     0.000 O
BRANCH 59 66
ATOM     64   N  SGN C   4     110.181  21.094  58.1640  0.00  0.00     0.000 N
ATOM     66  HD  SGN C   4     109.970  20.288  57.9280  0.00  0.00     0.000 HD
ATOM     66   O  SGN C   4     110.823  23.316  57.4000  0.00  0.00     0.000 OA
ATOM     67   O  SGN C   4     112.377  21.430  57.1330  0.00  0.00     0.000 OA
ATOM     68   S  SGN C   4     110.902  21.948  57.0130  0.00  0.00     0.000 S
ATOM     69   O  SGN C   4     110.372  21.547  55.7600  0.00  0.00     0.000 OA
ENDBRANCH 59 66
BRANCH 62 70
ATOM     70   C  SGN C   4     109.653  15.579  59.2160  0.00  0.00     0.000 C
ATOM     71   S  SGN C   4     110.847  13.633  58.0490  0.00  0.00     0.000 S
ATOM     72   O  SGN C   4     111.340  13.182  59.3360  0.00  0.00     0.000 OA
ATOM     73   O  SGN C   4     109.559  13.069  57.6980  0.00  0.00     0.000 OA
ATOM     74   O  SGN C   4     111.828  13.547  56.9920  0.00  0.00     0.000 OA
ATOM     75   O  SGN C   4     110.616  15.194  58.2280  0.00  0.00     0.000 O
ENDBRANCH 62 70
ENDBRANCH 57 61
ENDBRANCH 41 57
ENDBRANCH 40 44
ENDBRANCH 20 40
ENDBRANCH 19 23
ENDBRANCH 1 19
TORSDOF 14
ENDMDL
MODEL 100
REMARK VINA RESULT:      -0.0      6.733     11.116
ROOT
ATOM      1  C1  IDS C   1      20.394  10.201  41.2140  0.00  0.00     0.000 C
ATOM      2  C2  IDS C   1      20.385  11.712  41.0700  0.00  0.00     0.000 C
ATOM      3  C3  IDS C   1      19.438  12.347  42.0820  0.00  0.00     0.000 C
ATOM      4  C4  IDS C   1      19.721  11.841  43.4960  0.00  0.00     0.000 C
ATOM      5  C5  IDS C   1      19.800  10.301  43.5060  0.00  0.00     0.000 C
ATOM      6  O5  IDS C   1      20.750   9.844  42.5490  0.00  0.00     0.000 O
ATOM      7   O  IDS C   1      18.088  12.065  41.7110  0.00  0.00     0.000 O
ATOM      9  HD  IDS C   1      18.001  12.164  42.5670  0.00  0.00     0.000 HD
ATOM      9   O  IDS C   1      20.972  12.385  43.9450  0.00  0.00     0.000 O
ATOM     11  HD  IDS C   1      20.886  12.483  44.8010  0.00  0.00     0.000 HD
ENDROOT
BRANCH 2 11
ATOM     11   O  IDS C   1      21.739  12.256  41.3200  0.00  0.00     0.000 O
ATOM     12   S  IDS C   1      22.472  13.152  40.2180  0.00  0.00     0.000 S
ATOM     13   O  IDS C   1      23.214  14.091  41.0300  0.00  0.00     0.000 OA
ATOM     14   O  IDS C   1      21.481  13.789  39.3830  0.00  0.00     0.000 OA
ATOM     15   O  IDS C   1      23.311  12.227  39.4980  0.00  0.00     0.000 OA
ENDBRANCH 2 11
BRANCH 5 16
ATOM     16   C  IDS C   1      20.193   9.729  44.8560  0.00  0.00     0.000 C
ATOM     17   O  IDS C   1      20.544   8.570  44.9200  0.00  0.00     0.000 OA
ATOM     18   O  IDS C   1      20.144  10.403  45.8480  0.00  0.00     0.000 OA
ENDBRANCH 5 16
BRANCH 1 19
ATOM     19  O4  SGN C   2      19.403   9.491  40.6660  0.00  0.00     0.000 O
BRANCH 19 23
ATOM     20  C1  SGN C   2      18.448   6.079  38.4590  0.00  0.00     0.000 C
ATOM     21  C2  SGN C   2      18.834   5.859  39.9270  0.00  0.00     0.000 C
ATOM     22  C3  SGN C   2      18.725   7.176  40.6910  0.00  0.00     0.000 C
ATOM     23  C4  SGN C   2      19.600   8.231  40.0230  0.00  0.00     0.000 C
ATOM     24  C5  SGN C   2      19.233   8.348  38.5410  0.00  0.00     0.000 C
ATOM     25  O5  SGN C   2      19.320   7.055  37.9130  0.00  0.00     0.000 O
ATOM     26   O  SGN C   2      19.095   6.995  42.0530  0.00  0.00     0.000 O
ATOM     28  HD  SGN C   2      19.268   6.785  42.8750  0.00  0.00     0.000 HD
BRANCH 21 30
ATOM     28   N  SGN C   2      18.298   4.821  40.8170  0.00  0.00     0.000 N
ATOM     30  HD  SGN C   2      18.803   4.537  41.4600  0.00  0.00     0.000 HD
ATOM     30   S  SGN C   2      18.591   3.271  40.5540  0.00  0.00     0.000 S
ATOM     31   O  SGN C   2      20.008   3.167  40.4590  0.00  0.00     0.000 OA
ATOM     32   O  SGN C   2      17.889   2.510  41.5190  0.00  0.00     0.000 OA
ATOM     33   O  SGN C   2      17.917   2.986  39.1680  0.00  0.00     0.000 OA
ENDBRANCH 21 30
BRANCH 24 34
ATOM     34   C  SGN C   2      20.145   9.263  37.7600  0.00  0.00     0.000 C
ATOM     35   O  SGN C   2      19.424  10.458  37.4130  0.00  0.00     0.000 O
ATOM     36   S  SGN C   2      20.008  11.337  36.2150  0.00  0.00     0.000 S
ATOM     37   O  SGN C   2      20.141  10.409  35.1080  0.00  0.00     0.000 OA
ATOM     38   O  SGN C   2      19.032  12.374  35.9810  0.00  0.00     0.000 OA
ATOM     39   O  SGN C   2      21.266  11.826  36.7230  0.00  0.00     0.000 OA
ENDBRANCH 24 34
BRANCH 20 40
ATOM     40  O4  IDS C   3      17.189   6.421  38.1980  0.00  0.00     0.000 O
BRANCH 40 44
ATOM     41  C1  IDS C   3      13.709   6.278  37.6550  0.00  0.00     0.000 C
ATOM     42  C2  IDS C   3      14.504   5.041  38.0630  0.00  0.00     0.000 C
ATOM     43  C3  IDS C   3      15.700   4.848  37.1330  0.00  0.00     0.000 C
ATOM     44  C4  IDS C   3      16.505   6.129  36.9780  0.00  0.00     0.000 C
ATOM     45  C5  IDS C   3      15.566   7.299  36.6150  0.00  0.00     0.000 C
ATOM     46  O5  IDS C   3      14.553   7.425  37.6150  0.00  0.00     0.000 O
ATOM     47   O  IDS C   3      15.241   4.406  35.8580  0.00  0.00     0.000 O
ATOM     49  HD  IDS C   3      15.421   4.278  36.6950  0.00  0.00     0.000 HD
BRANCH 42 49
ATOM     49   O  IDS C   3      15.002   5.190  39.4500  0.00  0.00     0.000 O
ATOM     50   S  IDS C   3      14.321   4.350  40.6320  0.00  0.00     0.000 S
ATOM     51   O  IDS C   3      14.772   2.999  40.3840  0.00  0.00     0.000 OA
ATOM     52   O  IDS C   3      12.876   4.481  40.5470  0.00  0.00     0.000 OA
ATOM     53   O  IDS C   3      14.845   4.902  41.8640  0.00  0.00     0.000 OA
ENDBRANCH 42 49
BRANCH 45 54
ATOM     54   C  IDS C   3      16.287   8.631  36.4790  0.00  0.00     0.000 C
ATOM     55   O  IDS C   3      16.024   9.531  37.2330  0.00  0.00     0.000 OA
ATOM     56   O  IDS C   3      17.113   8.787  35.6010  0.00  0.00     0.000 OA
ENDBRANCH 45 54
BRANCH 41 57
ATOM     57  O4  SGN C   4      12.958   5.931  36.6030  0.00  0.00     0.000 O
BRANCH 57 61
ATOM     58  C1  SGN C   4       9.153   6.781  35.0770  0.00  0.00     0.000 C
ATOM     59  C2  SGN C   4      10.072   7.982  35.3510  0.00  0.00     0.000 C
ATOM     60  C3  SGN C   4      11.533   7.539  35.5040  0.00  0.00     0.000 C
ATOM     61  C4  SGN C   4      11.626   6.454  36.5640  0.00  0.00     0.000 C
ATOM     62  C5  SGN C   4      10.667   5.308  36.2440  0.00  0.00     0.000 C
ATOM     63  O5  SGN C   4       9.322   5.800  36.0900  0.00  0.00     0.000 O
BRANCH 59 66
ATOM     64   N  SGN C   4       9.724   8.927  34.2840  0.00  0.00     0.000 N
ATOM     66  HD  SGN C   4      10.142   8.491  34.9050  0.00  0.00     0.000 HD
ATOM     66   O  SGN C   4       9.114  11.122  33.4220  0.00  0.00     0.000 OA
ATOM     67   O  SGN C   4       8.145  10.321  35.5350  0.00  0.00     0.000 OA
ATOM     68   S  SGN C   4       9.427  10.462  34.6430  0.00  0.00     0.000 S
ATOM     69   O  SGN C   4      10.494  10.948  35.4430  0.00  0.00     0.000 OA
ENDBRANCH 59 66
BRANCH 62 70
ATOM     70   C  SGN C   4      10.642   4.282  37.3490  0.00  0.00     0.000 C
ATOM     71   S  SGN C   4      10.650   1.762  37.8160  0.00  0.00     0.000 S
ATOM     72   O  SGN C   4      11.646   1.971  38.8490  0.00  0.00     0.000 OA
ATOM     73   O  SGN C   4       9.289   1.860  38.3040  0.00  0.00     0.000 OA
ATOM     74   O  SGN C   4      10.895   0.591  37.0050  0.00  0.00     0.000 OA
ATOM     75   O  SGN C   4      10.851   2.972  36.8080  0.00  0.00     0.000 O
ENDBRANCH 62 70
ENDBRANCH 57 61
ENDBRANCH 41 57
ENDBRANCH 40 44
ENDBRANCH 20 40
ENDBRANCH 19 23
ENDBRANCH 1 19
TORSDOF 14
ENDMDL
