MODEL 1
REMARK VINA RESULT:      -8.0      0.000      0.000
ROOT
ATOM      1  C1  NGY C   1      15.587  30.049  20.2710  0.00  0.00     0.000 C
ATOM      2  C2  NGY C   1      15.677  31.538  19.9650  0.00  0.00     0.000 C
ATOM      3  C3  NGY C   1      14.538  32.287  20.6480  0.00  0.00     0.000 C
ATOM      4  C4  NGY C   1      13.228  31.648  20.2290  0.00  0.00     0.000 C
ATOM      5  C5  NGY C   1      13.235  30.186  20.6650  0.00  0.00     0.000 C
ATOM      6  O5  NGY C   1      14.317  29.510  19.9740  0.00  0.00     0.000 O
ATOM      7   O  NGY C   1      14.601  33.660  20.2890  0.00  0.00     0.000 O
ATOM      9  HD  NGY C   1      14.806  34.127  19.5890  0.00  0.00     0.000 HD
ATOM      9   O  NGY C   1      12.123  32.326  20.8080  0.00  0.00     0.000 O
ATOM     11  HD  NGY C   1      12.328  32.792  20.1080  0.00  0.00     0.000 HD
ENDROOT
BRANCH 2 13
ATOM     11   N  NGY C   1      16.387  32.777  19.7510  0.00  0.00     0.000 N
ATOM     13  HD  NGY C   1      17.193  32.463  19.6990  0.00  0.00     0.000 HD
ATOM     13   C  NGY C   1      17.711  32.807  19.6080  0.00  0.00     0.000 C
ATOM     14   O  NGY C   1      18.395  31.799  19.7940  0.00  0.00     0.000 OA
ATOM     15   C  NGY C   1      18.313  34.112  19.1850  0.00  0.00     0.000 C
ENDBRANCH 2 13
BRANCH 5 16
ATOM     16   C  NGY C   1      11.998  29.417  20.3290  0.00  0.00     0.000 C
ATOM     17   O  NGY C   1      11.829  25.754  20.2140  0.00  0.00     0.000 OA
ATOM     18   O  NGY C   1      12.343  28.038  20.1660  0.00  0.00     0.000 O
ATOM     19   S  NGY C   1      11.148  27.023  20.2550  0.00  0.00     0.000 S
ATOM     20   O  NGY C   1      10.320  27.238  19.0970  0.00  0.00     0.000 OA
ATOM     21   O  NGY C   1      10.486  27.344  21.5090  0.00  0.00     0.000 OA
ENDBRANCH 5 16
BRANCH 1 22
ATOM     22  O4  BDP C   2      15.950  29.847  21.5550  0.00  0.00     0.000 O
BRANCH 22 26
ATOM     23  C1  BDP C   2      17.709  27.560  24.4950  0.00  0.00     0.000 C
ATOM     24  C2  BDP C   2      18.590  27.888  23.3130  0.00  0.00     0.000 C
ATOM     25  C3  BDP C   2      17.969  29.004  22.5140  0.00  0.00     0.000 C
ATOM     26  C4  BDP C   2      16.529  28.655  22.1490  0.00  0.00     0.000 C
ATOM     27  C5  BDP C   2      15.786  28.171  23.3870  0.00  0.00     0.000 C
ATOM     28  O5  BDP C   2      16.434  27.040  24.0240  0.00  0.00     0.000 O
ATOM     29   O  BDP C   2      19.854  28.421  23.7080  0.00  0.00     0.000 O
ATOM     31  HD  BDP C   2      20.192  29.035  23.1990  0.00  0.00     0.000 HD
ATOM     31   O  BDP C   2      18.749  29.153  21.3340  0.00  0.00     0.000 O
ATOM     33  HD  BDP C   2      19.087  29.767  20.8260  0.00  0.00     0.000 HD
BRANCH 27 33
ATOM     33   C  BDP C   2      14.380  27.716  23.0750  0.00  0.00     0.000 C
ATOM     34   O  BDP C   2      13.372  28.332  23.4960  0.00  0.00     0.000 OA
ATOM     35   O  BDP C   2      14.232  26.697  22.4210  0.00  0.00     0.000 OA
ENDBRANCH 27 33
BRANCH 23 36
ATOM     36  O4  SGN C   3      18.221  26.660  25.3660  0.00  0.00     0.000 O
BRANCH 36 40
ATOM     37  C1  SGN C   3      18.579  25.582  29.3840  0.00  0.00     0.000 C
ATOM     38  C2  SGN C   3      17.163  25.793  28.8250  0.00  0.00     0.000 C
ATOM     39  C3  SGN C   3      17.178  25.743  27.3040  0.00  0.00     0.000 C
ATOM     40  C4  SGN C   3      18.161  26.773  26.7910  0.00  0.00     0.000 C
ATOM     41  C5  SGN C   3      19.516  26.504  27.4070  0.00  0.00     0.000 C
ATOM     42  O5  SGN C   3      19.422  26.584  28.8380  0.00  0.00     0.000 O
ATOM     43   O  SGN C   3      15.868  26.000  26.8140  0.00  0.00     0.000 O
ATOM     45  HD  SGN C   3      16.456  26.244  26.2260  0.00  0.00     0.000 HD
BRANCH 38 47
ATOM     45   N  SGN C   3      16.552  26.224  30.0950  0.00  0.00     0.000 N
ATOM     47  HD  SGN C   3      16.934  26.440  29.3480  0.00  0.00     0.000 HD
ATOM     47   S  SGN C   3      15.739  25.051  30.7940  0.00  0.00     0.000 S
ATOM     48   O  SGN C   3      14.603  24.678  30.0270  0.00  0.00     0.000 OA
ATOM     49   O  SGN C   3      16.680  24.020  31.0870  0.00  0.00     0.000 OA
ATOM     50   O  SGN C   3      15.261  25.705  32.0110  0.00  0.00     0.000 OA
ENDBRANCH 38 47
BRANCH 41 51
ATOM     51   C  SGN C   3      20.591  27.462  26.9720  0.00  0.00     0.000 C
ATOM     52   O  SGN C   3      21.022  31.005  28.0380  0.00  0.00     0.000 OA
ATOM     53   O  SGN C   3      22.679  29.366  27.4930  0.00  0.00     0.000 OA
ATOM     54   O  SGN C   3      21.151  30.155  25.8170  0.00  0.00     0.000 OA
ATOM     55   O  SGN C   3      20.415  28.684  27.6520  0.00  0.00     0.000 O
ATOM     56   S  SGN C   3      21.410  29.917  27.2070  0.00  0.00     0.000 S
ENDBRANCH 41 51
BRANCH 37 57
ATOM     57  O4  IDS C   4      19.123  24.372  29.1030  0.00  0.00     0.000 O
BRANCH 57 61
ATOM     58  C1  IDS C   4      21.355  21.573  30.3900  0.00  0.00     0.000 C
ATOM     59  C2  IDS C   4      20.637  22.433  31.3820  0.00  0.00     0.000 C
ATOM     60  C3  IDS C   4      20.619  23.910  30.9810  0.00  0.00     0.000 C
ATOM     61  C4  IDS C   4      20.501  24.210  29.4930  0.00  0.00     0.000 C
ATOM     62  C5  IDS C   4      21.180  23.116  28.6620  0.00  0.00     0.000 C
ATOM     63  O5  IDS C   4      20.814  21.816  29.1020  0.00  0.00     0.000 O
ATOM     64   O  IDS C   4      21.848  24.437  31.4450  0.00  0.00     0.000 O
ATOM     66  HD  IDS C   4      22.353  24.661  30.7780  0.00  0.00     0.000 HD
BRANCH 59 66
ATOM     66   O  IDS C   4      19.228  22.023  31.5350  0.00  0.00     0.000 O
ATOM     67   S  IDS C   4      18.820  21.392  32.9370  0.00  0.00     0.000 S
ATOM     68   O  IDS C   4      19.006  22.488  33.8580  0.00  0.00     0.000 OA
ATOM     69   O  IDS C   4      17.445  20.964  32.7680  0.00  0.00     0.000 OA
ATOM     70   O  IDS C   4      19.746  20.303  33.2050  0.00  0.00     0.000 OA
ENDBRANCH 59 66
BRANCH 62 71
ATOM     71   C  IDS C   4      20.809  23.168  27.1920  0.00  0.00     0.000 C
ATOM     72   O  IDS C   4      19.954  22.425  26.7510  0.00  0.00     0.000 OA
ATOM     73   O  IDS C   4      21.470  23.911  26.4390  0.00  0.00     0.000 OA
ENDBRANCH 62 71
BRANCH 58 74
ATOM     74  O4  SGN C   5      22.709  21.523  30.5450  0.00  0.00     0.000 O
BRANCH 74 78
ATOM     75  C1  SGN C   5      26.211  19.380  29.7790  0.00  0.00     0.000 C
ATOM     76  C2  SGN C   5      25.730  20.315  28.6520  0.00  0.00     0.000 C
ATOM     77  C3  SGN C   5      24.659  21.283  29.1710  0.00  0.00     0.000 C
ATOM     78  C4  SGN C   5      23.581  20.555  29.9630  0.00  0.00     0.000 C
ATOM     79  C5  SGN C   5      24.233  19.703  31.0430  0.00  0.00     0.000 C
ATOM     80  O5  SGN C   5      25.122  18.735  30.4260  0.00  0.00     0.000 O
ATOM     81   O  SGN C   5      24.086  21.973  28.0650  0.00  0.00     0.000 O
ATOM     83  HD  SGN C   5      24.563  22.216  27.3840  0.00  0.00     0.000 HD
BRANCH 76 85
ATOM     83   N  SGN C   5      27.090  20.040  28.1710  0.00  0.00     0.000 N
ATOM     85  HD  SGN C   5      27.861  20.291  27.8680  0.00  0.00     0.000 HD
ATOM     85   S  SGN C   5      27.899  20.715  26.9530  0.00  0.00     0.000 S
ATOM     86   O  SGN C   5      29.212  20.175  26.8690  0.00  0.00     0.000 OA
ATOM     87   O  SGN C   5      27.082  20.608  25.7970  0.00  0.00     0.000 OA
ATOM     88   O  SGN C   5      27.934  22.125  27.5370  0.00  0.00     0.000 OA
ENDBRANCH 76 85
BRANCH 79 89
ATOM     89   C  SGN C   5      23.237  18.954  31.9040  0.00  0.00     0.000 C
ATOM     90   O  SGN C   5      23.355  17.530  31.6640  0.00  0.00     0.000 O
ATOM     91   S  SGN C   5      23.030  16.562  32.9020  0.00  0.00     0.000 S
ATOM     92   O  SGN C   5      23.837  17.022  34.0020  0.00  0.00     0.000 OA
ATOM     93   O  SGN C   5      21.619  16.675  33.1690  0.00  0.00     0.000 OA
ATOM     94   O  SGN C   5      23.412  15.264  32.4150  0.00  0.00     0.000 OA
ENDBRANCH 79 89
BRANCH 75 95
ATOM     95  O4  BDP C   6      26.866  20.180  30.6710  0.00  0.00     0.000 O
BRANCH 95 99
ATOM     96  C1  BDP C   6      30.067  19.304  33.3980  0.00  0.00     0.000 C
ATOM     97  C2  BDP C   6      30.055  18.626  32.0580  0.00  0.00     0.000 C
ATOM     98  C3  BDP C   6      29.117  19.274  31.0280  0.00  0.00     0.000 C
ATOM     99  C4  BDP C   6      27.737  19.523  31.6180  0.00  0.00     0.000 C
ATOM    100  C5  BDP C   6      27.920  20.255  32.9680  0.00  0.00     0.000 C
ATOM    101  O5  BDP C   6      28.696  19.331  33.7490  0.00  0.00     0.000 O
BRANCH 100 102
ATOM    102   C  BDP C   6      26.614  20.487  33.6850  0.00  0.00     0.000 C
ATOM    103   O  BDP C   6      26.019  19.581  34.2870  0.00  0.00     0.000 OA
ATOM    104   O  BDP C   6      26.159  21.636  33.6600  0.00  0.00     0.000 OA
ENDBRANCH 100 102
ENDBRANCH 95 99
ENDBRANCH 75 95
ENDBRANCH 74 78
ENDBRANCH 58 74
ENDBRANCH 57 61
ENDBRANCH 37 57
ENDBRANCH 36 40
ENDBRANCH 23 36
ENDBRANCH 22 26
ENDBRANCH 1 22
TORSDOF 20
ENDMDL
MODEL 2
REMARK VINA RESULT:      -7.9      2.617      3.472
ROOT
ATOM      1  C1  NGY C   1      15.712  29.991  20.3150  0.00  0.00     0.000 C
ATOM      2  C2  NGY C   1      15.809  31.465  19.9470  0.00  0.00     0.000 C
ATOM      3  C3  NGY C   1      14.631  32.235  20.5360  0.00  0.00     0.000 C
ATOM      4  C4  NGY C   1      13.349  31.566  20.0800  0.00  0.00     0.000 C
ATOM      5  C5  NGY C   1      13.342  30.125  20.5820  0.00  0.00     0.000 C
ATOM      6  O5  NGY C   1      14.462  29.427  19.9780  0.00  0.00     0.000 O
ATOM      7   O  NGY C   1      14.704  33.590  20.1190  0.00  0.00     0.000 O
ATOM      9  HD  NGY C   1      14.941  34.027  19.4090  0.00  0.00     0.000 HD
ATOM      9   O  NGY C   1      12.211  32.259  20.5710  0.00  0.00     0.000 O
ATOM     11  HD  NGY C   1      12.448  32.696  19.8610  0.00  0.00     0.000 HD
ENDROOT
BRANCH 2 13
ATOM     11   N  NGY C   1      16.812  32.084  19.1130  0.00  0.00     0.000 N
ATOM     13  HD  NGY C   1      17.324  32.404  19.7340  0.00  0.00     0.000 HD
ATOM     13   C  NGY C   1      17.850  32.734  19.6360  0.00  0.00     0.000 C
ATOM     14   O  NGY C   1      17.920  32.954  20.8470  0.00  0.00     0.000 OA
ATOM     15   C  NGY C   1      18.931  33.152  18.6860  0.00  0.00     0.000 C
ENDBRANCH 2 13
BRANCH 5 16
ATOM     16   C  NGY C   1      12.129  29.331  20.2190  0.00  0.00     0.000 C
ATOM     17   O  NGY C   1      12.051  25.667  20.0490  0.00  0.00     0.000 OA
ATOM     18   O  NGY C   1      12.510  27.964  20.0400  0.00  0.00     0.000 O
ATOM     19   S  NGY C   1      11.339  26.918  20.0990  0.00  0.00     0.000 S
ATOM     20   O  NGY C   1      10.521  27.130  18.9330  0.00  0.00     0.000 OA
ATOM     21   O  NGY C   1      10.654  27.205  21.3480  0.00  0.00     0.000 OA
ENDBRANCH 5 16
BRANCH 1 22
ATOM     22  O4  BDP C   2      16.010  29.850  21.6240  0.00  0.00     0.000 O
BRANCH 22 26
ATOM     23  C1  BDP C   2      17.504  27.661  24.7770  0.00  0.00     0.000 C
ATOM     24  C2  BDP C   2      18.469  27.906  23.6410  0.00  0.00     0.000 C
ATOM     25  C3  BDP C   2      17.936  28.998  22.7510  0.00  0.00     0.000 C
ATOM     26  C4  BDP C   2      16.512  28.673  22.3110  0.00  0.00     0.000 C
ATOM     27  C5  BDP C   2      15.676  28.272  23.5190  0.00  0.00     0.000 C
ATOM     28  O5  BDP C   2      16.246  27.155  24.2490  0.00  0.00     0.000 O
ATOM     29   O  BDP C   2      19.722  28.421  24.0920  0.00  0.00     0.000 O
ATOM     31  HD  BDP C   2      20.111  29.000  23.5780  0.00  0.00     0.000 HD
ATOM     31   O  BDP C   2      18.794  29.066  21.6200  0.00  0.00     0.000 O
ATOM     33  HD  BDP C   2      19.183  29.644  21.1060  0.00  0.00     0.000 HD
BRANCH 27 33
ATOM     33   C  BDP C   2      14.280  27.842  23.1380  0.00  0.00     0.000 C
ATOM     34   O  BDP C   2      13.267  28.506  23.4640  0.00  0.00     0.000 OA
ATOM     35   O  BDP C   2      14.142  26.797  22.5230  0.00  0.00     0.000 OA
ENDBRANCH 27 33
BRANCH 23 36
ATOM     36  O4  SGN C   3      17.931  26.792  25.7220  0.00  0.00     0.000 O
BRANCH 36 40
ATOM     37  C1  SGN C   3      17.569  25.660  29.7240  0.00  0.00     0.000 C
ATOM     38  C2  SGN C   3      16.277  25.963  28.9480  0.00  0.00     0.000 C
ATOM     39  C3  SGN C   3      16.535  25.925  27.4490  0.00  0.00     0.000 C
ATOM     40  C4  SGN C   3      17.648  26.897  27.1200  0.00  0.00     0.000 C
ATOM     41  C5  SGN C   3      18.867  26.539  27.9420  0.00  0.00     0.000 C
ATOM     42  O5  SGN C   3      18.548  26.613  29.3400  0.00  0.00     0.000 O
ATOM     43   O  SGN C   3      15.340  26.267  26.7590  0.00  0.00     0.000 O
ATOM     45  HD  SGN C   3      16.029  26.479  26.2790  0.00  0.00     0.000 HD
BRANCH 38 47
ATOM     45   N  SGN C   3      15.967  25.874  30.3870  0.00  0.00     0.000 N
ATOM     47  HD  SGN C   3      16.477  26.184  29.7590  0.00  0.00     0.000 HD
ATOM     47   S  SGN C   3      14.511  25.294  30.6490  0.00  0.00     0.000 S
ATOM     48   O  SGN C   3      13.507  26.183  30.1820  0.00  0.00     0.000 OA
ATOM     49   O  SGN C   3      14.495  23.972  30.1130  0.00  0.00     0.000 OA
ATOM     50   O  SGN C   3      14.454  25.283  32.1090  0.00  0.00     0.000 OA
ENDBRANCH 38 47
BRANCH 41 51
ATOM     51   C  SGN C   3      20.054  27.432  27.7040  0.00  0.00     0.000 C
ATOM     52   O  SGN C   3      23.071  26.674  25.6540  0.00  0.00     0.000 OA
ATOM     53   O  SGN C   3      21.949  28.760  26.0010  0.00  0.00     0.000 OA
ATOM     54   O  SGN C   3      23.027  27.639  27.8310  0.00  0.00     0.000 OA
ATOM     55   O  SGN C   3      20.947  26.779  26.8290  0.00  0.00     0.000 O
ATOM     56   S  SGN C   3      22.383  27.535  26.5550  0.00  0.00     0.000 S
ENDBRANCH 41 51
BRANCH 37 57
ATOM     57  O4  IDS C   4      18.078  24.422  29.5140  0.00  0.00     0.000 O
BRANCH 57 61
ATOM     58  C1  IDS C   4      18.891  21.530  31.8480  0.00  0.00     0.000 C
ATOM     59  C2  IDS C   4      18.173  22.720  32.4010  0.00  0.00     0.000 C
ATOM     60  C3  IDS C   4      18.705  24.043  31.8460  0.00  0.00     0.000 C
ATOM     61  C4  IDS C   4      19.155  24.040  30.3910  0.00  0.00     0.000 C
ATOM     62  C5  IDS C   4      19.720  22.669  30.0010  0.00  0.00     0.000 C
ATOM     63  O5  IDS C   4      18.879  21.610  30.4330  0.00  0.00     0.000 O
ATOM     64   O  IDS C   4      19.820  24.366  32.6560  0.00  0.00     0.000 O
ATOM     66  HD  IDS C   4      20.552  24.324  32.1950  0.00  0.00     0.000 HD
BRANCH 59 66
ATOM     66   O  IDS C   4      16.733  22.681  32.0830  0.00  0.00     0.000 O
ATOM     67   S  IDS C   4      15.772  22.094  33.2070  0.00  0.00     0.000 S
ATOM     68   O  IDS C   4      15.905  23.046  34.2830  0.00  0.00     0.000 OA
ATOM     69   O  IDS C   4      14.461  22.047  32.5900  0.00  0.00     0.000 OA
ATOM     70   O  IDS C   4      16.294  20.788  33.5800  0.00  0.00     0.000 OA
ENDBRANCH 59 66
BRANCH 62 71
ATOM     71   C  IDS C   4      19.865  22.491  28.5010  0.00  0.00     0.000 C
ATOM     72   O  IDS C   4      20.622  23.205  27.8720  0.00  0.00     0.000 OA
ATOM     73   O  IDS C   4      19.119  21.675  27.9260  0.00  0.00     0.000 OA
ENDBRANCH 62 71
BRANCH 58 74
ATOM     74  O4  SGN C   5      20.052  21.210  32.4870  0.00  0.00     0.000 O
BRANCH 74 78
ATOM     75  C1  SGN C   5      22.489  18.157  33.9650  0.00  0.00     0.000 C
ATOM     76  C2  SGN C   5      22.436  18.296  32.4320  0.00  0.00     0.000 C
ATOM     77  C3  SGN C   5      21.801  19.635  32.0310  0.00  0.00     0.000 C
ATOM     78  C4  SGN C   5      20.505  19.890  32.7870  0.00  0.00     0.000 C
ATOM     79  C5  SGN C   5      20.749  19.734  34.2810  0.00  0.00     0.000 C
ATOM     80  O5  SGN C   5      21.218  18.388  34.5580  0.00  0.00     0.000 O
ATOM     81   O  SGN C   5      21.569  19.633  30.6260  0.00  0.00     0.000 O
ATOM     83  HD  SGN C   5      22.122  19.259  30.0740  0.00  0.00     0.000 HD
BRANCH 76 85
ATOM     83   N  SGN C   5      23.358  17.156  32.3660  0.00  0.00     0.000 N
ATOM     85  HD  SGN C   5      24.150  16.814  32.2920  0.00  0.00     0.000 HD
ATOM     85   S  SGN C   5      24.641  16.932  31.4180  0.00  0.00     0.000 S
ATOM     86   O  SGN C   5      25.276  15.697  31.7250  0.00  0.00     0.000 OA
ATOM     87   O  SGN C   5      24.211  17.121  30.0790  0.00  0.00     0.000 OA
ATOM     88   O  SGN C   5      25.455  18.104  31.9600  0.00  0.00     0.000 OA
ENDBRANCH 76 85
BRANCH 79 89
ATOM     89   C  SGN C   5      19.518  19.993  35.1240  0.00  0.00     0.000 C
ATOM     90   O  SGN C   5      19.093  18.763  35.7610  0.00  0.00     0.000 O
ATOM     91   S  SGN C   5      18.386  18.901  37.1960  0.00  0.00     0.000 S
ATOM     92   O  SGN C   5      19.274  19.686  38.0120  0.00  0.00     0.000 OA
ATOM     93   O  SGN C   5      17.117  19.548  36.9820  0.00  0.00     0.000 OA
ATOM     94   O  SGN C   5      18.261  17.537  37.6350  0.00  0.00     0.000 OA
ENDBRANCH 79 89
BRANCH 75 95
ATOM     95  O4  BDP C   6      23.374  19.105  34.3940  0.00  0.00     0.000 O
BRANCH 95 99
ATOM     96  C1  BDP C   6      26.159  19.019  37.6630  0.00  0.00     0.000 C
ATOM     97  C2  BDP C   6      25.850  17.736  36.9450  0.00  0.00     0.000 C
ATOM     98  C3  BDP C   6      25.164  17.921  35.5830  0.00  0.00     0.000 C
ATOM     99  C4  BDP C   6      23.991  18.885  35.6810  0.00  0.00     0.000 C
ATOM    100  C5  BDP C   6      24.479  20.160  36.4090  0.00  0.00     0.000 C
ATOM    101  O5  BDP C   6      24.904  19.673  37.6920  0.00  0.00     0.000 O
BRANCH 100 102
ATOM    102   C  BDP C   6      23.374  21.160  36.6340  0.00  0.00     0.000 C
ATOM    103   O  BDP C   6      22.381  20.904  37.3310  0.00  0.00     0.000 OA
ATOM    104   O  BDP C   6      23.504  22.267  36.0980  0.00  0.00     0.000 OA
ENDBRANCH 100 102
ENDBRANCH 95 99
ENDBRANCH 75 95
ENDBRANCH 74 78
ENDBRANCH 58 74
ENDBRANCH 57 61
ENDBRANCH 37 57
ENDBRANCH 36 40
ENDBRANCH 23 36
ENDBRANCH 22 26
ENDBRANCH 1 22
TORSDOF 20
ENDMDL
MODEL 3
REMARK VINA RESULT:      -7.9      6.560     19.170
ROOT
ATOM      1  C1  NGY C   1      30.856   8.085  33.1110  0.00  0.00     0.000 C
ATOM      2  C2  NGY C   1      31.362   7.597  34.4610  0.00  0.00     0.000 C
ATOM      3  C3  NGY C   1      32.863   7.840  34.5820  0.00  0.00     0.000 C
ATOM      4  C4  NGY C   1      33.547   7.191  33.3940  0.00  0.00     0.000 C
ATOM      5  C5  NGY C   1      33.011   7.824  32.1130  0.00  0.00     0.000 C
ATOM      6  O5  NGY C   1      31.588   7.548  32.0300  0.00  0.00     0.000 O
ATOM      7   O  NGY C   1      33.324   7.312  35.8170  0.00  0.00     0.000 O
ATOM      9  HD  NGY C   1      33.153   6.629  36.3220  0.00  0.00     0.000 HD
ATOM      9   O  NGY C   1      34.956   7.354  33.4660  0.00  0.00     0.000 O
ATOM     11  HD  NGY C   1      34.785   6.671  33.9710  0.00  0.00     0.000 HD
ENDROOT
BRANCH 2 13
ATOM     11   N  NGY C   1      31.135   7.142  35.8130  0.00  0.00     0.000 N
ATOM     13  HD  NGY C   1      30.431   7.612  35.9960  0.00  0.00     0.000 HD
ATOM     13   C  NGY C   1      30.122   7.603  36.5440  0.00  0.00     0.000 C
ATOM     14   O  NGY C   1      29.425   8.540  36.1480  0.00  0.00     0.000 OA
ATOM     15   C  NGY C   1      29.862   6.910  37.8460  0.00  0.00     0.000 C
ENDBRANCH 2 13
BRANCH 5 16
ATOM     16   C  NGY C   1      33.600   7.292  30.8460  0.00  0.00     0.000 C
ATOM     17   O  NGY C   1      32.601   8.404  27.4960  0.00  0.00     0.000 OA
ATOM     18   O  NGY C   1      32.834   7.782  29.7420  0.00  0.00     0.000 O
ATOM     19   S  NGY C   1      33.540   7.709  28.3400  0.00  0.00     0.000 S
ATOM     20   O  NGY C   1      33.661   6.317  27.9960  0.00  0.00     0.000 OA
ATOM     21   O  NGY C   1      34.819   8.371  28.5390  0.00  0.00     0.000 OA
ENDBRANCH 5 16
BRANCH 1 22
ATOM     22  O4  BDP C   2      30.846   9.435  33.1120  0.00  0.00     0.000 O
BRANCH 22 26
ATOM     23  C1  BDP C   2      29.067  13.001  32.0740  0.00  0.00     0.000 C
ATOM     24  C2  BDP C   2      28.136  11.946  32.6230  0.00  0.00     0.000 C
ATOM     25  C3  BDP C   2      28.939  10.861  33.2910  0.00  0.00     0.000 C
ATOM     26  C4  BDP C   2      30.003  10.328  32.3380  0.00  0.00     0.000 C
ATOM     27  C5  BDP C   2      30.764  11.490  31.7120  0.00  0.00     0.000 C
ATOM     28  O5  BDP C   2      29.894  12.425  31.0240  0.00  0.00     0.000 O
ATOM     29   O  BDP C   2      27.306  12.445  33.6720  0.00  0.00     0.000 O
ATOM     31  HD  BDP C   2      27.125  11.896  34.3180  0.00  0.00     0.000 HD
ATOM     31   O  BDP C   2      28.028   9.825  33.6350  0.00  0.00     0.000 O
ATOM     33  HD  BDP C   2      27.848   9.276  34.2810  0.00  0.00     0.000 HD
BRANCH 27 33
ATOM     33   C  BDP C   2      31.769  11.033  30.6810  0.00  0.00     0.000 C
ATOM     34   O  BDP C   2      33.001  11.010  30.9180  0.00  0.00     0.000 OA
ATOM     35   O  BDP C   2      31.363  10.711  29.5770  0.00  0.00     0.000 OA
ENDBRANCH 27 33
BRANCH 23 36
ATOM     36  O4  SGN C   3      28.462  14.098  31.5630  0.00  0.00     0.000 O
BRANCH 36 40
ATOM     37  C1  SGN C   3      28.433  18.270  31.4050  0.00  0.00     0.000 C
ATOM     38  C2  SGN C   3      29.626  17.540  30.7690  0.00  0.00     0.000 C
ATOM     39  C3  SGN C   3      29.285  16.078  30.5210  0.00  0.00     0.000 C
ATOM     40  C4  SGN C   3      28.853  15.448  31.8270  0.00  0.00     0.000 C
ATOM     41  C5  SGN C   3      27.694  16.241  32.3910  0.00  0.00     0.000 C
ATOM     42  O5  SGN C   3      28.099  17.601  32.6120  0.00  0.00     0.000 O
ATOM     43   O  SGN C   3      30.424  15.414  29.9880  0.00  0.00     0.000 O
ATOM     45  HD  SGN C   3      29.927  14.849  30.4160  0.00  0.00     0.000 HD
BRANCH 38 47
ATOM     45   N  SGN C   3      30.246  18.856  31.0070  0.00  0.00     0.000 N
ATOM     47  HD  SGN C   3      29.924  18.121  31.3340  0.00  0.00     0.000 HD
ATOM     47   S  SGN C   3      30.864  19.474  29.6800  0.00  0.00     0.000 S
ATOM     48   O  SGN C   3      31.964  18.705  29.2140  0.00  0.00     0.000 OA
ATOM     49   O  SGN C   3      29.780  19.657  28.7710  0.00  0.00     0.000 OA
ATOM     50   O  SGN C   3      31.385  20.752  30.1610  0.00  0.00     0.000 OA
ENDBRANCH 38 47
BRANCH 41 51
ATOM     51   C  SGN C   3      27.164  15.713  33.6960  0.00  0.00     0.000 C
ATOM     52   O  SGN C   3      28.739  16.017  37.0590  0.00  0.00     0.000 OA
ATOM     53   O  SGN C   3      26.422  16.003  36.4570  0.00  0.00     0.000 OA
ATOM     54   O  SGN C   3      27.783  14.058  36.1000  0.00  0.00     0.000 OA
ATOM     55   O  SGN C   3      28.044  16.090  34.7320  0.00  0.00     0.000 O
ATOM     56   S  SGN C   3      27.715  15.484  36.2260  0.00  0.00     0.000 S
ENDBRANCH 41 51
BRANCH 37 57
ATOM     57  O4  IDS C   4      27.322  18.323  30.6290  0.00  0.00     0.000 O
BRANCH 57 61
ATOM     58  C1  IDS C   4      24.592  20.324  28.8940  0.00  0.00     0.000 C
ATOM     59  C2  IDS C   4      25.980  20.881  28.9270  0.00  0.00     0.000 C
ATOM     60  C3  IDS C   4      26.677  20.653  30.2710  0.00  0.00     0.000 C
ATOM     61  C4  IDS C   4      26.370  19.344  30.9840  0.00  0.00     0.000 C
ATOM     62  C5  IDS C   4      24.938  18.885  30.6850  0.00  0.00     0.000 C
ATOM     63  O5  IDS C   4      24.637  18.966  29.2990  0.00  0.00     0.000 O
ATOM     64   O  IDS C   4      26.252  21.721  31.0970  0.00  0.00     0.000 O
ATOM     66  HD  IDS C   4      25.756  21.426  31.7430  0.00  0.00     0.000 HD
BRANCH 59 66
ATOM     66   O  IDS C   4      26.838  20.261  27.9000  0.00  0.00     0.000 O
ATOM     67   S  IDS C   4      27.288  21.193  26.6920  0.00  0.00     0.000 S
ATOM     68   O  IDS C   4      28.112  22.189  27.3340  0.00  0.00     0.000 OA
ATOM     69   O  IDS C   4      27.992  20.312  25.7820  0.00  0.00     0.000 OA
ATOM     70   O  IDS C   4      26.081  21.778  26.1270  0.00  0.00     0.000 OA
ENDBRANCH 59 66
BRANCH 62 71
ATOM     71   C  IDS C   4      24.682  17.441  31.0740  0.00  0.00     0.000 C
ATOM     72   O  IDS C   4      24.454  17.153  32.2330  0.00  0.00     0.000 OA
ATOM     73   O  IDS C   4      24.816  16.559  30.2030  0.00  0.00     0.000 OA
ENDBRANCH 62 71
BRANCH 58 74
ATOM     74  O4  SGN C   5      23.631  21.142  29.4110  0.00  0.00     0.000 O
BRANCH 74 78
ATOM     75  C1  SGN C   5      19.668  22.358  28.9030  0.00  0.00     0.000 C
ATOM     76  C2  SGN C   5      19.964  21.528  30.1670  0.00  0.00     0.000 C
ATOM     77  C3  SGN C   5      21.475  21.439  30.4160  0.00  0.00     0.000 C
ATOM     78  C4  SGN C   5      22.231  21.053  29.1520  0.00  0.00     0.000 C
ATOM     79  C5  SGN C   5      21.836  21.990  28.0200  0.00  0.00     0.000 C
ATOM     80  O5  SGN C   5      20.407  21.889  27.7830  0.00  0.00     0.000 O
ATOM     81   O  SGN C   5      21.717  20.492  31.4520  0.00  0.00     0.000 O
ATOM     83  HD  SGN C   5      21.184  20.414  32.1300  0.00  0.00     0.000 HD
BRANCH 76 85
ATOM     83   N  SGN C   5      19.119  22.352  31.0400  0.00  0.00     0.000 N
ATOM     85  HD  SGN C   5      18.664  22.483  31.7650  0.00  0.00     0.000 HD
ATOM     85   S  SGN C   5      17.833  21.930  31.9140  0.00  0.00     0.000 S
ATOM     86   O  SGN C   5      17.346  23.044  32.6520  0.00  0.00     0.000 OA
ATOM     87   O  SGN C   5      16.922  21.288  31.0360  0.00  0.00     0.000 OA
ATOM     88   O  SGN C   5      18.570  20.958  32.8330  0.00  0.00     0.000 OA
ENDBRANCH 76 85
BRANCH 79 89
ATOM     89   C  SGN C   5      22.556  21.701  26.7180  0.00  0.00     0.000 C
ATOM     90   O  SGN C   5      22.141  20.411  26.2050  0.00  0.00     0.000 O
ATOM     91   S  SGN C   5      22.128  20.241  24.6090  0.00  0.00     0.000 S
ATOM     92   O  SGN C   5      21.350  21.336  24.0900  0.00  0.00     0.000 OA
ATOM     93   O  SGN C   5      23.498  20.280  24.1670  0.00  0.00     0.000 OA
ATOM     94   O  SGN C   5      21.507  18.958  24.4190  0.00  0.00     0.000 OA
ENDBRANCH 79 89
BRANCH 75 95
ATOM     95  O4  BDP C   6      20.048  23.636  29.2000  0.00  0.00     0.000 O
BRANCH 95 99
ATOM     96  C1  BDP C   6      18.585  27.419  27.7890  0.00  0.00     0.000 C
ATOM     97  C2  BDP C   6      17.598  26.316  28.0490  0.00  0.00     0.000 C
ATOM     98  C3  BDP C   6      18.150  25.160  28.8970  0.00  0.00     0.000 C
ATOM     99  C4  BDP C   6      19.499  24.687  28.3760  0.00  0.00     0.000 C
ATOM    100  C5  BDP C   6      20.404  25.929  28.1960  0.00  0.00     0.000 C
ATOM    101  O5  BDP C   6      19.691  26.728  27.2390  0.00  0.00     0.000 O
BRANCH 100 102
ATOM    102   C  BDP C   6      21.749  25.588  27.6070  0.00  0.00     0.000 C
ATOM    103   O  BDP C   6      22.784  25.565  28.2890  0.00  0.00     0.000 OA
ATOM    104   O  BDP C   6      21.778  25.316  26.4010  0.00  0.00     0.000 OA
ENDBRANCH 100 102
ENDBRANCH 95 99
ENDBRANCH 75 95
ENDBRANCH 74 78
ENDBRANCH 58 74
ENDBRANCH 57 61
ENDBRANCH 37 57
ENDBRANCH 36 40
ENDBRANCH 23 36
ENDBRANCH 22 26
ENDBRANCH 1 22
TORSDOF 20
ENDMDL
MODEL 4
REMARK VINA RESULT:      -7.8     18.984     24.432
ROOT
ATOM      1  C1  NGY C   1      29.792   7.513  37.6480  0.00  0.00     0.000 C
ATOM      2  C2  NGY C   1      31.047   6.791  38.1190  0.00  0.00     0.000 C
ATOM      3  C3  NGY C   1      32.287   7.610  37.7760  0.00  0.00     0.000 C
ATOM      4  C4  NGY C   1      32.266   7.906  36.2890  0.00  0.00     0.000 C
ATOM      5  C5  NGY C   1      31.003   8.700  35.9660  0.00  0.00     0.000 C
ATOM      6  O5  NGY C   1      29.853   7.874  36.2850  0.00  0.00     0.000 O
ATOM      7   O  NGY C   1      33.447   6.884  38.1590  0.00  0.00     0.000 O
ATOM      9  HD  NGY C   1      33.705   6.058  38.1740  0.00  0.00     0.000 HD
ATOM      9   O  NGY C   1      33.417   8.641  35.8990  0.00  0.00     0.000 O
ATOM     11  HD  NGY C   1      33.675   7.814  35.9140  0.00  0.00     0.000 HD
ENDROOT
BRANCH 2 13
ATOM     11   N  NGY C   1      31.544   5.618  38.7980  0.00  0.00     0.000 N
ATOM     13  HD  NGY C   1      31.172   5.742  39.5700  0.00  0.00     0.000 HD
ATOM     13   C  NGY C   1      31.232   5.362  40.0680  0.00  0.00     0.000 C
ATOM     14   O  NGY C   1      30.627   6.186  40.7540  0.00  0.00     0.000 OA
ATOM     15   C  NGY C   1      31.630   4.019  40.6000  0.00  0.00     0.000 C
ENDBRANCH 2 13
BRANCH 5 16
ATOM     16   C  NGY C   1      30.841   9.079  34.5280  0.00  0.00     0.000 C
ATOM     17   O  NGY C   1      30.401   6.658  31.8070  0.00  0.00     0.000 OA
ATOM     18   O  NGY C   1      30.912   7.894  33.7290  0.00  0.00     0.000 O
ATOM     19   S  NGY C   1      30.329   8.019  32.2760  0.00  0.00     0.000 S
ATOM     20   O  NGY C   1      31.199   8.899  31.5420  0.00  0.00     0.000 OA
ATOM     21   O  NGY C   1      28.989   8.551  32.4640  0.00  0.00     0.000 OA
ENDBRANCH 5 16
BRANCH 1 22
ATOM     22  O4  BDP C   2      29.570   8.570  38.4570  0.00  0.00     0.000 O
BRANCH 22 26
ATOM     23  C1  BDP C   2      26.892  10.908  40.5370  0.00  0.00     0.000 C
ATOM     24  C2  BDP C   2      26.524   9.448  40.4180  0.00  0.00     0.000 C
ATOM     25  C3  BDP C   2      27.727   8.658  39.9740  0.00  0.00     0.000 C
ATOM     26  C4  BDP C   2      28.319   9.265  38.7060  0.00  0.00     0.000 C
ATOM     27  C5  BDP C   2      28.484  10.769  38.8810  0.00  0.00     0.000 C
ATOM     28  O5  BDP C   2      27.241  11.433  39.2250  0.00  0.00     0.000 O
ATOM     29   O  BDP C   2      26.186   8.867  41.6770  0.00  0.00     0.000 O
ATOM     31  HD  BDP C   2      26.423   8.043  41.8000  0.00  0.00     0.000 HD
ATOM     31   O  BDP C   2      27.280   7.332  39.7180  0.00  0.00     0.000 O
ATOM     33  HD  BDP C   2      27.517   6.508  39.8410  0.00  0.00     0.000 HD
BRANCH 27 33
ATOM     33   C  BDP C   2      28.976  11.446  37.6240  0.00  0.00     0.000 C
ATOM     34   O  BDP C   2      28.550  11.129  36.4870  0.00  0.00     0.000 OA
ATOM     35   O  BDP C   2      29.838  12.302  37.7250  0.00  0.00     0.000 OA
ENDBRANCH 27 33
BRANCH 23 36
ATOM     36  O4  SGN C   3      25.930  11.707  41.0550  0.00  0.00     0.000 O
BRANCH 36 40
ATOM     37  C1  SGN C   3      25.056  14.637  43.8980  0.00  0.00     0.000 C
ATOM     38  C2  SGN C   3      25.731  15.088  42.5920  0.00  0.00     0.000 C
ATOM     39  C3  SGN C   3      25.581  14.019  41.5190  0.00  0.00     0.000 C
ATOM     40  C4  SGN C   3      26.149  12.717  42.0430  0.00  0.00     0.000 C
ATOM     41  C5  SGN C   3      25.445  12.364  43.3350  0.00  0.00     0.000 C
ATOM     42  O5  SGN C   3      25.646  13.410  44.2980  0.00  0.00     0.000 O
ATOM     43   O  SGN C   3      26.265  14.436  40.3440  0.00  0.00     0.000 O
ATOM     45  HD  SGN C   3      26.240  13.571  40.3790  0.00  0.00     0.000 HD
BRANCH 38 47
ATOM     45   N  SGN C   3      26.267  16.224  43.3630  0.00  0.00     0.000 N
ATOM     47  HD  SGN C   3      26.321  15.387  43.1470  0.00  0.00     0.000 HD
ATOM     47   S  SGN C   3      25.685  17.614  42.8590  0.00  0.00     0.000 S
ATOM     48   O  SGN C   3      26.124  17.913  41.5420  0.00  0.00     0.000 OA
ATOM     49   O  SGN C   3      24.275  17.567  43.0680  0.00  0.00     0.000 OA
ATOM     50   O  SGN C   3      26.333  18.556  43.7700  0.00  0.00     0.000 OA
ENDBRANCH 38 47
BRANCH 41 51
ATOM     51   C  SGN C   3      25.917  11.080  43.9610  0.00  0.00     0.000 C
ATOM     52   O  SGN C   3      29.387  10.226  45.0150  0.00  0.00     0.000 OA
ATOM     53   O  SGN C   3      27.296   9.583  45.9890  0.00  0.00     0.000 OA
ATOM     54   O  SGN C   3      27.887   8.847  43.7810  0.00  0.00     0.000 OA
ATOM     55   O  SGN C   3      27.293  11.192  44.2490  0.00  0.00     0.000 O
ATOM     56   S  SGN C   3      28.034   9.834  44.8100  0.00  0.00     0.000 S
ENDBRANCH 41 51
BRANCH 37 57
ATOM     57  O4  IDS C   4      23.716  14.452  43.8070  0.00  0.00     0.000 O
BRANCH 57 61
ATOM     58  C1  IDS C   4      20.191  15.053  45.1040  0.00  0.00     0.000 C
ATOM     59  C2  IDS C   4      21.172  16.182  45.1420  0.00  0.00     0.000 C
ATOM     60  C3  IDS C   4      22.576  15.731  45.5520  0.00  0.00     0.000 C
ATOM     61  C4  IDS C   4      23.020  14.358  45.0650  0.00  0.00     0.000 C
ATOM     62  C5  IDS C   4      21.823  13.406  44.9580  0.00  0.00     0.000 C
ATOM     63  O5  IDS C   4      20.722  14.015  44.2990  0.00  0.00     0.000 O
ATOM     64   O  IDS C   4      22.567  15.720  46.9670  0.00  0.00     0.000 O
ATOM     66  HD  IDS C   4      22.640  14.910  47.2640  0.00  0.00     0.000 HD
BRANCH 59 66
ATOM     66   O  IDS C   4      21.308  16.827  43.8230  0.00  0.00     0.000 O
ATOM     67   S  IDS C   4      20.763  18.318  43.7020  0.00  0.00     0.000 S
ATOM     68   O  IDS C   4      21.632  19.058  44.5850  0.00  0.00     0.000 OA
ATOM     69   O  IDS C   4      20.895  18.650  42.2970  0.00  0.00     0.000 OA
ATOM     70   O  IDS C   4      19.389  18.314  44.1790  0.00  0.00     0.000 OA
ENDBRANCH 59 66
BRANCH 62 71
ATOM     71   C  IDS C   4      22.130  12.150  44.1660  0.00  0.00     0.000 C
ATOM     72   O  IDS C   4      21.874  12.099  42.9790  0.00  0.00     0.000 OA
ATOM     73   O  IDS C   4      22.550  11.149  44.7800  0.00  0.00     0.000 OA
ENDBRANCH 62 71
BRANCH 58 74
ATOM     74  O4  SGN C   5      19.626  14.741  46.3050  0.00  0.00     0.000 O
BRANCH 74 78
ATOM     75  C1  SGN C   5      16.168  13.549  48.3220  0.00  0.00     0.000 C
ATOM     76  C2  SGN C   5      16.904  12.449  47.5340  0.00  0.00     0.000 C
ATOM     77  C3  SGN C   5      18.309  12.917  47.1330  0.00  0.00     0.000 C
ATOM     78  C4  SGN C   5      18.282  14.305  46.5090  0.00  0.00     0.000 C
ATOM     79  C5  SGN C   5      17.542  15.262  47.4310  0.00  0.00     0.000 C
ATOM     80  O5  SGN C   5      16.183  14.791  47.6300  0.00  0.00     0.000 O
ATOM     81   O  SGN C   5      18.869  11.972  46.2270  0.00  0.00     0.000 O
ATOM     83  HD  SGN C   5      18.728  11.121  46.3130  0.00  0.00     0.000 HD
BRANCH 76 85
ATOM     83   N  SGN C   5      16.179  11.178  47.4180  0.00  0.00     0.000 N
ATOM     85  HD  SGN C   5      15.658  10.561  47.7310  0.00  0.00     0.000 HD
ATOM     85   S  SGN C   5      15.987  10.007  48.5070  0.00  0.00     0.000 S
ATOM     86   O  SGN C   5      15.169   8.969  47.9830  0.00  0.00     0.000 OA
ATOM     87   O  SGN C   5      17.281   9.642  48.9620  0.00  0.00     0.000 OA
ATOM     88   O  SGN C   5      15.209  10.847  49.5170  0.00  0.00     0.000 OA
ENDBRANCH 76 85
BRANCH 79 89
ATOM     89   C  SGN C   5      17.482  16.682  46.9060  0.00  0.00     0.000 C
ATOM     90   O  SGN C   5      16.495  17.438  47.6490  0.00  0.00     0.000 O
ATOM     91   S  SGN C   5      16.776  19.008  47.8300  0.00  0.00     0.000 S
ATOM     92   O  SGN C   5      18.105  19.122  48.3720  0.00  0.00     0.000 OA
ATOM     93   O  SGN C   5      16.657  19.612  46.5290  0.00  0.00     0.000 OA
ATOM     94   O  SGN C   5      15.747  19.423  48.7450  0.00  0.00     0.000 OA
ENDBRANCH 79 89
BRANCH 75 95
ATOM     95  O4  BDP C   6      16.844  13.675  49.5030  0.00  0.00     0.000 O
BRANCH 95 99
ATOM     96  C1  BDP C   6      15.618  15.766  53.0490  0.00  0.00     0.000 C
ATOM     97  C2  BDP C   6      14.568  15.349  52.0580  0.00  0.00     0.000 C
ATOM     98  C3  BDP C   6      15.038  14.297  51.0420  0.00  0.00     0.000 C
ATOM     99  C4  BDP C   6      16.371  14.686  50.4200  0.00  0.00     0.000 C
ATOM    100  C5  BDP C   6      17.345  15.050  51.5650  0.00  0.00     0.000 C
ATOM    101  O5  BDP C   6      16.697  16.153  52.2190  0.00  0.00     0.000 O
BRANCH 100 102
ATOM    102   C  BDP C   6      18.682  15.528  51.0610  0.00  0.00     0.000 C
ATOM    103   O  BDP C   6      19.729  14.895  51.2580  0.00  0.00     0.000 OA
ATOM    104   O  BDP C   6      18.692  16.587  50.4220  0.00  0.00     0.000 OA
ENDBRANCH 100 102
ENDBRANCH 95 99
ENDBRANCH 75 95
ENDBRANCH 74 78
ENDBRANCH 58 74
ENDBRANCH 57 61
ENDBRANCH 37 57
ENDBRANCH 36 40
ENDBRANCH 23 36
ENDBRANCH 22 26
ENDBRANCH 1 22
TORSDOF 20
ENDMDL
MODEL 5
REMARK VINA RESULT:      -7.8     18.982     25.361
ROOT
ATOM      1  C1  NGY C   1      28.543  12.227  41.2980  0.00  0.00     0.000 C
ATOM      2  C2  NGY C   1      29.110  13.108  40.1930  0.00  0.00     0.000 C
ATOM      3  C3  NGY C   1      28.525  12.707  38.8440  0.00  0.00     0.000 C
ATOM      4  C4  NGY C   1      28.771  11.224  38.6400  0.00  0.00     0.000 C
ATOM      5  C5  NGY C   1      28.084  10.454  39.7640  0.00  0.00     0.000 C
ATOM      6  O5  NGY C   1      28.688  10.850  41.0220  0.00  0.00     0.000 O
ATOM      7   O  NGY C   1      29.122  13.493  37.8230  0.00  0.00     0.000 O
ATOM      9  HD  NGY C   1      29.902  13.829  37.6520  0.00  0.00     0.000 HD
ATOM      9   O  NGY C   1      28.276  10.795  37.3800  0.00  0.00     0.000 O
ATOM     11  HD  NGY C   1      29.055  11.132  37.2090  0.00  0.00     0.000 HD
ENDROOT
BRANCH 2 13
ATOM     11   N  NGY C   1      28.959  14.430  40.7530  0.00  0.00     0.000 N
ATOM     13  HD  NGY C   1      29.609  14.827  40.3400  0.00  0.00     0.000 HD
ATOM     13   C  NGY C   1      29.769  15.431  40.4090  0.00  0.00     0.000 C
ATOM     14   O  NGY C   1      30.764  15.234  39.7110  0.00  0.00     0.000 OA
ATOM     15   C  NGY C   1      29.390  16.799  40.8900  0.00  0.00     0.000 C
ENDBRANCH 2 13
BRANCH 5 16
ATOM     16   C  NGY C   1      28.228   8.967  39.6970  0.00  0.00     0.000 C
ATOM     17   O  NGY C   1      31.444   7.234  39.3630  0.00  0.00     0.000 OA
ATOM     18   O  NGY C   1      29.580   8.652  39.3520  0.00  0.00     0.000 O
ATOM     19   S  NGY C   1      30.037   7.182  39.6670  0.00  0.00     0.000 S
ATOM     20   O  NGY C   1      29.315   6.313  38.7750  0.00  0.00     0.000 OA
ATOM     21   O  NGY C   1      29.700   6.986  41.0670  0.00  0.00     0.000 OA
ENDBRANCH 5 16
BRANCH 1 22
ATOM     22  O4  BDP C   2      27.259  12.580  41.5180  0.00  0.00     0.000 O
BRANCH 22 26
ATOM     23  C1  BDP C   2      24.005  13.026  44.0040  0.00  0.00     0.000 C
ATOM     24  C2  BDP C   2      25.233  13.814  44.3930  0.00  0.00     0.000 C
ATOM     25  C3  BDP C   2      26.196  13.855  43.2360  0.00  0.00     0.000 C
ATOM     26  C4  BDP C   2      26.485  12.442  42.7390  0.00  0.00     0.000 C
ATOM     27  C5  BDP C   2      25.178  11.684  42.5480  0.00  0.00     0.000 C
ATOM     28  O5  BDP C   2      24.374  11.640  43.7540  0.00  0.00     0.000 O
ATOM     29   O  BDP C   2      24.942  15.191  44.6370  0.00  0.00     0.000 O
ATOM     31  HD  BDP C   2      25.547  15.763  44.3980  0.00  0.00     0.000 HD
ATOM     31   O  BDP C   2      27.392  14.459  43.7130  0.00  0.00     0.000 O
ATOM     33  HD  BDP C   2      27.996  15.032  43.4750  0.00  0.00     0.000 HD
BRANCH 27 33
ATOM     33   C  BDP C   2      25.399  10.244  42.1500  0.00  0.00     0.000 C
ATOM     34   O  BDP C   2      26.063   9.452  42.8600  0.00  0.00     0.000 OA
ATOM     35   O  BDP C   2      24.942   9.859  41.0860  0.00  0.00     0.000 OA
ENDBRANCH 27 33
BRANCH 23 36
ATOM     36  O4  SGN C   3      23.004  13.025  44.9150  0.00  0.00     0.000 O
BRANCH 36 40
ATOM     37  C1  SGN C   3      18.872  13.140  45.4990  0.00  0.00     0.000 C
ATOM     38  C2  SGN C   3      19.487  11.821  45.0060  0.00  0.00     0.000 C
ATOM     39  C3  SGN C   3      20.987  11.804  45.2620  0.00  0.00     0.000 C
ATOM     40  C4  SGN C   3      21.609  13.014  44.6000  0.00  0.00     0.000 C
ATOM     41  C5  SGN C   3      20.931  14.260  45.1250  0.00  0.00     0.000 C
ATOM     42  O5  SGN C   3      19.526  14.208  44.8310  0.00  0.00     0.000 O
ATOM     43   O  SGN C   3      21.538  10.599  44.7430  0.00  0.00     0.000 O
ATOM     45  HD  SGN C   3      22.138  11.223  44.7410  0.00  0.00     0.000 HD
BRANCH 38 47
ATOM     45   N  SGN C   3      18.738  10.864  45.8410  0.00  0.00     0.000 N
ATOM     47  HD  SGN C   3      19.338  11.487  45.7880  0.00  0.00     0.000 HD
ATOM     47   S  SGN C   3      17.470  10.277  45.0840  0.00  0.00     0.000 S
ATOM     48   O  SGN C   3      16.499  11.284  44.8400  0.00  0.00     0.000 OA
ATOM     49   O  SGN C   3      17.963   9.574  43.9450  0.00  0.00     0.000 OA
ATOM     50   O  SGN C   3      16.923   9.363  46.0850  0.00  0.00     0.000 OA
ENDBRANCH 38 47
BRANCH 41 51
ATOM     51   C  SGN C   3      21.465  15.542  44.5450  0.00  0.00     0.000 C
ATOM     52   O  SGN C   3      19.557  18.135  42.6700  0.00  0.00     0.000 OA
ATOM     53   O  SGN C   3      21.411  18.389  44.1630  0.00  0.00     0.000 OA
ATOM     54   O  SGN C   3      21.674  17.216  42.0840  0.00  0.00     0.000 OA
ATOM     55   O  SGN C   3      20.398  16.256  43.9610  0.00  0.00     0.000 O
ATOM     56   S  SGN C   3      20.799  17.627  43.1430  0.00  0.00     0.000 S
ENDBRANCH 41 51
BRANCH 37 57
ATOM     57  O4  IDS C   4      18.977  13.349  46.8350  0.00  0.00     0.000 O
BRANCH 57 61
ATOM     58  C1  IDS C   4      16.988  13.684  50.0600  0.00  0.00     0.000 C
ATOM     59  C2  IDS C   4      16.383  12.930  48.9180  0.00  0.00     0.000 C
ATOM     60  C3  IDS C   4      16.656  13.589  47.5640  0.00  0.00     0.000 C
ATOM     61  C4  IDS C   4      18.011  14.260  47.3940  0.00  0.00     0.000 C
ATOM     62  C5  IDS C   4      18.506  14.832  48.7280  0.00  0.00     0.000 C
ATOM     63  O5  IDS C   4      18.362  13.896  49.7870  0.00  0.00     0.000 O
ATOM     64   O  IDS C   4      15.649  14.574  47.4190  0.00  0.00     0.000 O
ATOM     66  HD  IDS C   4      15.997  15.367  47.4390  0.00  0.00     0.000 HD
BRANCH 59 66
ATOM     66   O  IDS C   4      16.916  11.558  48.8310  0.00  0.00     0.000 O
ATOM     67   S  IDS C   4      15.969  10.392  49.3580  0.00  0.00     0.000 S
ATOM     68   O  IDS C   4      14.856  10.434  48.4410  0.00  0.00     0.000 OA
ATOM     69   O  IDS C   4      16.778   9.192  49.2840  0.00  0.00     0.000 OA
ATOM     70   O  IDS C   4      15.565  10.746  50.7100  0.00  0.00     0.000 OA
ENDBRANCH 59 66
BRANCH 62 71
ATOM     71   C  IDS C   4      19.977  15.203  48.7070  0.00  0.00     0.000 C
ATOM     72   O  IDS C   4      20.359  16.144  48.0390  0.00  0.00     0.000 OA
ATOM     73   O  IDS C   4      20.785  14.462  49.3020  0.00  0.00     0.000 OA
ENDBRANCH 62 71
BRANCH 58 74
ATOM     74  O4  SGN C   5      16.234  14.718  50.5300  0.00  0.00     0.000 O
BRANCH 74 78
ATOM     75  C1  SGN C   5      15.670  17.042  53.9540  0.00  0.00     0.000 C
ATOM     76  C2  SGN C   5      17.024  16.315  53.8470  0.00  0.00     0.000 C
ATOM     77  C3  SGN C   5      17.245  15.789  52.4220  0.00  0.00     0.000 C
ATOM     78  C4  SGN C   5      16.024  15.042  51.9050  0.00  0.00     0.000 C
ATOM     79  C5  SGN C   5      14.788  15.915  52.0660  0.00  0.00     0.000 C
ATOM     80  O5  SGN C   5      14.602  16.238  53.4690  0.00  0.00     0.000 O
ATOM     81   O  SGN C   5      18.390  14.942  52.4150  0.00  0.00     0.000 O
ATOM     83  HD  SGN C   5      19.085  15.114  52.9020  0.00  0.00     0.000 HD
BRANCH 76 85
ATOM     83   N  SGN C   5      18.020  16.319  54.9250  0.00  0.00     0.000 N
ATOM     85  HD  SGN C   5      18.357  16.637  55.6570  0.00  0.00     0.000 HD
ATOM     85   S  SGN C   5      18.756  17.564  55.6340  0.00  0.00     0.000 S
ATOM     86   O  SGN C   5      19.618  17.109  56.6690  0.00  0.00     0.000 OA
ATOM     87   O  SGN C   5      19.340  18.346  54.6040  0.00  0.00     0.000 OA
ATOM     88   O  SGN C   5      17.493  18.190  56.2220  0.00  0.00     0.000 OA
ENDBRANCH 76 85
BRANCH 79 89
ATOM     89   C  SGN C   5      13.519  15.265  51.5550  0.00  0.00     0.000 C
ATOM     90   O  SGN C   5      13.400  15.479  50.1270  0.00  0.00     0.000 O
ATOM     91   S  SGN C   5      12.660  14.330  49.2850  0.00  0.00     0.000 S
ATOM     92   O  SGN C   5      13.316  13.093  49.6220  0.00  0.00     0.000 OA
ATOM     93   O  SGN C   5      11.274  14.343  49.6780  0.00  0.00     0.000 OA
ATOM     94   O  SGN C   5      12.867  14.734  47.9210  0.00  0.00     0.000 OA
ENDBRANCH 79 89
BRANCH 75 95
ATOM     95  O4  BDP C   6      15.787  18.163  53.1830  0.00  0.00     0.000 O
BRANCH 95 99
ATOM     96  C1  BDP C   6      13.805  21.893  53.9660  0.00  0.00     0.000 C
ATOM     97  C2  BDP C   6      13.693  20.789  54.9800  0.00  0.00     0.000 C
ATOM     98  C3  BDP C   6      14.723  19.663  54.8070  0.00  0.00     0.000 C
ATOM     99  C4  BDP C   6      14.783  19.186  53.3630  0.00  0.00     0.000 C
ATOM    100  C5  BDP C   6      14.933  20.429  52.4550  0.00  0.00     0.000 C
ATOM    101  O5  BDP C   6      13.750  21.195  52.7350  0.00  0.00     0.000 O
BRANCH 100 102
ATOM    102   C  BDP C   6      14.925  20.082  50.9880  0.00  0.00     0.000 C
ATOM    103   O  BDP C   6      15.915  19.603  50.4160  0.00  0.00     0.000 OA
ATOM    104   O  BDP C   6      13.873  20.285  50.3710  0.00  0.00     0.000 OA
ENDBRANCH 100 102
ENDBRANCH 95 99
ENDBRANCH 75 95
ENDBRANCH 74 78
ENDBRANCH 58 74
ENDBRANCH 57 61
ENDBRANCH 37 57
ENDBRANCH 36 40
ENDBRANCH 23 36
ENDBRANCH 22 26
ENDBRANCH 1 22
TORSDOF 20
ENDMDL
MODEL 6
REMARK VINA RESULT:      -7.7     21.630     23.981
ROOT
ATOM      1  C1  NGY C   1      12.824  10.736  47.3390  0.00  0.00     0.000 C
ATOM      2  C2  NGY C   1      12.255   9.791  46.2900  0.00  0.00     0.000 C
ATOM      3  C3  NGY C   1      11.818  10.573  45.0550  0.00  0.00     0.000 C
ATOM      4  C4  NGY C   1      10.855  11.659  45.4960  0.00  0.00     0.000 C
ATOM      5  C5  NGY C   1      11.573  12.581  46.4780  0.00  0.00     0.000 C
ATOM      6  O5  NGY C   1      11.947  11.800  47.6430  0.00  0.00     0.000 O
ATOM      7   O  NGY C   1      11.226   9.681  44.1230  0.00  0.00     0.000 O
ATOM      9  HD  NGY C   1      10.724   8.975  44.1460  0.00  0.00     0.000 HD
ATOM      9   O  NGY C   1      10.385  12.404  44.3820  0.00  0.00     0.000 O
ATOM     11  HD  NGY C   1       9.883  11.699  44.4060  0.00  0.00     0.000 HD
ENDROOT
BRANCH 2 13
ATOM     11   N  NGY C   1      13.264   8.765  46.1790  0.00  0.00     0.000 N
ATOM     13  HD  NGY C   1      12.752   8.091  45.9950  0.00  0.00     0.000 HD
ATOM     13   C  NGY C   1      12.948   7.502  45.8980  0.00  0.00     0.000 C
ATOM     14   O  NGY C   1      11.773   7.132  45.8620  0.00  0.00     0.000 OA
ATOM     15   C  NGY C   1      14.086   6.572  45.6030  0.00  0.00     0.000 C
ENDBRANCH 2 13
BRANCH 5 16
ATOM     16   C  NGY C   1      10.751  13.716  47.0000  0.00  0.00     0.000 C
ATOM     17   O  NGY C   1       8.220  13.375  49.6340  0.00  0.00     0.000 OA
ATOM     18   O  NGY C   1       9.729  13.191  47.8520  0.00  0.00     0.000 O
ATOM     19   S  NGY C   1       9.063  14.224  48.8300  0.00  0.00     0.000 S
ATOM     20   O  NGY C   1       8.304  15.144  48.0250  0.00  0.00     0.000 OA
ATOM     21   O  NGY C   1      10.180  14.844  49.5240  0.00  0.00     0.000 OA
ENDBRANCH 5 16
BRANCH 1 22
ATOM     22  O4  BDP C   2      14.036  11.164  46.9270  0.00  0.00     0.000 O
BRANCH 22 26
ATOM     23  C1  BDP C   2      17.899  12.347  47.7270  0.00  0.00     0.000 C
ATOM     24  C2  BDP C   2      17.476  11.041  48.3560  0.00  0.00     0.000 C
ATOM     25  C3  BDP C   2      16.210  10.551  47.7030  0.00  0.00     0.000 C
ATOM     26  C4  BDP C   2      15.144  11.641  47.7360  0.00  0.00     0.000 C
ATOM     27  C5  BDP C   2      15.733  12.956  47.2420  0.00  0.00     0.000 C
ATOM     28  O5  BDP C   2      16.899  13.368  48.0020  0.00  0.00     0.000 O
ATOM     29   O  BDP C   2      18.410   9.990  48.1090  0.00  0.00     0.000 O
ATOM     31  HD  BDP C   2      18.080   9.198  47.9920  0.00  0.00     0.000 HD
ATOM     31   O  BDP C   2      15.774   9.419  48.4440  0.00  0.00     0.000 O
ATOM     33  HD  BDP C   2      15.444   8.626  48.3270  0.00  0.00     0.000 HD
BRANCH 27 33
ATOM     33   C  BDP C   2      14.754  14.101  47.3420  0.00  0.00     0.000 C
ATOM     34   O  BDP C   2      14.489  14.838  46.3610  0.00  0.00     0.000 OA
ATOM     35   O  BDP C   2      14.236  14.330  48.4220  0.00  0.00     0.000 OA
ENDBRANCH 27 33
BRANCH 23 36
ATOM     36  O4  SGN C   3      19.096  12.827  48.1370  0.00  0.00     0.000 O
BRANCH 36 40
ATOM     37  C1  SGN C   3      22.270  14.680  46.1560  0.00  0.00     0.000 C
ATOM     38  C2  SGN C   3      21.917  15.182  47.5660  0.00  0.00     0.000 C
ATOM     39  C3  SGN C   3      21.070  14.154  48.3010  0.00  0.00     0.000 C
ATOM     40  C4  SGN C   3      19.841  13.850  47.4710  0.00  0.00     0.000 C
ATOM     41  C5  SGN C   3      20.281  13.387  46.1000  0.00  0.00     0.000 C
ATOM     42  O5  SGN C   3      21.059  14.414  45.4670  0.00  0.00     0.000 O
ATOM     43   O  SGN C   3      20.709  14.669  49.5760  0.00  0.00     0.000 O
ATOM     45  HD  SGN C   3      20.111  14.104  49.3060  0.00  0.00     0.000 HD
BRANCH 38 47
ATOM     45   N  SGN C   3      23.351  15.308  47.8830  0.00  0.00     0.000 N
ATOM     47  HD  SGN C   3      22.693  14.809  47.6210  0.00  0.00     0.000 HD
ATOM     47   S  SGN C   3      23.807  16.826  47.9910  0.00  0.00     0.000 S
ATOM     48   O  SGN C   3      23.721  17.484  46.7360  0.00  0.00     0.000 OA
ATOM     49   O  SGN C   3      23.067  17.400  49.0670  0.00  0.00     0.000 OA
ATOM     50   O  SGN C   3      25.224  16.688  48.3260  0.00  0.00     0.000 OA
ENDBRANCH 38 47
BRANCH 41 51
ATOM     51   C  SGN C   3      19.146  13.046  45.1720  0.00  0.00     0.000 C
ATOM     52   O  SGN C   3      18.164   9.664  43.9580  0.00  0.00     0.000 OA
ATOM     53   O  SGN C   3      16.793  11.562  44.4540  0.00  0.00     0.000 OA
ATOM     54   O  SGN C   3      18.379  11.644  42.6530  0.00  0.00     0.000 OA
ATOM     55   O  SGN C   3      19.094  11.646  45.0110  0.00  0.00     0.000 O
ATOM     56   S  SGN C   3      18.006  11.077  43.9150  0.00  0.00     0.000 S
ENDBRANCH 41 51
BRANCH 37 57
ATOM     57  O4  IDS C   4      23.027  13.555  46.1300  0.00  0.00     0.000 O
BRANCH 57 61
ATOM     58  C1  IDS C   4      26.109  11.514  45.2310  0.00  0.00     0.000 C
ATOM     59  C2  IDS C   4      26.293  12.817  45.9420  0.00  0.00     0.000 C
ATOM     60  C3  IDS C   4      25.345  13.907  45.4360  0.00  0.00     0.000 C
ATOM     61  C4  IDS C   4      23.949  13.459  45.0270  0.00  0.00     0.000 C
ATOM     62  C5  IDS C   4      23.979  12.034  44.4620  0.00  0.00     0.000 C
ATOM     63  O5  IDS C   4      24.738  11.158  45.2830  0.00  0.00     0.000 O
ATOM     64   O  IDS C   4      25.986  14.460  44.3020  0.00  0.00     0.000 O
ATOM     66  HD  IDS C   4      25.539  14.278  43.5820  0.00  0.00     0.000 HD
BRANCH 59 66
ATOM     66   O  IDS C   4      26.043  12.685  47.3900  0.00  0.00     0.000 O
ATOM     67   S  IDS C   4      27.285  12.935  48.3520  0.00  0.00     0.000 S
ATOM     68   O  IDS C   4      27.591  14.329  48.1380  0.00  0.00     0.000 OA
ATOM     69   O  IDS C   4      26.801  12.613  49.6800  0.00  0.00     0.000 OA
ATOM     70   O  IDS C   4      28.364  12.073  47.8950  0.00  0.00     0.000 OA
ENDBRANCH 59 66
BRANCH 62 71
ATOM     71   C  IDS C   4      22.603  11.406  44.3570  0.00  0.00     0.000 C
ATOM     72   O  IDS C   4      22.273  10.526  45.1290  0.00  0.00     0.000 OA
ATOM     73   O  IDS C   4      21.869  11.739  43.4050  0.00  0.00     0.000 OA
ENDBRANCH 62 71
BRANCH 58 74
ATOM     74  O4  SGN C   5      26.782  11.403  44.0510  0.00  0.00     0.000 O
BRANCH 74 78
ATOM     75  C1  SGN C   5      28.561   8.791  41.3200  0.00  0.00     0.000 C
ATOM     76  C2  SGN C   5      27.064   9.081  41.1010  0.00  0.00     0.000 C
ATOM     77  C3  SGN C   5      26.618  10.291  41.9330  0.00  0.00     0.000 C
ATOM     78  C4  SGN C   5      27.091  10.184  43.3760  0.00  0.00     0.000 C
ATOM     79  C5  SGN C   5      28.590   9.923  43.4010  0.00  0.00     0.000 C
ATOM     80  O5  SGN C   5      28.878   8.684  42.7010  0.00  0.00     0.000 O
ATOM     81   O  SGN C   5      25.199  10.392  41.8780  0.00  0.00     0.000 O
ATOM     83  HD  SGN C   5      24.758  10.205  41.1570  0.00  0.00     0.000 HD
BRANCH 76 85
ATOM     83   N  SGN C   5      26.182   8.984  39.9310  0.00  0.00     0.000 N
ATOM     85  HD  SGN C   5      25.852   8.558  39.2530  0.00  0.00     0.000 HD
ATOM     85   S  SGN C   5      26.468   8.329  38.4870  0.00  0.00     0.000 S
ATOM     86   O  SGN C   5      25.311   8.417  37.6640  0.00  0.00     0.000 OA
ATOM     87   O  SGN C   5      27.660   8.917  37.9900  0.00  0.00     0.000 OA
ATOM     88   O  SGN C   5      26.665   6.901  38.9890  0.00  0.00     0.000 OA
ENDBRANCH 76 85
BRANCH 79 89
ATOM     89   C  SGN C   5      29.163   9.824  44.8000  0.00  0.00     0.000 C
ATOM     90   O  SGN C   5      30.561   9.451  44.7320  0.00  0.00     0.000 O
ATOM     91   S  SGN C   5      31.514  10.013  45.8940  0.00  0.00     0.000 S
ATOM     92   O  SGN C   5      31.307  11.437  45.9360  0.00  0.00     0.000 OA
ATOM     93   O  SGN C   5      31.120   9.363  47.1180  0.00  0.00     0.000 OA
ATOM     94   O  SGN C   5      32.830   9.639  45.4520  0.00  0.00     0.000 OA
ENDBRANCH 79 89
BRANCH 75 95
ATOM     95  O4  BDP C   6      29.228   9.853  40.7770  0.00  0.00     0.000 O
BRANCH 95 99
ATOM     96  C1  BDP C   6      33.136   9.869  38.9940  0.00  0.00     0.000 C
ATOM     97  C2  BDP C   6      32.412   8.559  39.1340  0.00  0.00     0.000 C
ATOM     98  C3  BDP C   6      30.908   8.694  39.4160  0.00  0.00     0.000 C
ATOM     99  C4  BDP C   6      30.643   9.682  40.5420  0.00  0.00     0.000 C
ATOM    100  C5  BDP C   6      31.424  10.980  40.2320  0.00  0.00     0.000 C
ATOM    101  O5  BDP C   6      32.793  10.546  40.1890  0.00  0.00     0.000 O
BRANCH 100 102
ATOM    102   C  BDP C   6      31.298  12.010  41.3260  0.00  0.00     0.000 C
ATOM    103   O  BDP C   6      30.895  13.162  41.1080  0.00  0.00     0.000 OA
ATOM    104   O  BDP C   6      31.605  11.652  42.4690  0.00  0.00     0.000 OA
ENDBRANCH 100 102
ENDBRANCH 95 99
ENDBRANCH 75 95
ENDBRANCH 74 78
ENDBRANCH 58 74
ENDBRANCH 57 61
ENDBRANCH 37 57
ENDBRANCH 36 40
ENDBRANCH 23 36
ENDBRANCH 22 26
ENDBRANCH 1 22
TORSDOF 20
ENDMDL
MODEL 7
REMARK VINA RESULT:      -7.7      7.501     20.204
ROOT
ATOM      1  C1  NGY C   1      30.198   6.603  34.6320  0.00  0.00     0.000 C
ATOM      2  C2  NGY C   1      30.701   6.199  36.0110  0.00  0.00     0.000 C
ATOM      3  C3  NGY C   1      32.224   6.273  36.0610  0.00  0.00     0.000 C
ATOM      4  C4  NGY C   1      32.779   5.431  34.9280  0.00  0.00     0.000 C
ATOM      5  C5  NGY C   1      32.266   5.991  33.6040  0.00  0.00     0.000 C
ATOM      6  O5  NGY C   1      30.819   5.877  33.5930  0.00  0.00     0.000 O
ATOM      7   O  NGY C   1      32.672   5.822  37.3310  0.00  0.00     0.000 O
ATOM      9  HD  NGY C   1      32.445   5.219  37.9090  0.00  0.00     0.000 HD
ATOM      9   O  NGY C   1      34.199   5.434  34.9420  0.00  0.00     0.000 O
ATOM     11  HD  NGY C   1      33.972   4.830  35.5200  0.00  0.00     0.000 HD
ENDROOT
BRANCH 2 13
ATOM     11   N  NGY C   1      29.681   6.827  36.8180  0.00  0.00     0.000 N
ATOM     13  HD  NGY C   1      29.866   6.457  37.5790  0.00  0.00     0.000 HD
ATOM     13   C  NGY C   1      29.557   6.561  38.1170  0.00  0.00     0.000 C
ATOM     14   O  NGY C   1      30.213   5.664  38.6490  0.00  0.00     0.000 OA
ATOM     15   C  NGY C   1      28.607   7.422  38.8920  0.00  0.00     0.000 C
ENDBRANCH 2 13
BRANCH 5 16
ATOM     16   C  NGY C   1      32.737   5.268  32.3830  0.00  0.00     0.000 C
ATOM     17   O  NGY C   1      35.751   6.177  30.4990  0.00  0.00     0.000 OA
ATOM     18   O  NGY C   1      33.803   6.014  31.7900  0.00  0.00     0.000 O
ATOM     19   S  NGY C   1      34.712   5.220  30.7850  0.00  0.00     0.000 S
ATOM     20   O  NGY C   1      33.908   4.921  29.6290  0.00  0.00     0.000 OA
ATOM     21   O  NGY C   1      35.128   4.038  31.5230  0.00  0.00     0.000 OA
ENDBRANCH 5 16
BRANCH 1 22
ATOM     22  O4  BDP C   2      30.342   7.938  34.4920  0.00  0.00     0.000 O
BRANCH 22 26
ATOM     23  C1  BDP C   2      29.004  11.553  33.0410  0.00  0.00     0.000 C
ATOM     24  C2  BDP C   2      27.952  10.683  33.6880  0.00  0.00     0.000 C
ATOM     25  C3  BDP C   2      28.619   9.592  34.4840  0.00  0.00     0.000 C
ATOM     26  C4  BDP C   2      29.614   8.834  33.6110  0.00  0.00     0.000 C
ATOM     27  C5  BDP C   2      30.509   9.820  32.8730  0.00  0.00     0.000 C
ATOM     28  O5  BDP C   2      29.758  10.770  32.0740  0.00  0.00     0.000 O
ATOM     29   O  BDP C   2      27.186  11.390  34.6640  0.00  0.00     0.000 O
ATOM     31  HD  BDP C   2      26.940  10.942  35.3620  0.00  0.00     0.000 HD
ATOM     31   O  BDP C   2      27.590   8.715  34.9260  0.00  0.00     0.000 O
ATOM     33  HD  BDP C   2      27.344   8.267  35.6250  0.00  0.00     0.000 HD
BRANCH 27 33
ATOM     33   C  BDP C   2      31.455   9.136  31.9140  0.00  0.00     0.000 C
ATOM     34   O  BDP C   2      31.043   8.467  30.9360  0.00  0.00     0.000 OA
ATOM     35   O  BDP C   2      32.654   9.214  32.1270  0.00  0.00     0.000 OA
ENDBRANCH 27 33
BRANCH 23 36
ATOM     36  O4  SGN C   3      28.535  12.650  32.4030  0.00  0.00     0.000 O
BRANCH 36 40
ATOM     37  C1  SGN C   3      28.992  16.760  31.8250  0.00  0.00     0.000 C
ATOM     38  C2  SGN C   3      29.976  15.823  31.1040  0.00  0.00     0.000 C
ATOM     39  C3  SGN C   3      29.424  14.406  31.0580  0.00  0.00     0.000 C
ATOM     40  C4  SGN C   3      29.124  13.952  32.4700  0.00  0.00     0.000 C
ATOM     41  C5  SGN C   3      28.172  14.939  33.1080  0.00  0.00     0.000 C
ATOM     42  O5  SGN C   3      28.769  16.245  33.1290  0.00  0.00     0.000 O
ATOM     43   O  SGN C   3      30.378  13.552  30.4390  0.00  0.00     0.000 O
ATOM     45  HD  SGN C   3      29.888  13.097  30.9890  0.00  0.00     0.000 HD
BRANCH 38 47
ATOM     45   N  SGN C   3      30.618  17.149  31.0770  0.00  0.00     0.000 N
ATOM     47  HD  SGN C   3      30.280  16.502  31.5420  0.00  0.00     0.000 HD
ATOM     47   S  SGN C   3      31.259  17.474  29.6590  0.00  0.00     0.000 S
ATOM     48   O  SGN C   3      32.348  16.608  29.3720  0.00  0.00     0.000 OA
ATOM     49   O  SGN C   3      30.186  17.486  28.7190  0.00  0.00     0.000 OA
ATOM     50   O  SGN C   3      31.800  18.814  29.8770  0.00  0.00     0.000 OA
ENDBRANCH 38 47
BRANCH 41 51
ATOM     51   C  SGN C   3      27.788  14.598  34.5220  0.00  0.00     0.000 C
ATOM     52   O  SGN C   3      30.057  14.264  37.4570  0.00  0.00     0.000 OA
ATOM     53   O  SGN C   3      27.804  15.066  37.3570  0.00  0.00     0.000 OA
ATOM     54   O  SGN C   3      28.306  12.778  36.8280  0.00  0.00     0.000 OA
ATOM     55   O  SGN C   3      28.945  14.624  35.3270  0.00  0.00     0.000 O
ATOM     56   S  SGN C   3      28.759  14.136  36.8880  0.00  0.00     0.000 S
ENDBRANCH 41 51
BRANCH 37 57
ATOM     57  O4  IDS C   4      27.791  16.898  31.2130  0.00  0.00     0.000 O
BRANCH 57 61
ATOM     58  C1  IDS C   4      25.225  19.416  29.9690  0.00  0.00     0.000 C
ATOM     59  C2  IDS C   4      26.651  19.849  30.0980  0.00  0.00     0.000 C
ATOM     60  C3  IDS C   4      27.326  19.294  31.3560  0.00  0.00     0.000 C
ATOM     61  C4  IDS C   4      26.918  17.891  31.7850  0.00  0.00     0.000 C
ATOM     62  C5  IDS C   4      25.456  17.614  31.4160  0.00  0.00     0.000 C
ATOM     63  O5  IDS C   4      25.166  18.005  30.0820  0.00  0.00     0.000 O
ATOM     64   O  IDS C   4      26.981  20.195  32.3910  0.00  0.00     0.000 O
ATOM     66  HD  IDS C   4      26.463  19.809  32.9680  0.00  0.00     0.000 HD
BRANCH 59 66
ATOM     66   O  IDS C   4      27.462  19.393  28.9530  0.00  0.00     0.000 O
ATOM     67   S  IDS C   4      28.125  20.528  28.0560  0.00  0.00     0.000 S
ATOM     68   O  IDS C   4      29.055  21.161  28.9610  0.00  0.00     0.000 OA
ATOM     69   O  IDS C   4      28.737  19.819  26.9490  0.00  0.00     0.000 OA
ATOM     70   O  IDS C   4      27.062  21.437  27.6560  0.00  0.00     0.000 OA
ENDBRANCH 59 66
BRANCH 62 71
ATOM     71   C  IDS C   4      25.090  16.144  31.5000  0.00  0.00     0.000 C
ATOM     72   O  IDS C   4      25.368  15.393  30.5850  0.00  0.00     0.000 OA
ATOM     73   O  IDS C   4      24.413  15.755  32.4730  0.00  0.00     0.000 OA
ENDBRANCH 62 71
BRANCH 58 74
ATOM     74  O4  SGN C   5      24.328  20.178  30.6570  0.00  0.00     0.000 O
BRANCH 74 78
ATOM     75  C1  SGN C   5      20.253  21.049  30.9270  0.00  0.00     0.000 C
ATOM     76  C2  SGN C   5      20.878  20.358  32.1530  0.00  0.00     0.000 C
ATOM     77  C3  SGN C   5      22.410  20.404  32.0780  0.00  0.00     0.000 C
ATOM     78  C4  SGN C   5      22.918  19.964  30.7120  0.00  0.00     0.000 C
ATOM     79  C5  SGN C   5      22.213  20.765  29.6270  0.00  0.00     0.000 C
ATOM     80  O5  SGN C   5      20.781  20.539  29.7100  0.00  0.00     0.000 O
ATOM     81   O  SGN C   5      22.948  19.572  33.1020  0.00  0.00     0.000 O
ATOM     83  HD  SGN C   5      22.576  19.515  33.8820  0.00  0.00     0.000 HD
BRANCH 76 85
ATOM     83   N  SGN C   5      20.225  19.963  33.4070  0.00  0.00     0.000 N
ATOM     85  HD  SGN C   5      19.534  19.902  33.9260  0.00  0.00     0.000 HD
ATOM     85   S  SGN C   5      19.131  20.755  34.2840  0.00  0.00     0.000 S
ATOM     86   O  SGN C   5      18.735  19.977  35.4060  0.00  0.00     0.000 OA
ATOM     87   O  SGN C   5      19.660  22.045  34.5480  0.00  0.00     0.000 OA
ATOM     88   O  SGN C   5      18.036  20.760  33.2200  0.00  0.00     0.000 OA
ENDBRANCH 76 85
BRANCH 79 89
ATOM     89   C  SGN C   5      22.670  20.416  28.2250  0.00  0.00     0.000 C
ATOM     90   O  SGN C   5      21.903  21.173  27.2570  0.00  0.00     0.000 O
ATOM     91   S  SGN C   5      22.651  21.567  25.8930  0.00  0.00     0.000 S
ATOM     92   O  SGN C   5      23.879  22.214  26.2760  0.00  0.00     0.000 OA
ATOM     93   O  SGN C   5      22.876  20.344  25.1650  0.00  0.00     0.000 OA
ATOM     94   O  SGN C   5      21.717  22.448  25.2470  0.00  0.00     0.000 OA
ENDBRANCH 79 89
BRANCH 75 95
ATOM     95  O4  BDP C   6      20.569  22.373  31.0450  0.00  0.00     0.000 O
BRANCH 95 99
ATOM     96  C1  BDP C   6      18.386  25.874  29.8500  0.00  0.00     0.000 C
ATOM     97  C2  BDP C   6      17.619  24.671  30.3210  0.00  0.00     0.000 C
ATOM     98  C3  BDP C   6      18.465  23.635  31.0750  0.00  0.00     0.000 C
ATOM     99  C4  BDP C   6      19.743  23.308  30.3160  0.00  0.00     0.000 C
ATOM    100  C5  BDP C   6      20.428  24.641  29.9360  0.00  0.00     0.000 C
ATOM    101  O5  BDP C   6      19.451  25.299  29.1140  0.00  0.00     0.000 O
BRANCH 100 102
ATOM    102   C  BDP C   6      21.672  24.441  29.1080  0.00  0.00     0.000 C
ATOM    103   O  BDP C   6      22.788  24.275  29.6200  0.00  0.00     0.000 OA
ATOM    104   O  BDP C   6      21.531  24.435  27.8800  0.00  0.00     0.000 OA
ENDBRANCH 100 102
ENDBRANCH 95 99
ENDBRANCH 75 95
ENDBRANCH 74 78
ENDBRANCH 58 74
ENDBRANCH 57 61
ENDBRANCH 37 57
ENDBRANCH 36 40
ENDBRANCH 23 36
ENDBRANCH 22 26
ENDBRANCH 1 22
TORSDOF 20
ENDMDL
MODEL 8
REMARK VINA RESULT:      -7.7     18.401     22.695
ROOT
ATOM      1  C1  NGY C   1      26.535  32.451  10.2010  0.00  0.00     0.000 C
ATOM      2  C2  NGY C   1      26.933  33.484   9.1560  0.00  0.00     0.000 C
ATOM      3  C3  NGY C   1      28.289  34.090   9.5020  0.00  0.00     0.000 C
ATOM      4  C4  NGY C   1      28.220  34.636  10.9160  0.00  0.00     0.000 C
ATOM      5  C5  NGY C   1      27.896  33.488  11.8680  0.00  0.00     0.000 C
ATOM      6  O5  NGY C   1      26.590  32.960  11.5170  0.00  0.00     0.000 O
ATOM      7   O  NGY C   1      28.604  35.100   8.5550  0.00  0.00     0.000 O
ATOM      9  HD  NGY C   1      28.180  35.708   8.1070  0.00  0.00     0.000 HD
ATOM      9   O  NGY C   1      29.448  35.246  11.2860  0.00  0.00     0.000 O
ATOM     11  HD  NGY C   1      29.024  35.854  10.8380  0.00  0.00     0.000 HD
ENDROOT
BRANCH 2 13
ATOM     11   N  NGY C   1      26.564  32.783   7.9490  0.00  0.00     0.000 N
ATOM     13  HD  NGY C   1      26.522  33.458   7.4090  0.00  0.00     0.000 HD
ATOM     13   C  NGY C   1      26.373  33.426   6.7990  0.00  0.00     0.000 C
ATOM     14   O  NGY C   1      26.363  34.657   6.7510  0.00  0.00     0.000 OA
ATOM     15   C  NGY C   1      26.201  32.579   5.5750  0.00  0.00     0.000 C
ENDBRANCH 2 13
BRANCH 5 16
ATOM     16   C  NGY C   1      27.803  33.868  13.3120  0.00  0.00     0.000 C
ATOM     17   O  NGY C   1      30.298  32.948  15.8380  0.00  0.00     0.000 OA
ATOM     18   O  NGY C   1      28.817  33.167  14.0380  0.00  0.00     0.000 O
ATOM     19   S  NGY C   1      29.169  33.755  15.4510  0.00  0.00     0.000 S
ATOM     20   O  NGY C   1      28.026  33.540  16.2990  0.00  0.00     0.000 OA
ATOM     21   O  NGY C   1      29.452  35.160  15.2030  0.00  0.00     0.000 OA
ENDBRANCH 5 16
BRANCH 1 22
ATOM     22  O4  BDP C   2      27.299  31.351  10.0380  0.00  0.00     0.000 O
BRANCH 22 26
ATOM     23  C1  BDP C   2      27.700  27.251  10.0490  0.00  0.00     0.000 C
ATOM     24  C2  BDP C   2      26.430  27.778   9.4240  0.00  0.00     0.000 C
ATOM     25  C3  BDP C   2      26.573  29.253   9.1550  0.00  0.00     0.000 C
ATOM     26  C4  BDP C   2      27.001  29.983  10.4240  0.00  0.00     0.000 C
ATOM     27  C5  BDP C   2      28.181  29.262  11.0620  0.00  0.00     0.000 C
ATOM     28  O5  BDP C   2      27.896  27.869  11.3520  0.00  0.00     0.000 O
ATOM     29   O  BDP C   2      26.188  27.222   8.1320  0.00  0.00     0.000 O
ATOM     31  HD  BDP C   2      25.828  27.748   7.5450  0.00  0.00     0.000 HD
ATOM     31   O  BDP C   2      25.300  29.721   8.7280  0.00  0.00     0.000 O
ATOM     33  HD  BDP C   2      24.939  30.246   8.1420  0.00  0.00     0.000 HD
BRANCH 27 33
ATOM     33   C  BDP C   2      28.592  29.879  12.3780  0.00  0.00     0.000 C
ATOM     34   O  BDP C   2      27.758  30.156  13.2720  0.00  0.00     0.000 OA
ATOM     35   O  BDP C   2      29.770  30.143  12.5510  0.00  0.00     0.000 OA
ENDBRANCH 27 33
BRANCH 23 36
ATOM     36  O4  SGN C   3      27.749  25.910  10.2200  0.00  0.00     0.000 O
BRANCH 36 40
ATOM     37  C1  SGN C   3      30.069  22.475   9.7240  0.00  0.00     0.000 C
ATOM     38  C2  SGN C   3      30.275  23.296  11.0070  0.00  0.00     0.000 C
ATOM     39  C3  SGN C   3      29.092  24.225  11.2400  0.00  0.00     0.000 C
ATOM     40  C4  SGN C   3      28.909  25.099  10.0180  0.00  0.00     0.000 C
ATOM     41  C5  SGN C   3      28.738  24.212   8.8050  0.00  0.00     0.000 C
ATOM     42  O5  SGN C   3      29.898  23.380   8.6440  0.00  0.00     0.000 O
ATOM     43   O  SGN C   3      29.336  25.013  12.3980  0.00  0.00     0.000 O
ATOM     45  HD  SGN C   3      28.812  25.439  11.8560  0.00  0.00     0.000 HD
BRANCH 38 47
ATOM     45   N  SGN C   3      31.577  22.607  10.9600  0.00  0.00     0.000 N
ATOM     47  HD  SGN C   3      31.042  23.200  10.6240  0.00  0.00     0.000 HD
ATOM     47   S  SGN C   3      31.875  21.803  12.2980  0.00  0.00     0.000 S
ATOM     48   O  SGN C   3      32.040  22.678  13.4040  0.00  0.00     0.000 OA
ATOM     49   O  SGN C   3      30.857  20.810  12.4140  0.00  0.00     0.000 OA
ATOM     50   O  SGN C   3      33.177  21.207  12.0030  0.00  0.00     0.000 OA
ENDBRANCH 38 47
BRANCH 41 51
ATOM     51   C  SGN C   3      28.541  24.962   7.5160  0.00  0.00     0.000 C
ATOM     52   O  SGN C   3      30.593  27.787   6.2160  0.00  0.00     0.000 OA
ATOM     53   O  SGN C   3      29.473  26.041   5.0210  0.00  0.00     0.000 OA
ATOM     54   O  SGN C   3      28.216  27.657   6.2770  0.00  0.00     0.000 OA
ATOM     55   O  SGN C   3      29.568  25.921   7.3860  0.00  0.00     0.000 O
ATOM     56   S  SGN C   3      29.450  26.948   6.1050  0.00  0.00     0.000 S
ENDBRANCH 41 51
BRANCH 37 57
ATOM     57  O4  IDS C   4      29.001  21.641   9.7510  0.00  0.00     0.000 O
BRANCH 57 61
ATOM     58  C1  IDS C   4      28.893  17.993   8.6770  0.00  0.00     0.000 C
ATOM     59  C2  IDS C   4      30.191  18.731   8.5860  0.00  0.00     0.000 C
ATOM     60  C3  IDS C   4      30.022  20.168   8.0880  0.00  0.00     0.000 C
ATOM     61  C4  IDS C   4      28.765  20.901   8.5380  0.00  0.00     0.000 C
ATOM     62  C5  IDS C   4      27.598  19.921   8.7110  0.00  0.00     0.000 C
ATOM     63  O5  IDS C   4      27.984  18.766   9.4420  0.00  0.00     0.000 O
ATOM     64   O  IDS C   4      30.001  20.074   6.6760  0.00  0.00     0.000 O
ATOM     66  HD  IDS C   4      29.219  20.285   6.3700  0.00  0.00     0.000 HD
BRANCH 59 66
ATOM     66   O  IDS C   4      30.859  18.818   9.8990  0.00  0.00     0.000 O
ATOM     67   S  IDS C   4      32.180  17.951  10.0840  0.00  0.00     0.000 S
ATOM     68   O  IDS C   4      33.098  18.545   9.1430  0.00  0.00     0.000 OA
ATOM     69   O  IDS C   4      32.542  18.115  11.4780  0.00  0.00     0.000 OA
ATOM     70   O  IDS C   4      31.850  16.581   9.7200  0.00  0.00     0.000 OA
ENDBRANCH 59 66
BRANCH 62 71
ATOM     71   C  IDS C   4      26.431  20.517   9.4750  0.00  0.00     0.000 C
ATOM     72   O  IDS C   4      26.574  20.872  10.6290  0.00  0.00     0.000 OA
ATOM     73   O  IDS C   4      25.310  20.535   8.9280  0.00  0.00     0.000 OA
ENDBRANCH 62 71
BRANCH 58 74
ATOM     74  O4  SGN C   5      28.470  17.427   7.5100  0.00  0.00     0.000 O
BRANCH 74 78
ATOM     75  C1  SGN C   5      26.430  14.233   5.7570  0.00  0.00     0.000 C
ATOM     76  C2  SGN C   5      25.674  14.991   6.8650  0.00  0.00     0.000 C
ATOM     77  C3  SGN C   5      26.368  16.322   7.1810  0.00  0.00     0.000 C
ATOM     78  C4  SGN C   5      27.867  16.141   7.3770  0.00  0.00     0.000 C
ATOM     79  C5  SGN C   5      28.448  15.399   6.1820  0.00  0.00     0.000 C
ATOM     80  O5  SGN C   5      27.812  14.099   6.0620  0.00  0.00     0.000 O
ATOM     81   O  SGN C   5      25.777  16.885   8.3480  0.00  0.00     0.000 O
ATOM     83  HD  SGN C   5      24.928  16.817   8.5050  0.00  0.00     0.000 HD
BRANCH 76 85
ATOM     83   N  SGN C   5      24.556  14.047   6.7430  0.00  0.00     0.000 N
ATOM     85  HD  SGN C   5      23.802  13.790   6.4020  0.00  0.00     0.000 HD
ATOM     85   S  SGN C   5      22.980  14.342   6.5940  0.00  0.00     0.000 S
ATOM     86   O  SGN C   5      22.257  13.125   6.4610  0.00  0.00     0.000 OA
ATOM     87   O  SGN C   5      22.611  15.199   7.6640  0.00  0.00     0.000 OA
ATOM     88   O  SGN C   5      23.072  15.063   5.2510  0.00  0.00     0.000 OA
ENDBRANCH 76 85
BRANCH 79 89
ATOM     89   C  SGN C   5      29.946  15.190   6.2720  0.00  0.00     0.000 C
ATOM     90   O  SGN C   5      30.280  14.580   7.5420  0.00  0.00     0.000 O
ATOM     91   S  SGN C   5      31.556  13.606   7.5610  0.00  0.00     0.000 S
ATOM     92   O  SGN C   5      31.351  12.647   6.5070  0.00  0.00     0.000 OA
ATOM     93   O  SGN C   5      32.719  14.426   7.3400  0.00  0.00     0.000 OA
ATOM     94   O  SGN C   5      31.511  13.028   8.8770  0.00  0.00     0.000 OA
ENDBRANCH 79 89
BRANCH 75 95
ATOM     95  O4  BDP C   6      26.280  14.982   4.6250  0.00  0.00     0.000 O
BRANCH 95 99
ATOM     96  C1  BDP C   6      25.897  13.771   0.5220  0.00  0.00     0.000 C
ATOM     97  C2  BDP C   6      25.323  12.886   1.5920  0.00  0.00     0.000 C
ATOM     98  C3  BDP C   6      25.166  13.567   2.9600  0.00  0.00     0.000 C
ATOM     99  C4  BDP C   6      26.438  14.296   3.3640  0.00  0.00     0.000 C
ATOM    100  C5  BDP C   6      26.877  15.185   2.1760  0.00  0.00     0.000 C
ATOM    101  O5  BDP C   6      27.094  14.243   1.1130  0.00  0.00     0.000 O
BRANCH 100 102
ATOM    102   C  BDP C   6      28.179  15.900   2.4350  0.00  0.00     0.000 C
ATOM    103   O  BDP C   6      29.225  15.293   2.7070  0.00  0.00     0.000 OA
ATOM    104   O  BDP C   6      28.165  17.134   2.3520  0.00  0.00     0.000 OA
ENDBRANCH 100 102
ENDBRANCH 95 99
ENDBRANCH 75 95
ENDBRANCH 74 78
ENDBRANCH 58 74
ENDBRANCH 57 61
ENDBRANCH 37 57
ENDBRANCH 36 40
ENDBRANCH 23 36
ENDBRANCH 22 26
ENDBRANCH 1 22
TORSDOF 20
ENDMDL
MODEL 9
REMARK VINA RESULT:      -7.6      4.358      8.837
ROOT
ATOM      1  C1  NGY C   1      14.370  31.509  21.7280  0.00  0.00     0.000 C
ATOM      2  C2  NGY C   1      13.731  31.128  20.3990  0.00  0.00     0.000 C
ATOM      3  C3  NGY C   1      14.701  31.392  19.2520  0.00  0.00     0.000 C
ATOM      4  C4  NGY C   1      15.149  32.839  19.3300  0.00  0.00     0.000 C
ATOM      5  C5  NGY C   1      15.843  33.065  20.6710  0.00  0.00     0.000 C
ATOM      6  O5  NGY C   1      14.877  32.826  21.7280  0.00  0.00     0.000 O
ATOM      7   O  NGY C   1      14.059  31.098  18.0200  0.00  0.00     0.000 O
ATOM      9  HD  NGY C   1      13.265  31.174  17.6810  0.00  0.00     0.000 HD
ATOM      9   O  NGY C   1      16.032  33.157  18.2640  0.00  0.00     0.000 O
ATOM     11  HD  NGY C   1      15.238  33.232  17.9260  0.00  0.00     0.000 HD
ENDROOT
BRANCH 2 13
ATOM     11   N  NGY C   1      13.209  29.809  20.6660  0.00  0.00     0.000 N
ATOM     13  HD  NGY C   1      12.538  29.816  20.1180  0.00  0.00     0.000 HD
ATOM     13   C  NGY C   1      12.130  29.345  20.0380  0.00  0.00     0.000 C
ATOM     14   O  NGY C   1      11.453  30.074  19.3110  0.00  0.00     0.000 OA
ATOM     15   C  NGY C   1      11.805  27.896  20.2390  0.00  0.00     0.000 C
ENDBRANCH 2 13
BRANCH 5 16
ATOM     16   C  NGY C   1      16.353  34.452  20.8960  0.00  0.00     0.000 C
ATOM     17   O  NGY C   1      19.753  35.546  20.0590  0.00  0.00     0.000 OA
ATOM     18   O  NGY C   1      17.764  34.467  20.6620  0.00  0.00     0.000 O
ATOM     19   S  NGY C   1      18.397  35.882  20.4100  0.00  0.00     0.000 S
ATOM     20   O  NGY C   1      18.316  36.611  21.6490  0.00  0.00     0.000 OA
ATOM     21   O  NGY C   1      17.593  36.459  19.3450  0.00  0.00     0.000 OA
ENDBRANCH 5 16
BRANCH 1 22
ATOM     22  O4  BDP C   2      15.309  30.590  22.0370  0.00  0.00     0.000 O
BRANCH 22 26
ATOM     23  C1  BDP C   2      16.644  28.177  25.0970  0.00  0.00     0.000 C
ATOM     24  C2  BDP C   2      15.365  28.931  25.3750  0.00  0.00     0.000 C
ATOM     25  C3  BDP C   2      14.804  29.467  24.0840  0.00  0.00     0.000 C
ATOM     26  C4  BDP C   2      15.863  30.275  23.3420  0.00  0.00     0.000 C
ATOM     27  C5  BDP C   2      17.163  29.485  23.2750  0.00  0.00     0.000 C
ATOM     28  O5  BDP C   2      17.651  29.095  24.5850  0.00  0.00     0.000 O
ATOM     29   O  BDP C   2      14.329  28.082  25.8660  0.00  0.00     0.000 O
ATOM     31  HD  BDP C   2      13.522  28.268  25.6110  0.00  0.00     0.000 HD
ATOM     31   O  BDP C   2      13.704  30.301  24.4270  0.00  0.00     0.000 O
ATOM     33  HD  BDP C   2      12.897  30.487  24.1720  0.00  0.00     0.000 HD
BRANCH 27 33
ATOM     33   C  BDP C   2      18.284  30.270  22.6370  0.00  0.00     0.000 C
ATOM     34   O  BDP C   2      19.202  29.713  21.9890  0.00  0.00     0.000 OA
ATOM     35   O  BDP C   2      18.307  31.480  22.7920  0.00  0.00     0.000 OA
ENDBRANCH 27 33
BRANCH 23 36
ATOM     36  O4  SGN C   3      17.181  27.534  26.1600  0.00  0.00     0.000 O
BRANCH 36 40
ATOM     37  C1  SGN C   3      18.843  23.956  27.5230  0.00  0.00     0.000 C
ATOM     38  C2  SGN C   3      19.771  24.944  26.8000  0.00  0.00     0.000 C
ATOM     39  C3  SGN C   3      19.148  26.332  26.7660  0.00  0.00     0.000 C
ATOM     40  C4  SGN C   3      17.785  26.239  26.1150  0.00  0.00     0.000 C
ATOM     41  C5  SGN C   3      16.950  25.231  26.8740  0.00  0.00     0.000 C
ATOM     42  O5  SGN C   3      17.595  23.948  26.8480  0.00  0.00     0.000 O
ATOM     43   O  SGN C   3      19.999  27.211  26.0410  0.00  0.00     0.000 O
ATOM     45  HD  SGN C   3      19.179  27.481  25.9840  0.00  0.00     0.000 HD
BRANCH 38 47
ATOM     45   N  SGN C   3      20.564  23.738  26.5020  0.00  0.00     0.000 N
ATOM     47  HD  SGN C   3      19.863  24.220  26.3400  0.00  0.00     0.000 HD
ATOM     47   S  SGN C   3      22.029  23.820  27.1120  0.00  0.00     0.000 S
ATOM     48   O  SGN C   3      22.794  24.841  26.4880  0.00  0.00     0.000 OA
ATOM     49   O  SGN C   3      21.878  23.907  28.5280  0.00  0.00     0.000 OA
ATOM     50   O  SGN C   3      22.591  22.532  26.7090  0.00  0.00     0.000 OA
ENDBRANCH 38 47
BRANCH 41 51
ATOM     51   C  SGN C   3      15.560  25.047  26.3270  0.00  0.00     0.000 C
ATOM     52   O  SGN C   3      14.610  24.145  22.8390  0.00  0.00     0.000 OA
ATOM     53   O  SGN C   3      13.551  23.564  24.9060  0.00  0.00     0.000 OA
ATOM     54   O  SGN C   3      13.644  25.854  24.1880  0.00  0.00     0.000 OA
ATOM     55   O  SGN C   3      15.651  24.660  24.9740  0.00  0.00     0.000 O
ATOM     56   S  SGN C   3      14.230  24.547  24.1510  0.00  0.00     0.000 S
ENDBRANCH 41 51
BRANCH 37 57
ATOM     57  O4  IDS C   4      18.616  24.243  28.8290  0.00  0.00     0.000 O
BRANCH 57 61
ATOM     58  C1  IDS C   4      18.143  22.661  32.2560  0.00  0.00     0.000 C
ATOM     59  C2  IDS C   4      18.861  21.883  31.1990  0.00  0.00     0.000 C
ATOM     60  C3  IDS C   4      18.226  22.041  29.8150  0.00  0.00     0.000 C
ATOM     61  C4  IDS C   4      17.643  23.408  29.4840  0.00  0.00     0.000 C
ATOM     62  C5  IDS C   4      17.100  24.087  30.7470  0.00  0.00     0.000 C
ATOM     63  O5  IDS C   4      18.020  24.006  31.8260  0.00  0.00     0.000 O
ATOM     64   O  IDS C   4      17.179  21.089  29.7750  0.00  0.00     0.000 O
ATOM     66  HD  IDS C   4      16.409  21.485  29.7470  0.00  0.00     0.000 HD
BRANCH 59 66
ATOM     66   O  IDS C   4      20.265  22.316  31.0660  0.00  0.00     0.000 O
ATOM     67   S  IDS C   4      21.371  21.174  31.1490  0.00  0.00     0.000 S
ATOM     68   O  IDS C   4      21.102  20.370  29.9810  0.00  0.00     0.000 OA
ATOM     69   O  IDS C   4      22.637  21.879  31.1270  0.00  0.00     0.000 OA
ATOM     70   O  IDS C   4      21.132  20.433  32.3780  0.00  0.00     0.000 OA
ENDBRANCH 59 66
BRANCH 62 71
ATOM     71   C  IDS C   4      16.823  25.566  30.5550  0.00  0.00     0.000 C
ATOM     72   O  IDS C   4      15.756  25.933  30.1020  0.00  0.00     0.000 OA
ATOM     73   O  IDS C   4      17.747  26.376  30.7720  0.00  0.00     0.000 OA
ENDBRANCH 62 71
BRANCH 58 74
ATOM     74  O4  SGN C   5      17.061  22.033  32.7980  0.00  0.00     0.000 O
BRANCH 74 78
ATOM     75  C1  SGN C   5      14.527  21.982  36.1160  0.00  0.00     0.000 C
ATOM     76  C2  SGN C   5      13.915  22.516  34.8070  0.00  0.00     0.000 C
ATOM     77  C3  SGN C   5      14.810  22.169  33.6100  0.00  0.00     0.000 C
ATOM     78  C4  SGN C   5      16.266  22.521  33.8780  0.00  0.00     0.000 C
ATOM     79  C5  SGN C   5      16.706  21.893  35.1920  0.00  0.00     0.000 C
ATOM     80  O5  SGN C   5      15.877  22.397  36.2730  0.00  0.00     0.000 O
ATOM     81   O  SGN C   5      14.332  22.861  32.4610  0.00  0.00     0.000 O
ATOM     83  HD  SGN C   5      13.485  22.978  32.3210  0.00  0.00     0.000 HD
BRANCH 76 85
ATOM     83   N  SGN C   5      12.672  21.986  35.3820  0.00  0.00     0.000 N
ATOM     85  HD  SGN C   5      11.845  21.737  35.3220  0.00  0.00     0.000 HD
ATOM     85   S  SGN C   5      11.149  22.438  35.1170  0.00  0.00     0.000 S
ATOM     86   O  SGN C   5      10.251  21.618  35.8540  0.00  0.00     0.000 OA
ATOM     87   O  SGN C   5      11.082  23.837  35.3460  0.00  0.00     0.000 OA
ATOM     88   O  SGN C   5      11.121  22.069  33.6360  0.00  0.00     0.000 OA
ENDBRANCH 76 85
BRANCH 79 89
ATOM     89   C  SGN C   5      18.156  22.167  35.5370  0.00  0.00     0.000 C
ATOM     90   O  SGN C   5      18.456  21.636  36.8510  0.00  0.00     0.000 O
ATOM     91   S  SGN C   5      19.956  21.119  37.0940  0.00  0.00     0.000 S
ATOM     92   O  SGN C   5      20.246  20.196  36.0280  0.00  0.00     0.000 OA
ATOM     93   O  SGN C   5      20.813  22.276  37.0680  0.00  0.00     0.000 OA
ATOM     94   O  SGN C   5      19.885  20.495  38.3870  0.00  0.00     0.000 OA
ENDBRANCH 79 89
BRANCH 75 95
ATOM     95  O4  BDP C   6      14.473  20.620  36.0240  0.00  0.00     0.000 O
BRANCH 95 99
ATOM     96  C1  BDP C   6      14.081  17.829  39.2650  0.00  0.00     0.000 C
ATOM     97  C2  BDP C   6      13.780  19.279  39.5210  0.00  0.00     0.000 C
ATOM     98  C3  BDP C   6      13.575  20.118  38.2500  0.00  0.00     0.000 C
ATOM     99  C4  BDP C   6      14.688  19.875  37.2420  0.00  0.00     0.000 C
ATOM    100  C5  BDP C   6      14.848  18.347  37.0650  0.00  0.00     0.000 C
ATOM    101  O5  BDP C   6      15.187  17.889  38.3840  0.00  0.00     0.000 O
BRANCH 100 102
ATOM    102   C  BDP C   6      15.983  17.984  36.1410  0.00  0.00     0.000 C
ATOM    103   O  BDP C   6      17.064  18.589  36.1520  0.00  0.00     0.000 OA
ATOM    104   O  BDP C   6      15.794  17.036  35.3690  0.00  0.00     0.000 OA
ENDBRANCH 100 102
ENDBRANCH 95 99
ENDBRANCH 75 95
ENDBRANCH 74 78
ENDBRANCH 58 74
ENDBRANCH 57 61
ENDBRANCH 37 57
ENDBRANCH 36 40
ENDBRANCH 23 36
ENDBRANCH 22 26
ENDBRANCH 1 22
TORSDOF 20
ENDMDL
MODEL 10
REMARK VINA RESULT:      -7.6      1.466      1.728
ROOT
ATOM      1  C1  NGY C   1      15.427  30.063  20.9260  0.00  0.00     0.000 C
ATOM      2  C2  NGY C   1      15.404  31.585  20.9640  0.00  0.00     0.000 C
ATOM      3  C3  NGY C   1      14.249  32.075  21.8320  0.00  0.00     0.000 C
ATOM      4  C4  NGY C   1      12.967  31.450  21.3150  0.00  0.00     0.000 C
ATOM      5  C5  NGY C   1      13.090  29.932  21.4070  0.00  0.00     0.000 C
ATOM      6  O5  NGY C   1      14.183  29.511  20.5500  0.00  0.00     0.000 O
ATOM      7   O  NGY C   1      14.206  33.494  21.7940  0.00  0.00     0.000 O
ATOM      9  HD  NGY C   1      14.347  34.120  21.2130  0.00  0.00     0.000 HD
ATOM      9   O  NGY C   1      11.847  31.896  22.0650  0.00  0.00     0.000 O
ATOM     11  HD  NGY C   1      11.988  32.522  21.4840  0.00  0.00     0.000 HD
ENDROOT
BRANCH 2 13
ATOM     11   N  NGY C   1      16.152  32.664  20.3640  0.00  0.00     0.000 N
ATOM     13  HD  NGY C   1      16.840  32.660  20.8910  0.00  0.00     0.000 HD
ATOM     13   C  NGY C   1      17.332  33.050  20.8480  0.00  0.00     0.000 C
ATOM     14   O  NGY C   1      17.763  32.599  21.9110  0.00  0.00     0.000 OA
ATOM     15   C  NGY C   1      18.109  34.031  20.0240  0.00  0.00     0.000 C
ENDBRANCH 2 13
BRANCH 5 16
ATOM     16   C  NGY C   1      11.893  29.168  20.9400  0.00  0.00     0.000 C
ATOM     17   O  NGY C   1      11.947  25.606  20.0650  0.00  0.00     0.000 OA
ATOM     18   O  NGY C   1      12.317  27.880  20.4860  0.00  0.00     0.000 O
ATOM     19   S  NGY C   1      11.190  26.790  20.3820  0.00  0.00     0.000 S
ATOM     20   O  NGY C   1      10.315  27.185  19.3100  0.00  0.00     0.000 OA
ATOM     21   O  NGY C   1      10.550  26.800  21.6870  0.00  0.00     0.000 OA
ENDBRANCH 5 16
BRANCH 1 22
ATOM     22  O4  BDP C   2      15.859  29.605  22.1190  0.00  0.00     0.000 O
BRANCH 22 26
ATOM     23  C1  BDP C   2      17.956  26.871  24.3760  0.00  0.00     0.000 C
ATOM     24  C2  BDP C   2      18.702  27.449  23.1960  0.00  0.00     0.000 C
ATOM     25  C3  BDP C   2      17.981  28.671  22.6920  0.00  0.00     0.000 C
ATOM     26  C4  BDP C   2      16.518  28.345  22.4140  0.00  0.00     0.000 C
ATOM     27  C5  BDP C   2      15.917  27.609  23.6050  0.00  0.00     0.000 C
ATOM     28  O5  BDP C   2      16.648  26.403  23.9450  0.00  0.00     0.000 O
ATOM     29   O  BDP C   2      19.992  27.943  23.5570  0.00  0.00     0.000 O
ATOM     31  HD  BDP C   2      20.264  28.654  23.1430  0.00  0.00     0.000 HD
ATOM     31   O  BDP C   2      18.630  29.067  21.4900  0.00  0.00     0.000 O
ATOM     33  HD  BDP C   2      18.902  29.778  21.0760  0.00  0.00     0.000 HD
BRANCH 27 33
ATOM     33   C  BDP C   2      14.494  27.170  23.3550  0.00  0.00     0.000 C
ATOM     34   O  BDP C   2      14.214  26.244  22.5570  0.00  0.00     0.000 OA
ATOM     35   O  BDP C   2      13.594  27.764  23.9260  0.00  0.00     0.000 OA
ENDBRANCH 27 33
BRANCH 23 36
ATOM     36  O4  SGN C   3      18.573  25.843  25.0040  0.00  0.00     0.000 O
BRANCH 36 40
ATOM     37  C1  SGN C   3      19.570  24.147  28.6860  0.00  0.00     0.000 C
ATOM     38  C2  SGN C   3      18.103  24.062  28.2350  0.00  0.00     0.000 C
ATOM     39  C3  SGN C   3      17.991  24.315  26.7390  0.00  0.00     0.000 C
ATOM     40  C4  SGN C   3      18.616  25.656  26.4210  0.00  0.00     0.000 C
ATOM     41  C5  SGN C   3      20.045  25.658  26.9190  0.00  0.00     0.000 C
ATOM     42  O5  SGN C   3      20.065  25.430  28.3360  0.00  0.00     0.000 O
ATOM     43   O  SGN C   3      16.620  24.290  26.3600  0.00  0.00     0.000 O
ATOM     45  HD  SGN C   3      17.067  24.796  25.8180  0.00  0.00     0.000 HD
BRANCH 38 47
ATOM     45   N  SGN C   3      17.945  23.891  29.6900  0.00  0.00     0.000 N
ATOM     47  HD  SGN C   3      18.158  24.404  29.0260  0.00  0.00     0.000 HD
ATOM     47   S  SGN C   3      17.112  22.586  30.0510  0.00  0.00     0.000 S
ATOM     48   O  SGN C   3      15.765  22.693  29.6140  0.00  0.00     0.000 OA
ATOM     49   O  SGN C   3      17.859  21.476  29.5570  0.00  0.00     0.000 OA
ATOM     50   O  SGN C   3      17.112  22.628  31.5120  0.00  0.00     0.000 OA
ENDBRANCH 38 47
BRANCH 41 51
ATOM     51   C  SGN C   3      20.785  26.942  26.6590  0.00  0.00     0.000 C
ATOM     52   O  SGN C   3      19.951  30.330  27.9650  0.00  0.00     0.000 OA
ATOM     53   O  SGN C   3      22.090  29.355  27.5130  0.00  0.00     0.000 OA
ATOM     54   O  SGN C   3      20.538  29.765  25.7270  0.00  0.00     0.000 OA
ATOM     55   O  SGN C   3      20.164  27.980  27.3840  0.00  0.00     0.000 O
ATOM     56   S  SGN C   3      20.740  29.499  27.1210  0.00  0.00     0.000 S
ENDBRANCH 41 51
BRANCH 37 57
ATOM     57  O4  IDS C   4      20.386  23.214  28.1370  0.00  0.00     0.000 O
BRANCH 57 61
ATOM     58  C1  IDS C   4      23.052  21.055  29.7790  0.00  0.00     0.000 C
ATOM     59  C2  IDS C   4      22.230  21.960  30.6410  0.00  0.00     0.000 C
ATOM     60  C3  IDS C   4      21.973  23.322  29.9920  0.00  0.00     0.000 C
ATOM     61  C4  IDS C   4      21.779  23.332  28.4820  0.00  0.00     0.000 C
ATOM     62  C5  IDS C   4      22.604  22.221  27.8210  0.00  0.00     0.000 C
ATOM     63  O5  IDS C   4      22.454  20.981  28.4960  0.00  0.00     0.000 O
ATOM     64   O  IDS C   4      23.114  24.102  30.3000  0.00  0.00     0.000 O
ATOM     66  HD  IDS C   4      23.564  24.277  29.5810  0.00  0.00     0.000 HD
BRANCH 59 66
ATOM     66   O  IDS C   4      20.905  21.378  30.9290  0.00  0.00     0.000 O
ATOM     67   S  IDS C   4      20.540  21.168  32.4640  0.00  0.00     0.000 S
ATOM     68   O  IDS C   4      20.490  22.516  32.9760  0.00  0.00     0.000 OA
ATOM     69   O  IDS C   4      19.269  20.471  32.4530  0.00  0.00     0.000 OA
ATOM     70   O  IDS C   4      21.624  20.406  33.0640  0.00  0.00     0.000 OA
ENDBRANCH 59 66
BRANCH 62 71
ATOM     71   C  IDS C   4      22.199  21.956  26.3830  0.00  0.00     0.000 C
ATOM     72   O  IDS C   4      21.827  20.848  26.0490  0.00  0.00     0.000 OA
ATOM     73   O  IDS C   4      22.357  22.865  25.5440  0.00  0.00     0.000 OA
ENDBRANCH 62 71
BRANCH 58 74
ATOM     74  O4  SGN C   5      24.400  21.237  29.8770  0.00  0.00     0.000 O
BRANCH 74 78
ATOM     75  C1  SGN C   5      28.142  19.381  29.8610  0.00  0.00     0.000 C
ATOM     76  C2  SGN C   5      27.617  19.855  28.4930  0.00  0.00     0.000 C
ATOM     77  C3  SGN C   5      26.426  20.806  28.6680  0.00  0.00     0.000 C
ATOM     78  C4  SGN C   5      25.397  20.243  29.6380  0.00  0.00     0.000 C
ATOM     79  C5  SGN C   5      26.085  19.853  30.9380  0.00  0.00     0.000 C
ATOM     80  O5  SGN C   5      27.099  18.849  30.6680  0.00  0.00     0.000 O
ATOM     81   O  SGN C   5      25.834  21.046  27.3950  0.00  0.00     0.000 O
ATOM     83  HD  SGN C   5      26.314  21.116  26.6780  0.00  0.00     0.000 HD
BRANCH 76 85
ATOM     83   N  SGN C   5      28.886  20.417  28.0120  0.00  0.00     0.000 N
ATOM     85  HD  SGN C   5      29.426  20.662  27.3810  0.00  0.00     0.000 HD
ATOM     85   S  SGN C   5      29.807  19.951  26.7760  0.00  0.00     0.000 S
ATOM     86   O  SGN C   5      30.931  20.811  26.6420  0.00  0.00     0.000 OA
ATOM     87   O  SGN C   5      30.070  18.567  26.9470  0.00  0.00     0.000 OA
ATOM     88   O  SGN C   5      28.778  20.238  25.6850  0.00  0.00     0.000 OA
ENDBRANCH 76 85
BRANCH 79 89
ATOM     89   C  SGN C   5      25.135  19.300  31.9820  0.00  0.00     0.000 C
ATOM     90   O  SGN C   5      24.457  18.133  31.4580  0.00  0.00     0.000 O
ATOM     91   S  SGN C   5      24.053  16.997  32.5180  0.00  0.00     0.000 S
ATOM     92   O  SGN C   5      25.253  16.678  33.2470  0.00  0.00     0.000 OA
ATOM     93   O  SGN C   5      23.027  17.552  33.3630  0.00  0.00     0.000 OA
ATOM     94   O  SGN C   5      23.585  15.921  31.6870  0.00  0.00     0.000 OA
ENDBRANCH 79 89
BRANCH 75 95
ATOM     95  O4  BDP C   6      28.667  20.490  30.4620  0.00  0.00     0.000 O
BRANCH 95 99
ATOM     96  C1  BDP C   6      31.935  20.970  33.2070  0.00  0.00     0.000 C
ATOM     97  C2  BDP C   6      32.103  20.035  32.0430  0.00  0.00     0.000 C
ATOM     98  C3  BDP C   6      31.059  20.217  30.9300  0.00  0.00     0.000 C
ATOM     99  C4  BDP C   6      29.649  20.267  31.4980  0.00  0.00     0.000 C
ATOM    100  C5  BDP C   6      29.636  21.292  32.6550  0.00  0.00     0.000 C
ATOM    101  O5  BDP C   6      30.589  20.758  33.5890  0.00  0.00     0.000 O
BRANCH 100 102
ATOM    102   C  BDP C   6      28.299  21.370  33.3490  0.00  0.00     0.000 C
ATOM    103   O  BDP C   6      27.910  20.494  34.1350  0.00  0.00     0.000 OA
ATOM    104   O  BDP C   6      27.602  22.362  33.1090  0.00  0.00     0.000 OA
ENDBRANCH 100 102
ENDBRANCH 95 99
ENDBRANCH 75 95
ENDBRANCH 74 78
ENDBRANCH 58 74
ENDBRANCH 57 61
ENDBRANCH 37 57
ENDBRANCH 36 40
ENDBRANCH 23 36
ENDBRANCH 22 26
ENDBRANCH 1 22
TORSDOF 20
ENDMDL
MODEL 11
REMARK VINA RESULT:      -7.5     18.232     21.667
ROOT
ATOM      1  C1  NGY C   1      26.905  32.943  10.4600  0.00  0.00     0.000 C
ATOM      2  C2  NGY C   1      27.191  33.896   9.3080  0.00  0.00     0.000 C
ATOM      3  C3  NGY C   1      28.555  34.553   9.4910  0.00  0.00     0.000 C
ATOM      4  C4  NGY C   1      28.588  35.209  10.8580  0.00  0.00     0.000 C
ATOM      5  C5  NGY C   1      28.371  34.136  11.9210  0.00  0.00     0.000 C
ATOM      6  O5  NGY C   1      27.055  33.557  11.7220  0.00  0.00     0.000 O
ATOM      7   O  NGY C   1      28.766  35.490   8.4440  0.00  0.00     0.000 O
ATOM      9  HD  NGY C   1      28.292  36.051   7.9870  0.00  0.00     0.000 HD
ATOM      9   O  NGY C   1      29.826  35.869  11.0760  0.00  0.00     0.000 O
ATOM     11  HD  NGY C   1      29.352  36.431  10.6180  0.00  0.00     0.000 HD
ENDROOT
BRANCH 2 13
ATOM     11   N  NGY C   1      26.856  34.427   8.0070  0.00  0.00     0.000 N
ATOM     13  HD  NGY C   1      26.633  33.688   7.6140  0.00  0.00     0.000 HD
ATOM     13   C  NGY C   1      26.442  33.638   7.0170  0.00  0.00     0.000 C
ATOM     14   O  NGY C   1      26.466  32.411   7.1270  0.00  0.00     0.000 OA
ATOM     15   C  NGY C   1      25.927  34.319   5.7860  0.00  0.00     0.000 C
ENDBRANCH 2 13
BRANCH 5 16
ATOM     16   C  NGY C   1      28.387  34.628  13.3330  0.00  0.00     0.000 C
ATOM     17   O  NGY C   1      28.693  32.442  16.2640  0.00  0.00     0.000 OA
ATOM     18   O  NGY C   1      28.299  33.504  14.2130  0.00  0.00     0.000 O
ATOM     19   S  NGY C   1      28.744  33.766  15.6970  0.00  0.00     0.000 S
ATOM     20   O  NGY C   1      27.772  34.651  16.2830  0.00  0.00     0.000 OA
ATOM     21   O  NGY C   1      30.069  34.353  15.5840  0.00  0.00     0.000 OA
ENDBRANCH 5 16
BRANCH 1 22
ATOM     22  O4  BDP C   2      27.681  31.847  10.3200  0.00  0.00     0.000 O
BRANCH 22 26
ATOM     23  C1  BDP C   2      27.976  27.744  10.5250  0.00  0.00     0.000 C
ATOM     24  C2  BDP C   2      26.593  28.283  10.2460  0.00  0.00     0.000 C
ATOM     25  C3  BDP C   2      26.687  29.730   9.8380  0.00  0.00     0.000 C
ATOM     26  C4  BDP C   2      27.475  30.522  10.8760  0.00  0.00     0.000 C
ATOM     27  C5  BDP C   2      28.771  29.794  11.2080  0.00  0.00     0.000 C
ATOM     28  O5  BDP C   2      28.549  28.437  11.6700  0.00  0.00     0.000 O
ATOM     29   O  BDP C   2      25.980  27.655   9.1200  0.00  0.00     0.000 O
ATOM     31  HD  BDP C   2      25.480  28.156   8.6220  0.00  0.00     0.000 HD
ATOM     31   O  BDP C   2      25.355  30.223   9.7540  0.00  0.00     0.000 O
ATOM     33  HD  BDP C   2      24.855  30.724   9.2560  0.00  0.00     0.000 HD
BRANCH 27 33
ATOM     33   C  BDP C   2      29.553  30.477  12.3030  0.00  0.00     0.000 C
ATOM     34   O  BDP C   2      29.228  30.384  13.5110  0.00  0.00     0.000 OA
ATOM     35   O  BDP C   2      30.509  31.167  11.9900  0.00  0.00     0.000 OA
ENDBRANCH 27 33
BRANCH 23 36
ATOM     36  O4  SGN C   3      28.041  26.416  10.7760  0.00  0.00     0.000 O
BRANCH 36 40
ATOM     37  C1  SGN C   3      30.362  22.974  10.3350  0.00  0.00     0.000 C
ATOM     38  C2  SGN C   3      30.564  23.814  11.6070  0.00  0.00     0.000 C
ATOM     39  C3  SGN C   3      29.381  24.746  11.8230  0.00  0.00     0.000 C
ATOM     40  C4  SGN C   3      29.202  25.602  10.5880  0.00  0.00     0.000 C
ATOM     41  C5  SGN C   3      29.033  24.697   9.3870  0.00  0.00     0.000 C
ATOM     42  O5  SGN C   3      30.193  23.863   9.2420  0.00  0.00     0.000 O
ATOM     43   O  SGN C   3      29.622  25.551  12.9700  0.00  0.00     0.000 O
ATOM     45  HD  SGN C   3      29.099  25.969  12.4210  0.00  0.00     0.000 HD
BRANCH 38 47
ATOM     45   N  SGN C   3      31.822  23.048  11.5420  0.00  0.00     0.000 N
ATOM     47  HD  SGN C   3      31.299  23.641  11.1890  0.00  0.00     0.000 HD
ATOM     47   S  SGN C   3      32.161  22.339  12.9240  0.00  0.00     0.000 S
ATOM     48   O  SGN C   3      32.443  23.290  13.9390  0.00  0.00     0.000 OA
ATOM     49   O  SGN C   3      31.100  21.421  13.1830  0.00  0.00     0.000 OA
ATOM     50   O  SGN C   3      33.407  21.645  12.6040  0.00  0.00     0.000 OA
ENDBRANCH 38 47
BRANCH 41 51
ATOM     51   C  SGN C   3      28.840  25.429   8.0870  0.00  0.00     0.000 C
ATOM     52   O  SGN C   3      25.627  26.068   6.3150  0.00  0.00     0.000 OA
ATOM     53   O  SGN C   3      27.593  27.427   6.4430  0.00  0.00     0.000 OA
ATOM     54   O  SGN C   3      27.661  25.290   5.3510  0.00  0.00     0.000 OA
ATOM     55   O  SGN C   3      27.461  25.488   7.7980  0.00  0.00     0.000 O
ATOM     56   S  SGN C   3      27.048  26.128   6.3390  0.00  0.00     0.000 S
ENDBRANCH 41 51
BRANCH 37 57
ATOM     57  O4  IDS C   4      29.293  22.140  10.3720  0.00  0.00     0.000 O
BRANCH 57 61
ATOM     58  C1  IDS C   4      28.862  18.398   9.8440  0.00  0.00     0.000 C
ATOM     59  C2  IDS C   4      30.247  18.958   9.9120  0.00  0.00     0.000 C
ATOM     60  C3  IDS C   4      30.379  20.299   9.1850  0.00  0.00     0.000 C
ATOM     61  C4  IDS C   4      29.179  21.234   9.2580  0.00  0.00     0.000 C
ATOM     62  C5  IDS C   4      27.872  20.436   9.3320  0.00  0.00     0.000 C
ATOM     63  O5  IDS C   4      27.949  19.387  10.2870  0.00  0.00     0.000 O
ATOM     64   O  IDS C   4      30.603  19.967   7.8280  0.00  0.00     0.000 O
ATOM     66  HD  IDS C   4      29.929  20.209   7.3410  0.00  0.00     0.000 HD
BRANCH 59 66
ATOM     66   O  IDS C   4      30.669  19.195  11.3060  0.00  0.00     0.000 O
ATOM     67   S  IDS C   4      31.904  18.339  11.8290  0.00  0.00     0.000 S
ATOM     68   O  IDS C   4      32.997  18.803  11.0100  0.00  0.00     0.000 OA
ATOM     69   O  IDS C   4      32.014  18.665  13.2380  0.00  0.00     0.000 OA
ATOM     70   O  IDS C   4      31.598  16.940  11.5720  0.00  0.00     0.000 OA
ENDBRANCH 59 66
BRANCH 62 71
ATOM     71   C  IDS C   4      26.683  21.281   9.7470  0.00  0.00     0.000 C
ATOM     72   O  IDS C   4      26.496  22.366   9.2320  0.00  0.00     0.000 OA
ATOM     73   O  IDS C   4      25.973  20.882  10.6920  0.00  0.00     0.000 OA
ENDBRANCH 62 71
BRANCH 58 74
ATOM     74  O4  SGN C   5      28.583  17.691   8.7120  0.00  0.00     0.000 O
BRANCH 74 78
ATOM     75  C1  SGN C   5      26.818  14.199   7.2530  0.00  0.00     0.000 C
ATOM     76  C2  SGN C   5      26.008  15.495   7.0630  0.00  0.00     0.000 C
ATOM     77  C3  SGN C   5      26.888  16.726   7.3170  0.00  0.00     0.000 C
ATOM     78  C4  SGN C   5      27.674  16.594   8.6140  0.00  0.00     0.000 C
ATOM     79  C5  SGN C   5      28.428  15.273   8.6180  0.00  0.00     0.000 C
ATOM     80  O5  SGN C   5      27.484  14.175   8.5080  0.00  0.00     0.000 O
ATOM     81   O  SGN C   5      26.062  17.885   7.3500  0.00  0.00     0.000 O
ATOM     83  HD  SGN C   5      25.378  17.971   6.8250  0.00  0.00     0.000 HD
BRANCH 76 85
ATOM     83   N  SGN C   5      25.154  14.607   6.2640  0.00  0.00     0.000 N
ATOM     85  HD  SGN C   5      24.786  14.364   5.5190  0.00  0.00     0.000 HD
ATOM     85   S  SGN C   5      24.098  14.975   5.1040  0.00  0.00     0.000 S
ATOM     86   O  SGN C   5      23.521  13.793   4.5640  0.00  0.00     0.000 OA
ATOM     87   O  SGN C   5      23.208  15.943   5.6390  0.00  0.00     0.000 OA
ATOM     88   O  SGN C   5      25.117  15.567   4.1340  0.00  0.00     0.000 OA
ENDBRANCH 76 85
BRANCH 79 89
ATOM     89   C  SGN C   5      29.265  15.059   9.8640  0.00  0.00     0.000 C
ATOM     90   O  SGN C   5      28.412  14.654  10.9630  0.00  0.00     0.000 O
ATOM     91   S  SGN C   5      29.062  13.677  12.0580  0.00  0.00     0.000 S
ATOM     92   O  SGN C   5      29.618  12.566  11.3310  0.00  0.00     0.000 OA
ATOM     93   O  SGN C   5      30.066  14.435  12.7590  0.00  0.00     0.000 OA
ATOM     94   O  SGN C   5      27.943  13.317  12.8850  0.00  0.00     0.000 OA
ENDBRANCH 79 89
BRANCH 75 95
ATOM     95  O4  BDP C   6      27.739  14.184   6.2440  0.00  0.00     0.000 O
BRANCH 95 99
ATOM     96  C1  BDP C   6      29.476  10.924   4.0520  0.00  0.00     0.000 C
ATOM     97  C2  BDP C   6      28.020  10.853   4.4180  0.00  0.00     0.000 C
ATOM     98  C3  BDP C   6      27.408  12.195   4.8470  0.00  0.00     0.000 C
ATOM     99  C4  BDP C   6      28.282  12.897   5.8760  0.00  0.00     0.000 C
ATOM    100  C5  BDP C   6      29.731  12.919   5.3370  0.00  0.00     0.000 C
ATOM    101  O5  BDP C   6      30.058  11.527   5.1930  0.00  0.00     0.000 O
BRANCH 100 102
ATOM    102   C  BDP C   6      30.706  13.526   6.3140  0.00  0.00     0.000 C
ATOM    103   O  BDP C   6      31.328  14.569   6.0680  0.00  0.00     0.000 OA
ATOM    104   O  BDP C   6      30.853  12.940   7.3930  0.00  0.00     0.000 OA
ENDBRANCH 100 102
ENDBRANCH 95 99
ENDBRANCH 75 95
ENDBRANCH 74 78
ENDBRANCH 58 74
ENDBRANCH 57 61
ENDBRANCH 37 57
ENDBRANCH 36 40
ENDBRANCH 23 36
ENDBRANCH 22 26
ENDBRANCH 1 22
TORSDOF 20
ENDMDL
MODEL 12
REMARK VINA RESULT:      -7.4     12.205     17.717
ROOT
ATOM      1  C1  NGY C   1      21.528  19.913  33.3030  0.00  0.00     0.000 C
ATOM      2  C2  NGY C   1      22.947  20.377  33.6050  0.00  0.00     0.000 C
ATOM      3  C3  NGY C   1      23.021  21.900  33.5820  0.00  0.00     0.000 C
ATOM      4  C4  NGY C   1      22.483  22.382  32.2480  0.00  0.00     0.000 C
ATOM      5  C5  NGY C   1      21.034  21.922  32.1090  0.00  0.00     0.000 C
ATOM      6  O5  NGY C   1      21.017  20.471  32.1120  0.00  0.00     0.000 O
ATOM      7   O  NGY C   1      24.365  22.305  33.7940  0.00  0.00     0.000 O
ATOM      9  HD  NGY C   1      25.156  22.026  33.5780  0.00  0.00     0.000 HD
ATOM      9   O  NGY C   1      22.557  23.798  32.1520  0.00  0.00     0.000 O
ATOM     11  HD  NGY C   1      23.348  23.519  31.9370  0.00  0.00     0.000 HD
ENDROOT
BRANCH 2 13
ATOM     11   N  NGY C   1      23.313  19.340  34.5410  0.00  0.00     0.000 N
ATOM     13  HD  NGY C   1      24.138  19.566  34.6750  0.00  0.00     0.000 HD
ATOM     13   C  NGY C   1      24.540  19.264  35.0540  0.00  0.00     0.000 C
ATOM     14   O  NGY C   1      25.449  19.988  34.6410  0.00  0.00     0.000 OA
ATOM     15   C  NGY C   1      24.745  18.282  36.1660  0.00  0.00     0.000 C
ENDBRANCH 2 13
BRANCH 5 16
ATOM     16   C  NGY C   1      20.357  22.332  30.8400  0.00  0.00     0.000 C
ATOM     17   O  NGY C   1      17.101  21.042  29.7460  0.00  0.00     0.000 OA
ATOM     18   O  NGY C   1      19.227  21.482  30.6270  0.00  0.00     0.000 O
ATOM     19   S  NGY C   1      18.151  22.022  29.6180  0.00  0.00     0.000 S
ATOM     20   O  NGY C   1      18.752  22.013  28.3100  0.00  0.00     0.000 OA
ATOM     21   O  NGY C   1      17.832  23.355  30.1010  0.00  0.00     0.000 OA
ENDBRANCH 5 16
BRANCH 1 22
ATOM     22  O4  BDP C   2      20.749  20.172  34.3750  0.00  0.00     0.000 O
BRANCH 22 26
ATOM     23  C1  BDP C   2      17.686  19.122  36.9200  0.00  0.00     0.000 C
ATOM     24  C2  BDP C   2      18.679  18.027  36.6110  0.00  0.00     0.000 C
ATOM     25  C3  BDP C   2      19.914  18.624  35.9900  0.00  0.00     0.000 C
ATOM     26  C4  BDP C   2      19.538  19.489  34.7920  0.00  0.00     0.000 C
ATOM     27  C5  BDP C   2      18.408  20.437  35.1740  0.00  0.00     0.000 C
ATOM     28  O5  BDP C   2      17.240  19.741  35.6800  0.00  0.00     0.000 O
ATOM     29   O  BDP C   2      19.169  17.388  37.7900  0.00  0.00     0.000 O
ATOM     31  HD  BDP C   2      19.998  17.138  37.7780  0.00  0.00     0.000 HD
ATOM     31   O  BDP C   2      20.732  17.539  35.5710  0.00  0.00     0.000 O
ATOM     33  HD  BDP C   2      21.561  17.288  35.5590  0.00  0.00     0.000 HD
BRANCH 27 33
ATOM     33   C  BDP C   2      17.921  21.256  34.0020  0.00  0.00     0.000 C
ATOM     34   O  BDP C   2      18.198  22.473  33.8800  0.00  0.00     0.000 OA
ATOM     35   O  BDP C   2      17.207  20.716  33.1730  0.00  0.00     0.000 OA
ENDBRANCH 27 33
BRANCH 23 36
ATOM     36  O4  SGN C   3      16.584  18.731  37.6010  0.00  0.00     0.000 O
BRANCH 36 40
ATOM     37  C1  SGN C   3      13.965  19.735  40.6930  0.00  0.00     0.000 C
ATOM     38  C2  SGN C   3      13.599  20.190  39.2710  0.00  0.00     0.000 C
ATOM     39  C3  SGN C   3      14.386  19.395  38.2390  0.00  0.00     0.000 C
ATOM     40  C4  SGN C   3      15.863  19.545  38.5300  0.00  0.00     0.000 C
ATOM     41  C5  SGN C   3      16.128  19.098  39.9520  0.00  0.00     0.000 C
ATOM     42  O5  SGN C   3      15.364  19.903  40.8630  0.00  0.00     0.000 O
ATOM     43   O  SGN C   3      14.072  19.876  36.9380  0.00  0.00     0.000 O
ATOM     45  HD  SGN C   3      14.870  19.540  36.9430  0.00  0.00     0.000 HD
BRANCH 38 47
ATOM     45   N  SGN C   3      12.845  21.417  39.5860  0.00  0.00     0.000 N
ATOM     47  HD  SGN C   3      13.590  21.050  39.3400  0.00  0.00     0.000 HD
ATOM     47   S  SGN C   3      11.278  21.157  39.6440  0.00  0.00     0.000 S
ATOM     48   O  SGN C   3      10.763  20.810  38.3670  0.00  0.00     0.000 OA
ATOM     49   O  SGN C   3      11.058  20.223  40.6990  0.00  0.00     0.000 OA
ATOM     50   O  SGN C   3      10.769  22.484  39.9850  0.00  0.00     0.000 OA
ENDBRANCH 38 47
BRANCH 41 51
ATOM     51   C  SGN C   3      17.570  19.193  40.3680  0.00  0.00     0.000 C
ATOM     52   O  SGN C   3      19.546  16.657  42.2510  0.00  0.00     0.000 OA
ATOM     53   O  SGN C   3      20.251  18.175  40.5390  0.00  0.00     0.000 OA
ATOM     54   O  SGN C   3      19.476  19.003  42.6550  0.00  0.00     0.000 OA
ATOM     55   O  SGN C   3      17.937  17.996  41.0160  0.00  0.00     0.000 O
ATOM     56   S  SGN C   3      19.444  17.956  41.6780  0.00  0.00     0.000 S
ENDBRANCH 41 51
BRANCH 37 57
ATOM     57  O4  IDS C   4      13.656  18.445  40.9720  0.00  0.00     0.000 O
BRANCH 57 61
ATOM     58  C1  IDS C   4      13.035  15.743  43.5770  0.00  0.00     0.000 C
ATOM     59  C2  IDS C   4      12.632  17.149  43.8900  0.00  0.00     0.000 C
ATOM     60  C3  IDS C   4      13.652  18.180  43.4020  0.00  0.00     0.000 C
ATOM     61  C4  IDS C   4      14.360  17.870  42.0900  0.00  0.00     0.000 C
ATOM     62  C5  IDS C   4      14.532  16.357  41.9100  0.00  0.00     0.000 C
ATOM     63  O5  IDS C   4      13.332  15.653  42.1940  0.00  0.00     0.000 O
ATOM     64   O  IDS C   4      14.626  18.254  44.4260  0.00  0.00     0.000 O
ATOM     66  HD  IDS C   4      15.384  17.943  44.1470  0.00  0.00     0.000 HD
BRANCH 59 66
ATOM     66   O  IDS C   4      11.347  17.499  43.2540  0.00  0.00     0.000 O
ATOM     67   S  IDS C   4      10.114  17.742  44.2310  0.00  0.00     0.000 S
ATOM     68   O  IDS C   4      10.510  18.914  44.9750  0.00  0.00     0.000 OA
ATOM     69   O  IDS C   4       8.975  17.931  43.3540  0.00  0.00     0.000 OA
ATOM     70   O  IDS C   4      10.008  16.572  45.0890  0.00  0.00     0.000 OA
ENDBRANCH 59 66
BRANCH 62 71
ATOM     71   C  IDS C   4      14.911  15.967  40.4940  0.00  0.00     0.000 C
ATOM     72   O  IDS C   4      14.062  15.927  39.6240  0.00  0.00     0.000 OA
ATOM     73   O  IDS C   4      16.080  15.591  40.2740  0.00  0.00     0.000 OA
ENDBRANCH 62 71
BRANCH 58 74
ATOM     74  O4  SGN C   5      13.884  15.174  44.4790  0.00  0.00     0.000 O
BRANCH 74 78
ATOM     75  C1  SGN C   5      14.974  11.676  46.4830  0.00  0.00     0.000 C
ATOM     76  C2  SGN C   5      15.586  11.871  45.0830  0.00  0.00     0.000 C
ATOM     77  C3  SGN C   5      15.394  13.316  44.6040  0.00  0.00     0.000 C
ATOM     78  C4  SGN C   5      13.958  13.784  44.7950  0.00  0.00     0.000 C
ATOM     79  C5  SGN C   5      13.532  13.539  46.2350  0.00  0.00     0.000 C
ATOM     80  O5  SGN C   5      13.625  12.121  46.5340  0.00  0.00     0.000 O
ATOM     81   O  SGN C   5      15.769  13.401  43.2330  0.00  0.00     0.000 O
ATOM     83  HD  SGN C   5      16.435  12.948  42.9150  0.00  0.00     0.000 HD
BRANCH 76 85
ATOM     83   N  SGN C   5      16.243  10.564  45.2140  0.00  0.00     0.000 N
ATOM     85  HD  SGN C   5      16.913  10.061  45.4340  0.00  0.00     0.000 HD
ATOM     85   S  SGN C   5      17.769  10.151  44.9070  0.00  0.00     0.000 S
ATOM     86   O  SGN C   5      17.986   8.781  45.2200  0.00  0.00     0.000 OA
ATOM     87   O  SGN C   5      18.056  10.564  43.5800  0.00  0.00     0.000 OA
ATOM     88   O  SGN C   5      18.400  11.051  45.9670  0.00  0.00     0.000 OA
ENDBRANCH 76 85
BRANCH 79 89
ATOM     89   C  SGN C   5      12.118  13.996  46.5320  0.00  0.00     0.000 C
ATOM     90   O  SGN C   5      11.458  13.025  47.3820  0.00  0.00     0.000 O
ATOM     91   S  SGN C   5      10.359  13.592  48.4050  0.00  0.00     0.000 S
ATOM     92   O  SGN C   5      10.999  14.650  49.1430  0.00  0.00     0.000 OA
ATOM     93   O  SGN C   5       9.249  14.063  47.6180  0.00  0.00     0.000 OA
ATOM     94   O  SGN C   5      10.037  12.446  49.2120  0.00  0.00     0.000 OA
ENDBRANCH 79 89
BRANCH 75 95
ATOM     95  O4  BDP C   6      15.738  12.428  47.3300  0.00  0.00     0.000 O
BRANCH 95 99
ATOM     96  C1  BDP C   6      16.048  12.273  51.6110  0.00  0.00     0.000 C
ATOM     97  C2  BDP C   6      15.707  11.013  50.8660  0.00  0.00     0.000 C
ATOM     98  C3  BDP C   6      15.992  11.072  49.3580  0.00  0.00     0.000 C
ATOM     99  C4  BDP C   6      15.427  12.341  48.7380  0.00  0.00     0.000 C
ATOM    100  C5  BDP C   6      15.895  13.541  49.5950  0.00  0.00     0.000 C
ATOM    101  O5  BDP C   6      15.341  13.265  50.8910  0.00  0.00     0.000 O
BRANCH 100 102
ATOM    102   C  BDP C   6      15.329  14.853  49.1170  0.00  0.00     0.000 C
ATOM    103   O  BDP C   6      14.285  15.333  49.5830  0.00  0.00     0.000 OA
ATOM    104   O  BDP C   6      15.962  15.448  48.2370  0.00  0.00     0.000 OA
ENDBRANCH 100 102
ENDBRANCH 95 99
ENDBRANCH 75 95
ENDBRANCH 74 78
ENDBRANCH 58 74
ENDBRANCH 57 61
ENDBRANCH 37 57
ENDBRANCH 36 40
ENDBRANCH 23 36
ENDBRANCH 22 26
ENDBRANCH 1 22
TORSDOF 20
ENDMDL
MODEL 13
REMARK VINA RESULT:      -7.3     18.407     22.101
ROOT
ATOM      1  C1  NGY C   1      29.467  40.231  13.0310  0.00  0.00     0.000 C
ATOM      2  C2  NGY C   1      29.312  40.590  14.5020  0.00  0.00     0.000 C
ATOM      3  C3  NGY C   1      27.846  40.854  14.8300  0.00  0.00     0.000 C
ATOM      4  C4  NGY C   1      27.328  41.914  13.8770  0.00  0.00     0.000 C
ATOM      5  C5  NGY C   1      27.465  41.396  12.4480  0.00  0.00     0.000 C
ATOM      6  O5  NGY C   1      28.874  41.183  12.1740  0.00  0.00     0.000 O
ATOM      7   O  NGY C   1      27.737  41.257  16.1880  0.00  0.00     0.000 O
ATOM      9  HD  NGY C   1      28.194  41.730  16.7510  0.00  0.00     0.000 HD
ATOM      9   O  NGY C   1      25.971  42.228  14.1550  0.00  0.00     0.000 O
ATOM     11  HD  NGY C   1      26.429  42.701  14.7180  0.00  0.00     0.000 HD
ENDROOT
BRANCH 2 13
ATOM     11   N  NGY C   1      30.301  39.694  15.0520  0.00  0.00     0.000 N
ATOM     13  HD  NGY C   1      30.309  39.986  15.8670  0.00  0.00     0.000 HD
ATOM     13   C  NGY C   1      30.670  39.761  16.3310  0.00  0.00     0.000 C
ATOM     14   O  NGY C   1      30.289  40.680  17.0560  0.00  0.00     0.000 OA
ATOM     15   C  NGY C   1      31.542  38.653  16.8380  0.00  0.00     0.000 C
ENDBRANCH 2 13
BRANCH 5 16
ATOM     16   C  NGY C   1      26.984  42.331  11.3850  0.00  0.00     0.000 C
ATOM     17   O  NGY C   1      23.963  41.775   9.3790  0.00  0.00     0.000 OA
ATOM     18   O  NGY C   1      25.917  41.703  10.6680  0.00  0.00     0.000 O
ATOM     19   S  NGY C   1      25.000  42.667   9.8330  0.00  0.00     0.000 S
ATOM     20   O  NGY C   1      25.796  43.179   8.7480  0.00  0.00     0.000 OA
ATOM     21   O  NGY C   1      24.583  43.688  10.7800  0.00  0.00     0.000 OA
ENDBRANCH 5 16
BRANCH 1 22
ATOM     22  O4  BDP C   2      28.986  38.985  12.8350  0.00  0.00     0.000 O
BRANCH 22 26
ATOM     23  C1  BDP C   2      28.920  35.405  10.8010  0.00  0.00     0.000 C
ATOM     24  C2  BDP C   2      30.180  35.682  11.5860  0.00  0.00     0.000 C
ATOM     25  C3  BDP C   2      29.934  36.811  12.5530  0.00  0.00     0.000 C
ATOM     26  C4  BDP C   2      29.370  38.023  11.8180  0.00  0.00     0.000 C
ATOM     27  C5  BDP C   2      28.215  37.592  10.9230  0.00  0.00     0.000 C
ATOM     28  O5  BDP C   2      28.593  36.559   9.9770  0.00  0.00     0.000 O
ATOM     29   O  BDP C   2      30.547  34.591  12.4300  0.00  0.00     0.000 O
ATOM     31  HD  BDP C   2      30.899  34.794  13.1950  0.00  0.00     0.000 HD
ATOM     31   O  BDP C   2      31.189  37.136  13.1370  0.00  0.00     0.000 O
ATOM     33  HD  BDP C   2      31.542  37.339  13.9020  0.00  0.00     0.000 HD
BRANCH 27 33
ATOM     33   C  BDP C   2      27.673  38.731  10.0920  0.00  0.00     0.000 C
ATOM     34   O  BDP C   2      26.444  38.888   9.8990  0.00  0.00     0.000 OA
ATOM     35   O  BDP C   2      28.466  39.495   9.5670  0.00  0.00     0.000 OA
ENDBRANCH 27 33
BRANCH 23 36
ATOM     36  O4  SGN C   3      28.970  34.324   9.9880  0.00  0.00     0.000 O
BRANCH 36 40
ATOM     37  C1  SGN C   3      26.724  31.324   8.1480  0.00  0.00     0.000 C
ATOM     38  C2  SGN C   3      26.880  32.659   7.4020  0.00  0.00     0.000 C
ATOM     39  C3  SGN C   3      28.047  33.453   7.9700  0.00  0.00     0.000 C
ATOM     40  C4  SGN C   3      27.830  33.645   9.4560  0.00  0.00     0.000 C
ATOM     41  C5  SGN C   3      27.664  32.287  10.1030  0.00  0.00     0.000 C
ATOM     42  O5  SGN C   3      26.537  31.609   9.5260  0.00  0.00     0.000 O
ATOM     43   O  SGN C   3      28.131  34.706   7.3020  0.00  0.00     0.000 O
ATOM     45  HD  SGN C   3      28.456  34.776   8.1010  0.00  0.00     0.000 HD
BRANCH 38 47
ATOM     45   N  SGN C   3      25.687  32.875   6.5640  0.00  0.00     0.000 N
ATOM     47  HD  SGN C   3      26.160  33.110   7.2500  0.00  0.00     0.000 HD
ATOM     47   S  SGN C   3      25.785  32.110   5.1750  0.00  0.00     0.000 S
ATOM     48   O  SGN C   3      26.821  32.643   4.3620  0.00  0.00     0.000 OA
ATOM     49   O  SGN C   3      25.862  30.719   5.4790  0.00  0.00     0.000 OA
ATOM     50   O  SGN C   3      24.508  32.456   4.5540  0.00  0.00     0.000 OA
ENDBRANCH 38 47
BRANCH 41 51
ATOM     51   C  SGN C   3      27.444  32.338  11.5910  0.00  0.00     0.000 C
ATOM     52   O  SGN C   3      30.024  32.043  14.2620  0.00  0.00     0.000 OA
ATOM     53   O  SGN C   3      28.012  33.339  14.2230  0.00  0.00     0.000 OA
ATOM     54   O  SGN C   3      27.915  30.940  14.1840  0.00  0.00     0.000 OA
ATOM     55   O  SGN C   3      28.693  32.237  12.2390  0.00  0.00     0.000 O
ATOM     56   S  SGN C   3      28.656  32.129  13.8810  0.00  0.00     0.000 S
ENDBRANCH 41 51
BRANCH 37 57
ATOM     57  O4  IDS C   4      27.780  30.482   8.0290  0.00  0.00     0.000 O
BRANCH 57 61
ATOM     58  C1  IDS C   4      28.654  26.806   7.5890  0.00  0.00     0.000 C
ATOM     59  C2  IDS C   4      27.284  27.269   7.2060  0.00  0.00     0.000 C
ATOM     60  C3  IDS C   4      26.709  28.290   8.1900  0.00  0.00     0.000 C
ATOM     61  C4  IDS C   4      27.695  29.273   8.8070  0.00  0.00     0.000 C
ATOM     62  C5  IDS C   4      29.076  28.627   8.9680  0.00  0.00     0.000 C
ATOM     63  O5  IDS C   4      29.478  27.942   7.7910  0.00  0.00     0.000 O
ATOM     64   O  IDS C   4      26.135  27.522   9.2320  0.00  0.00     0.000 O
ATOM     66  HD  IDS C   4      26.574  27.636   9.9690  0.00  0.00     0.000 HD
BRANCH 59 66
ATOM     66   O  IDS C   4      27.281  27.918   5.8810  0.00  0.00     0.000 O
ATOM     67   S  IDS C   4      26.500  27.159   4.7210  0.00  0.00     0.000 S
ATOM     68   O  IDS C   4      25.129  27.192   5.1710  0.00  0.00     0.000 OA
ATOM     69   O  IDS C   4      26.769  27.931   3.5230  0.00  0.00     0.000 OA
ATOM     70   O  IDS C   4      27.016  25.800   4.6720  0.00  0.00     0.000 OA
ENDBRANCH 59 66
BRANCH 62 71
ATOM     71   C  IDS C   4      30.174  29.635   9.2500  0.00  0.00     0.000 C
ATOM     72   O  IDS C   4      30.310  30.093  10.3680  0.00  0.00     0.000 OA
ATOM     73   O  IDS C   4      30.857  30.052   8.2930  0.00  0.00     0.000 OA
ENDBRANCH 62 71
BRANCH 58 74
ATOM     74  O4  SGN C   5      28.685  25.790   8.4970  0.00  0.00     0.000 O
BRANCH 74 78
ATOM     75  C1  SGN C   5      30.892  22.621  10.0870  0.00  0.00     0.000 C
ATOM     76  C2  SGN C   5      31.216  24.018  10.6490  0.00  0.00     0.000 C
ATOM     77  C3  SGN C   5      30.130  25.027  10.2520  0.00  0.00     0.000 C
ATOM     78  C4  SGN C   5      29.803  24.945   8.7670  0.00  0.00     0.000 C
ATOM     79  C5  SGN C   5      29.486  23.504   8.3970  0.00  0.00     0.000 C
ATOM     80  O5  SGN C   5      30.634  22.663   8.6900  0.00  0.00     0.000 O
ATOM     81   O  SGN C   5      30.569  26.337  10.5960  0.00  0.00     0.000 O
ATOM     83  HD  SGN C   5      31.027  26.489  11.3150  0.00  0.00     0.000 HD
BRANCH 76 85
ATOM     83   N  SGN C   5      32.286  24.302  11.6130  0.00  0.00     0.000 N
ATOM     85  HD  SGN C   5      32.886  24.056  12.1870  0.00  0.00     0.000 HD
ATOM     85   S  SGN C   5      32.575  23.630  13.0480  0.00  0.00     0.000 S
ATOM     86   O  SGN C   5      33.752  24.180  13.6260  0.00  0.00     0.000 OA
ATOM     87   O  SGN C   5      31.378  23.725  13.8040  0.00  0.00     0.000 OA
ATOM     88   O  SGN C   5      32.843  22.222  12.5200  0.00  0.00     0.000 OA
ENDBRANCH 76 85
BRANCH 79 89
ATOM     89   C  SGN C   5      29.124  23.322   6.9370  0.00  0.00     0.000 C
ATOM     90   O  SGN C   5      30.330  23.241   6.1390  0.00  0.00     0.000 O
ATOM     91   S  SGN C   5      30.262  22.330   4.8190  0.00  0.00     0.000 S
ATOM     92   O  SGN C   5      29.772  21.043   5.2390  0.00  0.00     0.000 OA
ATOM     93   O  SGN C   5      29.370  22.985   3.8970  0.00  0.00     0.000 OA
ATOM     94   O  SGN C   5      31.626  22.302   4.3660  0.00  0.00     0.000 OA
ENDBRANCH 79 89
BRANCH 75 95
ATOM     95  O4  BDP C   6      29.771  22.204  10.7480  0.00  0.00     0.000 O
BRANCH 95 99
ATOM     96  C1  BDP C   6      28.441  18.289  11.9100  0.00  0.00     0.000 C
ATOM     97  C2  BDP C   6      29.895  18.636  12.0730  0.00  0.00     0.000 C
ATOM     98  C3  BDP C   6      30.200  20.139  12.0010  0.00  0.00     0.000 C
ATOM     99  C4  BDP C   6      29.533  20.781  10.7930  0.00  0.00     0.000 C
ATOM    100  C5  BDP C   6      28.045  20.358  10.7880  0.00  0.00     0.000 C
ATOM    101  O5  BDP C   6      28.102  18.926  10.6920  0.00  0.00     0.000 O
BRANCH 100 102
ATOM    102   C  BDP C   6      27.297  20.875   9.5850  0.00  0.00     0.000 C
ATOM    103   O  BDP C   6      27.560  20.502   8.4320  0.00  0.00     0.000 OA
ATOM    104   O  BDP C   6      26.390  21.688   9.7980  0.00  0.00     0.000 OA
ENDBRANCH 100 102
ENDBRANCH 95 99
ENDBRANCH 75 95
ENDBRANCH 74 78
ENDBRANCH 58 74
ENDBRANCH 57 61
ENDBRANCH 37 57
ENDBRANCH 36 40
ENDBRANCH 23 36
ENDBRANCH 22 26
ENDBRANCH 1 22
TORSDOF 20
ENDMDL
MODEL 14
REMARK VINA RESULT:      -7.2     16.441     20.180
ROOT
ATOM      1  C1  NGY C   1      28.679  42.259  12.3790  0.00  0.00     0.000 C
ATOM      2  C2  NGY C   1      28.431  43.090  13.6300  0.00  0.00     0.000 C
ATOM      3  C3  NGY C   1      26.945  43.405  13.7700  0.00  0.00     0.000 C
ATOM      4  C4  NGY C   1      26.475  44.063  12.4870  0.00  0.00     0.000 C
ATOM      5  C5  NGY C   1      26.704  43.096  11.3290  0.00  0.00     0.000 C
ATOM      6  O5  NGY C   1      28.129  42.846  11.2200  0.00  0.00     0.000 O
ATOM      7   O  NGY C   1      26.750  44.240  14.9020  0.00  0.00     0.000 O
ATOM      9  HD  NGY C   1      27.167  44.890  15.2940  0.00  0.00     0.000 HD
ATOM      9   O  NGY C   1      25.101  44.412  12.5690  0.00  0.00     0.000 O
ATOM     11  HD  NGY C   1      25.519  45.061  12.9610  0.00  0.00     0.000 HD
ENDROOT
BRANCH 2 13
ATOM     11   N  NGY C   1      29.094  42.353  14.6800  0.00  0.00     0.000 N
ATOM     13  HD  NGY C   1      29.357  43.019  15.1670  0.00  0.00     0.000 HD
ATOM     13   C  NGY C   1      29.685  42.971  15.7020  0.00  0.00     0.000 C
ATOM     14   O  NGY C   1      29.813  44.196  15.7170  0.00  0.00     0.000 OA
ATOM     15   C  NGY C   1      30.154  42.105  16.8310  0.00  0.00     0.000 C
ENDBRANCH 2 13
BRANCH 5 16
ATOM     16   C  NGY C   1      26.278  43.601   9.9870  0.00  0.00     0.000 C
ATOM     17   O  NGY C   1      24.946  41.462   7.3200  0.00  0.00     0.000 OA
ATOM     18   O  NGY C   1      26.021  42.481   9.1350  0.00  0.00     0.000 O
ATOM     19   S  NGY C   1      25.152  42.782   7.8610  0.00  0.00     0.000 S
ATOM     20   O  NGY C   1      25.944  43.613   6.9920  0.00  0.00     0.000 OA
ATOM     21   O  NGY C   1      23.965  43.445   8.3760  0.00  0.00     0.000 OA
ENDBRANCH 5 16
BRANCH 1 22
ATOM     22  O4  BDP C   2      28.224  41.006  12.5930  0.00  0.00     0.000 O
BRANCH 22 26
ATOM     23  C1  BDP C   2      28.736  36.935  12.2330  0.00  0.00     0.000 C
ATOM     24  C2  BDP C   2      29.991  37.726  12.5180  0.00  0.00     0.000 C
ATOM     25  C3  BDP C   2      29.623  39.110  12.9830  0.00  0.00     0.000 C
ATOM     26  C4  BDP C   2      28.676  39.768  11.9840  0.00  0.00     0.000 C
ATOM     27  C5  BDP C   2      27.543  38.812  11.6390  0.00  0.00     0.000 C
ATOM     28  O5  BDP C   2      28.018  37.542  11.1220  0.00  0.00     0.000 O
ATOM     29   O  BDP C   2      30.735  37.190  13.6120  0.00  0.00     0.000 O
ATOM     31  HD  BDP C   2      31.136  37.761  14.1250  0.00  0.00     0.000 HD
ATOM     31   O  BDP C   2      30.832  39.852  13.0720  0.00  0.00     0.000 O
ATOM     33  HD  BDP C   2      31.233  40.424  13.5840  0.00  0.00     0.000 HD
BRANCH 27 33
ATOM     33   C  BDP C   2      26.622  39.367  10.5780  0.00  0.00     0.000 C
ATOM     34   O  BDP C   2      25.535  39.923  10.8650  0.00  0.00     0.000 OA
ATOM     35   O  BDP C   2      26.938  39.233   9.4070  0.00  0.00     0.000 OA
ENDBRANCH 27 33
BRANCH 23 36
ATOM     36  O4  SGN C   3      28.929  35.630  11.9310  0.00  0.00     0.000 O
BRANCH 36 40
ATOM     37  C1  SGN C   3      27.320  31.791  12.2450  0.00  0.00     0.000 C
ATOM     38  C2  SGN C   3      26.968  32.613  10.9950  0.00  0.00     0.000 C
ATOM     39  C3  SGN C   3      27.948  33.763  10.8200  0.00  0.00     0.000 C
ATOM     40  C4  SGN C   3      27.947  34.601  12.0810  0.00  0.00     0.000 C
ATOM     41  C5  SGN C   3      28.279  33.711  13.2580  0.00  0.00     0.000 C
ATOM     42  O5  SGN C   3      27.303  32.663  13.3640  0.00  0.00     0.000 O
ATOM     43   O  SGN C   3      27.564  34.540   9.6930  0.00  0.00     0.000 O
ATOM     45  HD  SGN C   3      27.991  35.035  10.2600  0.00  0.00     0.000 HD
BRANCH 38 47
ATOM     45   N  SGN C   3      25.632  32.078  10.6760  0.00  0.00     0.000 N
ATOM     47  HD  SGN C   3      26.110  32.707  11.0290  0.00  0.00     0.000 HD
ATOM     47   S  SGN C   3      25.699  30.895   9.6160  0.00  0.00     0.000 S
ATOM     48   O  SGN C   3      26.145  31.359   8.3500  0.00  0.00     0.000 OA
ATOM     49   O  SGN C   3      26.459  29.849  10.2180  0.00  0.00     0.000 OA
ATOM     50   O  SGN C   3      24.290  30.531   9.4870  0.00  0.00     0.000 OA
ENDBRANCH 38 47
BRANCH 41 51
ATOM     51   C  SGN C   3      28.316  34.427  14.5810  0.00  0.00     0.000 C
ATOM     52   O  SGN C   3      28.712  32.908  17.9590  0.00  0.00     0.000 OA
ATOM     53   O  SGN C   3      29.492  35.016  17.1350  0.00  0.00     0.000 OA
ATOM     54   O  SGN C   3      27.139  34.577  17.3180  0.00  0.00     0.000 OA
ATOM     55   O  SGN C   3      28.531  33.482  15.6050  0.00  0.00     0.000 O
ATOM     56   S  SGN C   3      28.461  34.050  17.1480  0.00  0.00     0.000 S
ENDBRANCH 41 51
BRANCH 37 57
ATOM     57  O4  IDS C   4      28.530  31.182  12.2000  0.00  0.00     0.000 O
BRANCH 57 61
ATOM     58  C1  IDS C   4      30.336  27.916  12.9350  0.00  0.00     0.000 C
ATOM     59  C2  IDS C   4      28.858  27.884  12.7060  0.00  0.00     0.000 C
ATOM     60  C3  IDS C   4      28.133  29.065  13.3560  0.00  0.00     0.000 C
ATOM     61  C4  IDS C   4      28.870  30.398  13.3590  0.00  0.00     0.000 C
ATOM     62  C5  IDS C   4      30.385  30.181  13.4500  0.00  0.00     0.000 C
ATOM     63  O5  IDS C   4      30.829  29.185  12.5400  0.00  0.00     0.000 O
ATOM     64   O  IDS C   4      27.912  28.675  14.6980  0.00  0.00     0.000 O
ATOM     66  HD  IDS C   4      28.380  29.164  15.2370  0.00  0.00     0.000 HD
BRANCH 59 66
ATOM     66   O  IDS C   4      28.530  27.931  11.2690  0.00  0.00     0.000 O
ATOM     67   S  IDS C   4      27.683  26.713  10.6930  0.00  0.00     0.000 S
ATOM     68   O  IDS C   4      26.420  26.837  11.3810  0.00  0.00     0.000 OA
ATOM     69   O  IDS C   4      27.623  26.944   9.2630  0.00  0.00     0.000 OA
ATOM     70   O  IDS C   4      28.379  25.491  11.0630  0.00  0.00     0.000 OA
ENDBRANCH 59 66
BRANCH 62 71
ATOM     71   C  IDS C   4      31.184  31.426  13.1160  0.00  0.00     0.000 C
ATOM     72   O  IDS C   4      31.767  31.510  12.0520  0.00  0.00     0.000 OA
ATOM     73   O  IDS C   4      31.312  32.302  13.9940  0.00  0.00     0.000 OA
ENDBRANCH 62 71
BRANCH 58 74
ATOM     74  O4  SGN C   5      30.746  27.380  14.1200  0.00  0.00     0.000 O
BRANCH 74 78
ATOM     75  C1  SGN C   5      33.662  24.445  14.6950  0.00  0.00     0.000 C
ATOM     76  C2  SGN C   5      33.250  25.243  15.9470  0.00  0.00     0.000 C
ATOM     77  C3  SGN C   5      31.958  26.030  15.6870  0.00  0.00     0.000 C
ATOM     78  C4  SGN C   5      32.026  26.801  14.3760  0.00  0.00     0.000 C
ATOM     79  C5  SGN C   5      32.420  25.855  13.2510  0.00  0.00     0.000 C
ATOM     80  O5  SGN C   5      33.719  25.273  13.5400  0.00  0.00     0.000 O
ATOM     81   O  SGN C   5      31.732  26.918  16.7780  0.00  0.00     0.000 O
ATOM     83  HD  SGN C   5      31.919  26.693  17.5930  0.00  0.00     0.000 HD
BRANCH 76 85
ATOM     83   N  SGN C   5      34.268  24.727  16.8700  0.00  0.00     0.000 N
ATOM     85  HD  SGN C   5      34.614  24.100  17.3570  0.00  0.00     0.000 HD
ATOM     85   S  SGN C   5      34.092  23.772  18.1560  0.00  0.00     0.000 S
ATOM     86   O  SGN C   5      35.358  23.483  18.7360  0.00  0.00     0.000 OA
ATOM     87   O  SGN C   5      33.119  24.374  18.9950  0.00  0.00     0.000 OA
ATOM     88   O  SGN C   5      33.562  22.562  17.3920  0.00  0.00     0.000 OA
ENDBRANCH 76 85
BRANCH 79 89
ATOM     89   C  SGN C   5      32.491  26.527  11.8950  0.00  0.00     0.000 C
ATOM     90   O  SGN C   5      33.075  25.619  10.9290  0.00  0.00     0.000 O
ATOM     91   S  SGN C   5      32.570  25.759   9.4110  0.00  0.00     0.000 S
ATOM     92   O  SGN C   5      31.132  25.696   9.4540  0.00  0.00     0.000 OA
ATOM     93   O  SGN C   5      33.052  27.024   8.9200  0.00  0.00     0.000 OA
ATOM     94   O  SGN C   5      33.173  24.629   8.7570  0.00  0.00     0.000 OA
ENDBRANCH 79 89
BRANCH 75 95
ATOM     95  O4  BDP C   6      32.699  23.491  14.5280  0.00  0.00     0.000 O
BRANCH 95 99
ATOM     96  C1  BDP C   6      32.884  19.724  12.4740  0.00  0.00     0.000 C
ATOM     97  C2  BDP C   6      34.136  20.264  13.1040  0.00  0.00     0.000 C
ATOM     98  C3  BDP C   6      33.899  21.391  14.1210  0.00  0.00     0.000 C
ATOM     99  C4  BDP C   6      32.968  22.455  13.5590  0.00  0.00     0.000 C
ATOM    100  C5  BDP C   6      31.721  21.744  12.9840  0.00  0.00     0.000 C
ATOM    101  O5  BDP C   6      32.261  20.888  11.9640  0.00  0.00     0.000 O
BRANCH 100 102
ATOM    102   C  BDP C   6      30.758  22.700  12.3260  0.00  0.00     0.000 C
ATOM    103   O  BDP C   6      29.817  23.220  12.9420  0.00  0.00     0.000 OA
ATOM    104   O  BDP C   6      30.955  22.959  11.1330  0.00  0.00     0.000 OA
ENDBRANCH 100 102
ENDBRANCH 95 99
ENDBRANCH 75 95
ENDBRANCH 74 78
ENDBRANCH 58 74
ENDBRANCH 57 61
ENDBRANCH 37 57
ENDBRANCH 36 40
ENDBRANCH 23 36
ENDBRANCH 22 26
ENDBRANCH 1 22
TORSDOF 20
ENDMDL
MODEL 15
REMARK VINA RESULT:      -7.1     16.373     20.830
ROOT
ATOM      1  C1  NGY C   1      28.920  42.301   9.7520  0.00  0.00     0.000 C
ATOM      2  C2  NGY C   1      28.913  43.392  10.8140  0.00  0.00     0.000 C
ATOM      3  C3  NGY C   1      27.480  43.748  11.1960  0.00  0.00     0.000 C
ATOM      4  C4  NGY C   1      26.727  44.112   9.9300  0.00  0.00     0.000 C
ATOM      5  C5  NGY C   1      26.740  42.910   8.9900  0.00  0.00     0.000 C
ATOM      6  O5  NGY C   1      28.118  42.625   8.6360  0.00  0.00     0.000 O
ATOM      7   O  NGY C   1      27.498  44.815  12.1320  0.00  0.00     0.000 O
ATOM      9  HD  NGY C   1      27.966  45.530  12.2750  0.00  0.00     0.000 HD
ATOM      9   O  NGY C   1      25.389  44.487  10.2250  0.00  0.00     0.000 O
ATOM     11  HD  NGY C   1      25.857  45.202  10.3680  0.00  0.00     0.000 HD
ENDROOT
BRANCH 2 13
ATOM     11   N  NGY C   1      30.041  42.949  11.5990  0.00  0.00     0.000 N
ATOM     13  HD  NGY C   1      30.138  43.647  12.1010  0.00  0.00     0.000 HD
ATOM     13   C  NGY C   1      30.578  43.717  12.5450  0.00  0.00     0.000 C
ATOM     14   O  NGY C   1      30.225  44.889  12.6910  0.00  0.00     0.000 OA
ATOM     15   C  NGY C   1      31.602  43.076  13.4310  0.00  0.00     0.000 C
ENDBRANCH 2 13
BRANCH 5 16
ATOM     16   C  NGY C   1      26.024  43.111   7.6920  0.00  0.00     0.000 C
ATOM     17   O  NGY C   1      27.018  45.575   5.1620  0.00  0.00     0.000 OA
ATOM     18   O  NGY C   1      26.542  44.283   7.0580  0.00  0.00     0.000 O
ATOM     19   S  NGY C   1      26.249  44.409   5.5190  0.00  0.00     0.000 S
ATOM     20   O  NGY C   1      24.833  44.620   5.3720  0.00  0.00     0.000 OA
ATOM     21   O  NGY C   1      26.711  43.151   4.9540  0.00  0.00     0.000 OA
ENDBRANCH 5 16
BRANCH 1 22
ATOM     22  O4  BDP C   2      28.565  41.133  10.3260  0.00  0.00     0.000 O
BRANCH 22 26
ATOM     23  C1  BDP C   2      28.817  37.022  10.3650  0.00  0.00     0.000 C
ATOM     24  C2  BDP C   2      30.036  37.743   9.8400  0.00  0.00     0.000 C
ATOM     25  C3  BDP C   2      29.963  39.199  10.2160  0.00  0.00     0.000 C
ATOM     26  C4  BDP C   2      28.634  39.796   9.7630  0.00  0.00     0.000 C
ATOM     27  C5  BDP C   2      27.487  38.893  10.1990  0.00  0.00     0.000 C
ATOM     28  O5  BDP C   2      27.624  37.535   9.7070  0.00  0.00     0.000 O
ATOM     29   O  BDP C   2      31.242  37.295  10.4600  0.00  0.00     0.000 O
ATOM     31  HD  BDP C   2      31.851  37.895  10.6000  0.00  0.00     0.000 HD
ATOM     31   O  BDP C   2      31.041  39.851   9.5570  0.00  0.00     0.000 O
ATOM     33  HD  BDP C   2      31.650  40.451   9.6970  0.00  0.00     0.000 HD
BRANCH 27 33
ATOM     33   C  BDP C   2      26.148  39.378   9.6960  0.00  0.00     0.000 C
ATOM     34   O  BDP C   2      25.760  39.163   8.5230  0.00  0.00     0.000 OA
ATOM     35   O  BDP C   2      25.445  40.027  10.4530  0.00  0.00     0.000 OA
ENDBRANCH 27 33
BRANCH 23 36
ATOM     36  O4  SGN C   3      28.825  35.678  10.2060  0.00  0.00     0.000 O
BRANCH 36 40
ATOM     37  C1  SGN C   3      27.158  32.195  11.7930  0.00  0.00     0.000 C
ATOM     38  C2  SGN C   3      26.749  32.597  10.3660  0.00  0.00     0.000 C
ATOM     39  C3  SGN C   3      27.741  33.596   9.7900  0.00  0.00     0.000 C
ATOM     40  C4  SGN C   3      27.833  34.786  10.7210  0.00  0.00     0.000 C
ATOM     41  C5  SGN C   3      28.216  34.297  12.1010  0.00  0.00     0.000 C
ATOM     42  O5  SGN C   3      27.226  33.373  12.5800  0.00  0.00     0.000 O
ATOM     43   O  SGN C   3      27.306  33.995   8.4960  0.00  0.00     0.000 O
ATOM     45  HD  SGN C   3      27.776  34.626   8.8570  0.00  0.00     0.000 HD
BRANCH 38 47
ATOM     45   N  SGN C   3      25.390  32.028  10.3270  0.00  0.00     0.000 N
ATOM     47  HD  SGN C   3      25.898  32.721  10.4390  0.00  0.00     0.000 HD
ATOM     47   S  SGN C   3      25.365  30.584   9.6640  0.00  0.00     0.000 S
ATOM     48   O  SGN C   3      25.705  30.641   8.2860  0.00  0.00     0.000 OA
ATOM     49   O  SGN C   3      26.170  29.742  10.4880  0.00  0.00     0.000 OA
ATOM     50   O  SGN C   3      23.949  30.237   9.7600  0.00  0.00     0.000 OA
ENDBRANCH 38 47
BRANCH 41 51
ATOM     51   C  SGN C   3      28.346  35.389  13.1270  0.00  0.00     0.000 C
ATOM     52   O  SGN C   3      30.138  35.218  16.3880  0.00  0.00     0.000 OA
ATOM     53   O  SGN C   3      29.872  37.067  14.8910  0.00  0.00     0.000 OA
ATOM     54   O  SGN C   3      27.966  36.112  15.9960  0.00  0.00     0.000 OA
ATOM     55   O  SGN C   3      29.147  34.923  14.1900  0.00  0.00     0.000 O
ATOM     56   S  SGN C   3      29.292  35.924  15.4880  0.00  0.00     0.000 S
ENDBRANCH 41 51
BRANCH 37 57
ATOM     57  O4  IDS C   4      28.351  31.557  11.8800  0.00  0.00     0.000 O
BRANCH 57 61
ATOM     58  C1  IDS C   4      30.286  28.498  13.0520  0.00  0.00     0.000 C
ATOM     59  C2  IDS C   4      28.858  28.330  12.6380  0.00  0.00     0.000 C
ATOM     60  C3  IDS C   4      27.966  29.480  13.1110  0.00  0.00     0.000 C
ATOM     61  C4  IDS C   4      28.592  30.867  13.1220  0.00  0.00     0.000 C
ATOM     62  C5  IDS C   4      30.093  30.784  13.4200  0.00  0.00     0.000 C
ATOM     63  O5  IDS C   4      30.730  29.780  12.6420  0.00  0.00     0.000 O
ATOM     64   O  IDS C   4      27.599  29.146  14.4360  0.00  0.00     0.000 O
ATOM     66  HD  IDS C   4      27.952  29.702  14.9980  0.00  0.00     0.000 HD
BRANCH 59 66
ATOM     66   O  IDS C   4      28.722  28.271  11.1700  0.00  0.00     0.000 O
ATOM     67   S  IDS C   4      28.251  26.881  10.5560  0.00  0.00     0.000 S
ATOM     68   O  IDS C   4      26.912  26.729  11.0750  0.00  0.00     0.000 OA
ATOM     69   O  IDS C   4      28.332  27.061   9.1200  0.00  0.00     0.000 OA
ATOM     70   O  IDS C   4      29.145  25.856  11.0710  0.00  0.00     0.000 OA
ENDBRANCH 59 66
BRANCH 62 71
ATOM     71   C  IDS C   4      30.834  32.071  13.1120  0.00  0.00     0.000 C
ATOM     72   O  IDS C   4      31.176  32.320  11.9720  0.00  0.00     0.000 OA
ATOM     73   O  IDS C   4      31.168  32.806  14.0620  0.00  0.00     0.000 OA
ENDBRANCH 62 71
BRANCH 58 74
ATOM     74  O4  SGN C   5      30.575  28.064  14.3120  0.00  0.00     0.000 O
BRANCH 74 78
ATOM     75  C1  SGN C   5      33.558  25.372  15.4510  0.00  0.00     0.000 C
ATOM     76  C2  SGN C   5      32.951  26.226  16.5810  0.00  0.00     0.000 C
ATOM     77  C3  SGN C   5      31.659  26.908  16.1110  0.00  0.00     0.000 C
ATOM     78  C4  SGN C   5      31.844  27.589  14.7610  0.00  0.00     0.000 C
ATOM     79  C5  SGN C   5      32.426  26.595  13.7670  0.00  0.00     0.000 C
ATOM     80  O5  SGN C   5      33.710  26.120  14.2520  0.00  0.00     0.000 O
ATOM     81   O  SGN C   5      31.251  27.852  17.0950  0.00  0.00     0.000 O
ATOM     83  HD  SGN C   5      31.349  27.697  17.9420  0.00  0.00     0.000 HD
BRANCH 76 85
ATOM     83   N  SGN C   5      33.660  25.229  17.3920  0.00  0.00     0.000 N
ATOM     85  HD  SGN C   5      33.697  24.645  18.0300  0.00  0.00     0.000 HD
ATOM     85   S  SGN C   5      33.598  24.970  18.9800  0.00  0.00     0.000 S
ATOM     86   O  SGN C   5      34.418  23.866  19.3370  0.00  0.00     0.000 OA
ATOM     87   O  SGN C   5      33.869  26.209  19.6170  0.00  0.00     0.000 OA
ATOM     88   O  SGN C   5      32.122  24.581  19.0260  0.00  0.00     0.000 OA
ENDBRANCH 76 85
BRANCH 79 89
ATOM     89   C  SGN C   5      32.625  27.174  12.3810  0.00  0.00     0.000 C
ATOM     90   O  SGN C   5      34.041  27.284  12.0940  0.00  0.00     0.000 O
ATOM     91   S  SGN C   5      34.481  27.115  10.5600  0.00  0.00     0.000 S
ATOM     92   O  SGN C   5      33.903  25.877  10.1050  0.00  0.00     0.000 OA
ATOM     93   O  SGN C   5      33.970  28.256   9.8450  0.00  0.00     0.000 OA
ATOM     94   O  SGN C   5      35.916  27.085  10.6300  0.00  0.00     0.000 OA
ENDBRANCH 79 89
BRANCH 75 95
ATOM     95  O4  BDP C   6      32.678  24.348  15.2460  0.00  0.00     0.000 O
BRANCH 95 99
ATOM     96  C1  BDP C   6      33.334  20.379  13.7400  0.00  0.00     0.000 C
ATOM     97  C2  BDP C   6      34.416  21.030  14.5550  0.00  0.00     0.000 C
ATOM     98  C3  BDP C   6      33.955  22.257  15.3560  0.00  0.00     0.000 C
ATOM     99  C4  BDP C   6      33.159  23.218  14.4860  0.00  0.00     0.000 C
ATOM    100  C5  BDP C   6      32.071  22.405  13.7470  0.00  0.00     0.000 C
ATOM    101  O5  BDP C   6      32.826  21.456  12.9750  0.00  0.00     0.000 O
BRANCH 100 102
ATOM    102   C  BDP C   6      31.266  23.246  12.7890  0.00  0.00     0.000 C
ATOM    103   O  BDP C   6      31.770  23.776  11.7890  0.00  0.00     0.000 OA
ATOM    104   O  BDP C   6      30.062  23.379  13.0390  0.00  0.00     0.000 OA
ENDBRANCH 100 102
ENDBRANCH 95 99
ENDBRANCH 75 95
ENDBRANCH 74 78
ENDBRANCH 58 74
ENDBRANCH 57 61
ENDBRANCH 37 57
ENDBRANCH 36 40
ENDBRANCH 23 36
ENDBRANCH 22 26
ENDBRANCH 1 22
TORSDOF 20
ENDMDL
MODEL 16
REMARK VINA RESULT:      -7.1     29.848     35.781
ROOT
ATOM      1  C1  NGY C   1      24.267   5.168  60.8000  0.00  0.00     0.000 C
ATOM      2  C2  NGY C   1      24.287   3.829  61.5220  0.00  0.00     0.000 C
ATOM      3  C3  NGY C   1      23.554   2.773  60.7000  0.00  0.00     0.000 C
ATOM      4  C4  NGY C   1      22.161   3.291  60.3960  0.00  0.00     0.000 C
ATOM      5  C5  NGY C   1      22.283   4.588  59.6010  0.00  0.00     0.000 C
ATOM      6  O5  NGY C   1      22.964   5.566  60.4300  0.00  0.00     0.000 O
ATOM      7   O  NGY C   1      23.523   1.554  61.4270  0.00  0.00     0.000 O
ATOM      9  HD  NGY C   1      23.446   1.306  62.2540  0.00  0.00     0.000 HD
ATOM      9   O  NGY C   1      21.413   2.335  59.6580  0.00  0.00     0.000 O
ATOM     11  HD  NGY C   1      21.336   2.087  60.4840  0.00  0.00     0.000 HD
ENDROOT
BRANCH 2 13
ATOM     11   N  NGY C   1      24.904   2.797  62.3230  0.00  0.00     0.000 N
ATOM     13  HD  NGY C   1      25.602   3.234  62.5900  0.00  0.00     0.000 HD
ATOM     13   C  NGY C   1      26.053   3.004  62.9630  0.00  0.00     0.000 C
ATOM     14   O  NGY C   1      26.707   4.033  62.7830  0.00  0.00     0.000 OA
ATOM     15   C  NGY C   1      26.488   1.941  63.9250  0.00  0.00     0.000 C
ENDBRANCH 2 13
BRANCH 5 16
ATOM     16   C  NGY C   1      20.985   5.221  59.2140  0.00  0.00     0.000 C
ATOM     17   O  NGY C   1      19.666   8.289  60.7330  0.00  0.00     0.000 OA
ATOM     18   O  NGY C   1      20.684   6.263  60.1470  0.00  0.00     0.000 O
ATOM     19   S  NGY C   1      19.623   7.318  59.6690  0.00  0.00     0.000 S
ATOM     20   O  NGY C   1      18.355   6.642  59.5940  0.00  0.00     0.000 OA
ATOM     21   O  NGY C   1      20.115   7.774  58.3790  0.00  0.00     0.000 OA
ENDBRANCH 5 16
BRANCH 1 22
ATOM     22  O4  BDP C   2      25.109   5.106  59.7470  0.00  0.00     0.000 O
BRANCH 22 26
ATOM     23  C1  BDP C   2      27.694   6.872  57.0710  0.00  0.00     0.000 C
ATOM     24  C2  BDP C   2      28.105   6.955  58.5220  0.00  0.00     0.000 C
ATOM     25  C3  BDP C   2      27.293   5.980  59.3330  0.00  0.00     0.000 C
ATOM     26  C4  BDP C   2      25.804   6.197  59.0860  0.00  0.00     0.000 C
ATOM     27  C5  BDP C   2      25.534   6.270  57.5890  0.00  0.00     0.000 C
ATOM     28  O5  BDP C   2      26.311   7.302  56.9290  0.00  0.00     0.000 O
ATOM     29   O  BDP C   2      29.451   6.530  58.7320  0.00  0.00     0.000 O
ATOM     31  HD  BDP C   2      29.613   6.105  59.4690  0.00  0.00     0.000 HD
ATOM     31   O  BDP C   2      27.602   6.222  60.7000  0.00  0.00     0.000 O
ATOM     33  HD  BDP C   2      27.763   5.797  61.4380  0.00  0.00     0.000 HD
BRANCH 27 33
ATOM     33   C  BDP C   2      24.090   6.581  57.2770  0.00  0.00     0.000 C
ATOM     34   O  BDP C   2      23.483   7.536  57.8180  0.00  0.00     0.000 OA
ATOM     35   O  BDP C   2      23.494   5.855  56.4990  0.00  0.00     0.000 OA
ENDBRANCH 27 33
BRANCH 23 36
ATOM     36  O4  SGN C   3      28.441   7.608  56.2140  0.00  0.00     0.000 O
BRANCH 36 40
ATOM     37  C1  SGN C   3      29.819   7.963  52.2900  0.00  0.00     0.000 C
ATOM     38  C2  SGN C   3      28.401   8.471  52.5970  0.00  0.00     0.000 C
ATOM     39  C3  SGN C   3      28.222   8.676  54.0940  0.00  0.00     0.000 C
ATOM     40  C4  SGN C   3      28.538   7.378  54.8060  0.00  0.00     0.000 C
ATOM     41  C5  SGN C   3      29.937   6.943  54.4290  0.00  0.00     0.000 C
ATOM     42  O5  SGN C   3      30.020   6.756  53.0080  0.00  0.00     0.000 O
ATOM     43   O  SGN C   3      26.886   9.087  54.3550  0.00  0.00     0.000 O
ATOM     45  HD  SGN C   3      27.206   8.672  55.0440  0.00  0.00     0.000 HD
BRANCH 38 47
ATOM     45   N  SGN C   3      27.879   8.218  51.2420  0.00  0.00     0.000 N
ATOM     47  HD  SGN C   3      28.005   7.933  52.0500  0.00  0.00     0.000 HD
ATOM     47   S  SGN C   3      27.773   9.551  50.3840  0.00  0.00     0.000 S
ATOM     48   O  SGN C   3      26.798  10.435  50.9190  0.00  0.00     0.000 OA
ATOM     49   O  SGN C   3      29.098  10.062  50.2560  0.00  0.00     0.000 OA
ATOM     50   O  SGN C   3      27.265   9.046  49.1100  0.00  0.00     0.000 OA
ENDBRANCH 38 47
BRANCH 41 51
ATOM     51   C  SGN C   3      30.378   5.659  55.0780  0.00  0.00     0.000 C
ATOM     52   O  SGN C   3      32.764   5.269  57.9120  0.00  0.00     0.000 OA
ATOM     53   O  SGN C   3      30.827   3.975  57.3620  0.00  0.00     0.000 OA
ATOM     54   O  SGN C   3      32.725   4.007  55.8930  0.00  0.00     0.000 OA
ATOM     55   O  SGN C   3      31.249   5.963  56.1450  0.00  0.00     0.000 O
ATOM     56   S  SGN C   3      31.958   4.683  56.8970  0.00  0.00     0.000 S
ENDBRANCH 41 51
BRANCH 37 57
ATOM     57  O4  IDS C   4      30.813   8.824  52.6210  0.00  0.00     0.000 O
BRANCH 57 61
ATOM     58  C1  IDS C   4      34.097  10.013  51.1140  0.00  0.00     0.000 C
ATOM     59  C2  IDS C   4      33.146   9.246  50.2500  0.00  0.00     0.000 C
ATOM     60  C3  IDS C   4      32.478   8.086  50.9910  0.00  0.00     0.000 C
ATOM     61  C4  IDS C   4      32.150   8.314  52.4600  0.00  0.00     0.000 C
ATOM     62  C5  IDS C   4      33.176   9.252  53.1070  0.00  0.00     0.000 C
ATOM     63  O5  IDS C   4      33.424  10.396  52.3020  0.00  0.00     0.000 O
ATOM     64   O  IDS C   4      33.394   7.010  50.9010  0.00  0.00     0.000 O
ATOM     66  HD  IDS C   4      33.713   6.817  51.6830  0.00  0.00     0.000 HD
BRANCH 59 66
ATOM     66   O  IDS C   4      32.056  10.105  49.7490  0.00  0.00     0.000 O
ATOM     67   S  IDS C   4      32.024  10.368  48.1800  0.00  0.00     0.000 S
ATOM     68   O  IDS C   4      31.767   9.058  47.6320  0.00  0.00     0.000 OA
ATOM     69   O  IDS C   4      30.958  11.331  47.9850  0.00  0.00     0.000 OA
ATOM     70   O  IDS C   4      33.338  10.861  47.7990  0.00  0.00     0.000 OA
ENDBRANCH 59 66
BRANCH 62 71
ATOM     71   C  IDS C   4      32.726   9.789  54.4520  0.00  0.00     0.000 C
ATOM     72   O  IDS C   4      32.632   9.042  55.4070  0.00  0.00     0.000 OA
ATOM     73   O  IDS C   4      32.359  10.979  54.5240  0.00  0.00     0.000 OA
ENDBRANCH 62 71
BRANCH 58 74
ATOM     74  O4  SGN C   5      35.351   9.485  51.1990  0.00  0.00     0.000 O
BRANCH 74 78
ATOM     75  C1  SGN C   5      39.450  10.283  51.2340  0.00  0.00     0.000 C
ATOM     76  C2  SGN C   5      38.733  10.373  52.5940  0.00  0.00     0.000 C
ATOM     77  C3  SGN C   5      37.339   9.735  52.5150  0.00  0.00     0.000 C
ATOM     78  C4  SGN C   5      36.565  10.228  51.3000  0.00  0.00     0.000 C
ATOM     79  C5  SGN C   5      37.412  10.041  50.0500  0.00  0.00     0.000 C
ATOM     80  O5  SGN C   5      38.645  10.797  50.1810  0.00  0.00     0.000 O
ATOM     81   O  SGN C   5      36.628  10.030  53.7130  0.00  0.00     0.000 O
ATOM     83  HD  SGN C   5      37.025  10.056  54.4830  0.00  0.00     0.000 HD
BRANCH 76 85
ATOM     83   N  SGN C   5      39.744   9.673  53.3970  0.00  0.00     0.000 N
ATOM     85  HD  SGN C   5      40.151   9.508  54.1430  0.00  0.00     0.000 HD
ATOM     85   S  SGN C   5      40.703  10.244  54.5570  0.00  0.00     0.000 S
ATOM     86   O  SGN C   5      41.501   9.201  55.1010  0.00  0.00     0.000 OA
ATOM     87   O  SGN C   5      41.385  11.367  54.0220  0.00  0.00     0.000 OA
ATOM     88   O  SGN C   5      39.585  10.625  55.5250  0.00  0.00     0.000 OA
ENDBRANCH 76 85
BRANCH 79 89
ATOM     89   C  SGN C   5      36.717  10.481  48.7780  0.00  0.00     0.000 C
ATOM     90   O  SGN C   5      37.099  11.840  48.4550  0.00  0.00     0.000 O
ATOM     91   S  SGN C   5      37.148  12.226  46.8980  0.00  0.00     0.000 S
ATOM     92   O  SGN C   5      37.977  11.236  46.2610  0.00  0.00     0.000 OA
ATOM     93   O  SGN C   5      35.792  12.204  46.4130  0.00  0.00     0.000 OA
ATOM     94   O  SGN C   5      37.729  13.541  46.9010  0.00  0.00     0.000 OA
ENDBRANCH 79 89
BRANCH 75 95
ATOM     95  O4  BDP C   6      39.686   8.954  51.0250  0.00  0.00     0.000 O
BRANCH 95 99
ATOM     96  C1  BDP C   6      42.880   6.956  48.9620  0.00  0.00     0.000 C
ATOM     97  C2  BDP C   6      43.196   8.193  49.7560  0.00  0.00     0.000 C
ATOM     98  C3  BDP C   6      42.098   8.606  50.7480  0.00  0.00     0.000 C
ATOM     99  C4  BDP C   6      40.729   8.618  50.0840  0.00  0.00     0.000 C
ATOM    100  C5  BDP C   6      40.545   7.272  49.3450  0.00  0.00     0.000 C
ATOM    101  O5  BDP C   6      41.621   7.262  48.3920  0.00  0.00     0.000 O
BRANCH 100 102
ATOM    102   C  BDP C   6      39.248   7.200  48.5800  0.00  0.00     0.000 C
ATOM    103   O  BDP C   6      38.372   6.362  48.8390  0.00  0.00     0.000 OA
ATOM    104   O  BDP C   6      39.083   8.032  47.6800  0.00  0.00     0.000 OA
ENDBRANCH 100 102
ENDBRANCH 95 99
ENDBRANCH 75 95
ENDBRANCH 74 78
ENDBRANCH 58 74
ENDBRANCH 57 61
ENDBRANCH 37 57
ENDBRANCH 36 40
ENDBRANCH 23 36
ENDBRANCH 22 26
ENDBRANCH 1 22
TORSDOF 20
ENDMDL
MODEL 17
REMARK VINA RESULT:      -7.0     17.296     20.874
ROOT
ATOM      1  C1  NGY C   1      29.791  41.319  11.0650  0.00  0.00     0.000 C
ATOM      2  C2  NGY C   1      30.148  42.187  12.2640  0.00  0.00     0.000 C
ATOM      3  C3  NGY C   1      28.884  42.618  13.0010  0.00  0.00     0.000 C
ATOM      4  C4  NGY C   1      27.959  43.291  12.0040  0.00  0.00     0.000 C
ATOM      5  C5  NGY C   1      27.614  42.292  10.9030  0.00  0.00     0.000 C
ATOM      6  O5  NGY C   1      28.841  41.930  10.2170  0.00  0.00     0.000 O
ATOM      7   O  NGY C   1      29.238  43.483  14.0700  0.00  0.00     0.000 O
ATOM      9  HD  NGY C   1      29.823  44.104  14.2200  0.00  0.00     0.000 HD
ATOM      9   O  NGY C   1      26.773  43.746  12.6390  0.00  0.00     0.000 O
ATOM     11  HD  NGY C   1      27.358  44.367  12.7890  0.00  0.00     0.000 HD
ENDROOT
BRANCH 2 13
ATOM     11   N  NGY C   1      31.328  42.746  12.8810  0.00  0.00     0.000 N
ATOM     13  HD  NGY C   1      31.627  42.032  13.2700  0.00  0.00     0.000 HD
ATOM     13   C  NGY C   1      32.148  42.001  13.6210  0.00  0.00     0.000 C
ATOM     14   O  NGY C   1      31.857  40.844  13.9260  0.00  0.00     0.000 OA
ATOM     15   C  NGY C   1      33.442  42.634  14.0340  0.00  0.00     0.000 C
ENDBRANCH 2 13
BRANCH 5 16
ATOM     16   C  NGY C   1      26.696  42.808   9.8420  0.00  0.00     0.000 C
ATOM     17   O  NGY C   1      24.942  40.669   7.4320  0.00  0.00     0.000 OA
ATOM     18   O  NGY C   1      26.365  41.733   8.9580  0.00  0.00     0.000 O
ATOM     19   S  NGY C   1      25.090  41.954   8.0670  0.00  0.00     0.000 S
ATOM     20   O  NGY C   1      25.403  42.997   7.1270  0.00  0.00     0.000 OA
ATOM     21   O  NGY C   1      24.043  42.316   9.0090  0.00  0.00     0.000 OA
ENDBRANCH 5 16
BRANCH 1 22
ATOM     22  O4  BDP C   2      29.389  40.110  11.5080  0.00  0.00     0.000 O
BRANCH 22 26
ATOM     23  C1  BDP C   2      29.428  36.006  11.1620  0.00  0.00     0.000 C
ATOM     24  C2  BDP C   2      30.742  36.694  10.8790  0.00  0.00     0.000 C
ATOM     25  C3  BDP C   2      30.690  38.111  11.3890  0.00  0.00     0.000 C
ATOM     26  C4  BDP C   2      29.469  38.830  10.8270  0.00  0.00     0.000 C
ATOM     27  C5  BDP C   2      28.229  37.965  11.0120  0.00  0.00     0.000 C
ATOM     28  O5  BDP C   2      28.365  36.653  10.4070  0.00  0.00     0.000 O
ATOM     29   O  BDP C   2      31.827  36.115  11.6050  0.00  0.00     0.000 O
ATOM     31  HD  BDP C   2      32.440  36.659  11.8850  0.00  0.00     0.000 HD
ATOM     31   O  BDP C   2      31.881  38.752  10.9480  0.00  0.00     0.000 O
ATOM     33  HD  BDP C   2      32.494  39.296  11.2280  0.00  0.00     0.000 HD
BRANCH 27 33
ATOM     33   C  BDP C   2      26.998  38.578  10.3880  0.00  0.00     0.000 C
ATOM     34   O  BDP C   2      26.148  39.201  11.0680  0.00  0.00     0.000 OA
ATOM     35   O  BDP C   2      26.818  38.428   9.1910  0.00  0.00     0.000 OA
ENDBRANCH 27 33
BRANCH 23 36
ATOM     36  O4  SGN C   3      29.391  34.685  10.8690  0.00  0.00     0.000 O
BRANCH 36 40
ATOM     37  C1  SGN C   3      27.566  31.059  11.8470  0.00  0.00     0.000 C
ATOM     38  C2  SGN C   3      27.010  31.837  10.6430  0.00  0.00     0.000 C
ATOM     39  C3  SGN C   3      28.021  32.867  10.1610  0.00  0.00     0.000 C
ATOM     40  C4  SGN C   3      28.383  33.774  11.3170  0.00  0.00     0.000 C
ATOM     41  C5  SGN C   3      28.897  32.926  12.4600  0.00  0.00     0.000 C
ATOM     42  O5  SGN C   3      27.883  31.994  12.8660  0.00  0.00     0.000 O
ATOM     43   O  SGN C   3      27.459  33.610   9.0870  0.00  0.00     0.000 O
ATOM     45  HD  SGN C   3      28.046  34.091   9.5030  0.00  0.00     0.000 HD
BRANCH 38 47
ATOM     45   N  SGN C   3      25.580  31.613  10.3640  0.00  0.00     0.000 N
ATOM     47  HD  SGN C   3      26.217  32.167  10.5580  0.00  0.00     0.000 HD
ATOM     47   S  SGN C   3      25.314  30.181   9.7260  0.00  0.00     0.000 S
ATOM     48   O  SGN C   3      25.890  30.075   8.4330  0.00  0.00     0.000 OA
ATOM     49   O  SGN C   3      25.729  29.219  10.6940  0.00  0.00     0.000 OA
ATOM     50   O  SGN C   3      23.861  30.193   9.5680  0.00  0.00     0.000 OA
ENDBRANCH 38 47
BRANCH 41 51
ATOM     51   C  SGN C   3      29.298  33.713  13.6780  0.00  0.00     0.000 C
ATOM     52   O  SGN C   3      27.757  33.567  17.0660  0.00  0.00     0.000 OA
ATOM     53   O  SGN C   3      30.039  33.936  16.4450  0.00  0.00     0.000 OA
ATOM     54   O  SGN C   3      28.343  35.526  15.8460  0.00  0.00     0.000 OA
ATOM     55   O  SGN C   3      28.489  33.318  14.7630  0.00  0.00     0.000 O
ATOM     56   S  SGN C   3      28.675  34.168  16.1600  0.00  0.00     0.000 S
ENDBRANCH 41 51
BRANCH 37 57
ATOM     57  O4  IDS C   4      28.676  30.327  11.5830  0.00  0.00     0.000 O
BRANCH 57 61
ATOM     58  C1  IDS C   4      30.336  26.930  11.1620  0.00  0.00     0.000 C
ATOM     59  C2  IDS C   4      28.922  27.101  10.7030  0.00  0.00     0.000 C
ATOM     60  C3  IDS C   4      28.088  27.955  11.6600  0.00  0.00     0.000 C
ATOM     61  C4  IDS C   4      28.806  29.110  12.3440  0.00  0.00     0.000 C
ATOM     62  C5  IDS C   4      30.282  28.768  12.5820  0.00  0.00     0.000 C
ATOM     63  O5  IDS C   4      30.886  28.210  11.4240  0.00  0.00     0.000 O
ATOM     64   O  IDS C   4      27.633  27.060  12.6580  0.00  0.00     0.000 O
ATOM     66  HD  IDS C   4      27.995  27.248  13.4210  0.00  0.00     0.000 HD
BRANCH 59 66
ATOM     66   O  IDS C   4      28.856  27.762   9.3860  0.00  0.00     0.000 O
ATOM     67   S  IDS C   4      28.188  26.931   8.2050  0.00  0.00     0.000 S
ATOM     68   O  IDS C   4      26.818  26.790   8.6360  0.00  0.00     0.000 OA
ATOM     69   O  IDS C   4      28.375  27.746   7.0210  0.00  0.00     0.000 OA
ATOM     70   O  IDS C   4      28.867  25.645   8.1470  0.00  0.00     0.000 OA
ENDBRANCH 59 66
BRANCH 62 71
ATOM     71   C  IDS C   4      31.123  29.979  12.9380  0.00  0.00     0.000 C
ATOM     72   O  IDS C   4      30.962  30.542  14.0040  0.00  0.00     0.000 OA
ATOM     73   O  IDS C   4      31.898  30.438  12.0760  0.00  0.00     0.000 OA
ENDBRANCH 62 71
BRANCH 58 74
ATOM     74  O4  SGN C   5      30.531  25.924  12.0610  0.00  0.00     0.000 O
BRANCH 74 78
ATOM     75  C1  SGN C   5      33.100  22.740  12.9030  0.00  0.00     0.000 C
ATOM     76  C2  SGN C   5      33.019  23.845  13.9730  0.00  0.00     0.000 C
ATOM     77  C3  SGN C   5      31.815  24.761  13.7180  0.00  0.00     0.000 C
ATOM     78  C4  SGN C   5      31.750  25.210  12.2650  0.00  0.00     0.000 C
ATOM     79  C5  SGN C   5      31.816  23.993  11.3540  0.00  0.00     0.000 C
ATOM     80  O5  SGN C   5      33.059  23.280  11.5880  0.00  0.00     0.000 O
ATOM     81   O  SGN C   5      31.899  25.886  14.5860  0.00  0.00     0.000 O
ATOM     83  HD  SGN C   5      32.196  25.814  15.3970  0.00  0.00     0.000 HD
BRANCH 76 85
ATOM     83   N  SGN C   5      33.192  22.770  14.9580  0.00  0.00     0.000 N
ATOM     85  HD  SGN C   5      33.249  22.476  15.7710  0.00  0.00     0.000 HD
ATOM     85   S  SGN C   5      34.040  22.764  16.3280  0.00  0.00     0.000 S
ATOM     86   O  SGN C   5      33.891  21.520  16.9990  0.00  0.00     0.000 OA
ATOM     87   O  SGN C   5      35.361  23.170  16.0050  0.00  0.00     0.000 OA
ATOM     88   O  SGN C   5      33.230  23.853  17.0280  0.00  0.00     0.000 OA
ENDBRANCH 76 85
BRANCH 79 89
ATOM     89   C  SGN C   5      31.734  24.336   9.8810  0.00  0.00     0.000 C
ATOM     90   O  SGN C   5      32.987  24.012   9.2310  0.00  0.00     0.000 O
ATOM     91   S  SGN C   5      32.906  23.558   7.6940  0.00  0.00     0.000 S
ATOM     92   O  SGN C   5      31.943  22.490   7.6360  0.00  0.00     0.000 OA
ATOM     93   O  SGN C   5      32.497  24.711   6.9330  0.00  0.00     0.000 OA
ATOM     94   O  SGN C   5      34.249  23.134   7.4040  0.00  0.00     0.000 OA
ENDBRANCH 79 89
BRANCH 75 95
ATOM     95  O4  BDP C   6      32.007  21.945  13.1060  0.00  0.00     0.000 O
BRANCH 95 99
ATOM     96  C1  BDP C   6      31.417  17.771  12.2830  0.00  0.00     0.000 C
ATOM     97  C2  BDP C   6      32.787  18.241  12.6830  0.00  0.00     0.000 C
ATOM     98  C3  BDP C   6      32.818  19.640  13.3180  0.00  0.00     0.000 C
ATOM     99  C4  BDP C   6      32.027  20.640  12.4880  0.00  0.00     0.000 C
ATOM    100  C5  BDP C   6      30.639  20.026  12.1920  0.00  0.00     0.000 C
ATOM    101  O5  BDP C   6      30.950  18.827  11.4640  0.00  0.00     0.000 O
BRANCH 100 102
ATOM    102   C  BDP C   6      29.792  20.902  11.3050  0.00  0.00     0.000 C
ATOM    103   O  BDP C   6      28.760  21.456  11.7120  0.00  0.00     0.000 OA
ATOM    104   O  BDP C   6      30.179  21.059  10.1410  0.00  0.00     0.000 OA
ENDBRANCH 100 102
ENDBRANCH 95 99
ENDBRANCH 75 95
ENDBRANCH 74 78
ENDBRANCH 58 74
ENDBRANCH 57 61
ENDBRANCH 37 57
ENDBRANCH 36 40
ENDBRANCH 23 36
ENDBRANCH 22 26
ENDBRANCH 1 22
TORSDOF 20
ENDMDL
MODEL 18
REMARK VINA RESULT:      -7.0     11.445     19.449
ROOT
ATOM      1  C1  NGY C   1      27.707  19.144  30.9250  0.00  0.00     0.000 C
ATOM      2  C2  NGY C   1      28.115  20.451  31.5890  0.00  0.00     0.000 C
ATOM      3  C3  NGY C   1      27.032  20.912  32.5590  0.00  0.00     0.000 C
ATOM      4  C4  NGY C   1      25.718  20.986  31.8040  0.00  0.00     0.000 C
ATOM      5  C5  NGY C   1      25.386  19.599  31.2620  0.00  0.00     0.000 C
ATOM      6  O5  NGY C   1      26.429  19.214  30.3290  0.00  0.00     0.000 O
ATOM      7   O  NGY C   1      27.402  22.168  33.1110  0.00  0.00     0.000 O
ATOM      9  HD  NGY C   1      27.803  22.887  32.8440  0.00  0.00     0.000 HD
ATOM      9   O  NGY C   1      24.672  21.444  32.6490  0.00  0.00     0.000 O
ATOM     11  HD  NGY C   1      25.073  22.163  32.3820  0.00  0.00     0.000 HD
ENDROOT
BRANCH 2 13
ATOM     11   N  NGY C   1      29.480  20.167  31.9670  0.00  0.00     0.000 N
ATOM     13  HD  NGY C   1      29.784  20.978  31.9890  0.00  0.00     0.000 HD
ATOM     13   C  NGY C   1      30.376  21.140  32.1290  0.00  0.00     0.000 C
ATOM     14   O  NGY C   1      30.114  22.304  31.8240  0.00  0.00     0.000 OA
ATOM     15   C  NGY C   1      31.695  20.747  32.7210  0.00  0.00     0.000 C
ENDBRANCH 2 13
BRANCH 5 16
ATOM     16   C  NGY C   1      24.105  19.506  30.4960  0.00  0.00     0.000 C
ATOM     17   O  NGY C   1      23.430  21.351  27.3980  0.00  0.00     0.000 OA
ATOM     18   O  NGY C   1      24.104  20.510  29.4780  0.00  0.00     0.000 O
ATOM     19   S  NGY C   1      23.078  20.291  28.3080  0.00  0.00     0.000 S
ATOM     20   O  NGY C   1      21.760  20.461  28.8630  0.00  0.00     0.000 OA
ATOM     21   O  NGY C   1      23.340  18.941  27.8380  0.00  0.00     0.000 OA
ENDBRANCH 5 16
BRANCH 1 22
ATOM     22  O4  BDP C   2      27.804  18.147  31.8300  0.00  0.00     0.000 O
BRANCH 22 26
ATOM     23  C1  BDP C   2      28.603  14.166  32.5190  0.00  0.00     0.000 C
ATOM     24  C2  BDP C   2      29.215  14.744  31.2650  0.00  0.00     0.000 C
ATOM     25  C3  BDP C   2      29.161  16.248  31.3230  0.00  0.00     0.000 C
ATOM     26  C4  BDP C   2      27.736  16.715  31.6020  0.00  0.00     0.000 C
ATOM     27  C5  BDP C   2      27.159  15.939  32.7790  0.00  0.00     0.000 C
ATOM     28  O5  BDP C   2      27.188  14.504  32.5720  0.00  0.00     0.000 O
ATOM     29   O  BDP C   2      30.611  14.462  31.1610  0.00  0.00     0.000 O
ATOM     31  HD  BDP C   2      31.106  15.079  30.8090  0.00  0.00     0.000 HD
ATOM     31   O  BDP C   2      29.593  16.727  30.0550  0.00  0.00     0.000 O
ATOM     33  HD  BDP C   2      30.088  17.344  29.7040  0.00  0.00     0.000 HD
BRANCH 27 33
ATOM     33   C  BDP C   2      25.713  16.286  33.0450  0.00  0.00     0.000 C
ATOM     34   O  BDP C   2      25.316  16.662  34.1730  0.00  0.00     0.000 OA
ATOM     35   O  BDP C   2      24.909  16.159  32.1360  0.00  0.00     0.000 OA
ENDBRANCH 27 33
BRANCH 23 36
ATOM     36  O4  SGN C   3      28.708  12.823  32.6490  0.00  0.00     0.000 O
BRANCH 36 40
ATOM     37  C1  SGN C   3      30.074   9.740  35.1110  0.00  0.00     0.000 C
ATOM     38  C2  SGN C   3      28.621  10.209  35.2920  0.00  0.00     0.000 C
ATOM     39  C3  SGN C   3      28.158  10.992  34.0730  0.00  0.00     0.000 C
ATOM     40  C4  SGN C   3      29.111  12.145  33.8420  0.00  0.00     0.000 C
ATOM     41  C5  SGN C   3      30.514  11.596  33.6990  0.00  0.00     0.000 C
ATOM     42  O5  SGN C   3      30.882  10.886  34.8920  0.00  0.00     0.000 O
ATOM     43   O  SGN C   3      26.834  11.462  34.2920  0.00  0.00     0.000 O
ATOM     45  HD  SGN C   3      27.248  11.991  33.7460  0.00  0.00     0.000 HD
BRANCH 38 47
ATOM     45   N  SGN C   3      28.895   9.542  36.5780  0.00  0.00     0.000 N
ATOM     47  HD  SGN C   3      29.074  10.186  36.0270  0.00  0.00     0.000 HD
ATOM     47   S  SGN C   3      27.758   8.503  36.9670  0.00  0.00     0.000 S
ATOM     48   O  SGN C   3      26.524   9.157  37.2270  0.00  0.00     0.000 OA
ATOM     49   O  SGN C   3      27.751   7.505  35.9480  0.00  0.00     0.000 OA
ATOM     50   O  SGN C   3      28.258   7.974  38.2340  0.00  0.00     0.000 OA
ENDBRANCH 38 47
BRANCH 41 51
ATOM     51   C  SGN C   3      31.564  12.647  33.4590  0.00  0.00     0.000 C
ATOM     52   O  SGN C   3      32.302  15.622  35.5760  0.00  0.00     0.000 OA
ATOM     53   O  SGN C   3      33.791  14.266  34.2800  0.00  0.00     0.000 OA
ATOM     54   O  SGN C   3      32.087  15.573  33.2050  0.00  0.00     0.000 OA
ATOM     55   O  SGN C   3      31.540  13.567  34.5270  0.00  0.00     0.000 O
ATOM     56   S  SGN C   3      32.522  14.880  34.3810  0.00  0.00     0.000 S
ENDBRANCH 41 51
BRANCH 37 57
ATOM     57  O4  IDS C   4      30.267   8.882  34.0800  0.00  0.00     0.000 O
BRANCH 57 61
ATOM     58  C1  IDS C   4      32.521   5.858  33.5820  0.00  0.00     0.000 C
ATOM     59  C2  IDS C   4      32.434   6.472  34.9430  0.00  0.00     0.000 C
ATOM     60  C3  IDS C   4      32.396   8.002  34.9000  0.00  0.00     0.000 C
ATOM     61  C4  IDS C   4      31.644   8.632  33.7360  0.00  0.00     0.000 C
ATOM     62  C5  IDS C   4      31.744   7.752  32.4840  0.00  0.00     0.000 C
ATOM     63  O5  IDS C   4      31.481   6.387  32.7770  0.00  0.00     0.000 O
ATOM     64   O  IDS C   4      33.750   8.407  34.8270  0.00  0.00     0.000 O
ATOM     66  HD  IDS C   4      33.915   8.775  34.0600  0.00  0.00     0.000 HD
BRANCH 59 66
ATOM     66   O  IDS C   4      31.216   6.043  35.6560  0.00  0.00     0.000 O
ATOM     67   S  IDS C   4      31.315   5.952  37.2410  0.00  0.00     0.000 S
ATOM     68   O  IDS C   4      31.531   7.324  37.6360  0.00  0.00     0.000 OA
ATOM     69   O  IDS C   4      30.048   5.388  37.6630  0.00  0.00     0.000 OA
ATOM     70   O  IDS C   4      32.464   5.117  37.5530  0.00  0.00     0.000 OA
ENDBRANCH 59 66
BRANCH 62 71
ATOM     71   C  IDS C   4      30.750   8.137  31.4050  0.00  0.00     0.000 C
ATOM     72   O  IDS C   4      30.682   9.289  31.0210  0.00  0.00     0.000 OA
ATOM     73   O  IDS C   4      29.944   7.274  31.0040  0.00  0.00     0.000 OA
ENDBRANCH 62 71
BRANCH 58 74
ATOM     74  O4  SGN C   5      33.781   5.770  33.0700  0.00  0.00     0.000 O
BRANCH 74 78
ATOM     75  C1  SGN C   5      36.371   3.687  30.5400  0.00  0.00     0.000 C
ATOM     76  C2  SGN C   5      35.380   4.645  29.8520  0.00  0.00     0.000 C
ATOM     77  C3  SGN C   5      34.737   5.588  30.8780  0.00  0.00     0.000 C
ATOM     78  C4  SGN C   5      34.222   4.827  32.0920  0.00  0.00     0.000 C
ATOM     79  C5  SGN C   5      35.335   3.955  32.6540  0.00  0.00     0.000 C
ATOM     80  O5  SGN C   5      35.772   3.013  31.6390  0.00  0.00     0.000 O
ATOM     81   O  SGN C   5      33.677   6.301  30.2490  0.00  0.00     0.000 O
ATOM     83  HD  SGN C   5      33.733   6.566  29.4260  0.00  0.00     0.000 HD
BRANCH 76 85
ATOM     83   N  SGN C   5      36.155   4.290  28.6570  0.00  0.00     0.000 N
ATOM     85  HD  SGN C   5      36.689   4.484  28.0030  0.00  0.00     0.000 HD
ATOM     85   S  SGN C   5      36.357   5.114  27.2870  0.00  0.00     0.000 S
ATOM     86   O  SGN C   5      37.229   4.412  26.4100  0.00  0.00     0.000 OA
ATOM     87   O  SGN C   5      35.065   5.433  26.7950  0.00  0.00     0.000 OA
ATOM     88   O  SGN C   5      37.073   6.307  27.9160  0.00  0.00     0.000 OA
ENDBRANCH 76 85
BRANCH 79 89
ATOM     89   C  SGN C   5      34.926   3.172  33.8860  0.00  0.00     0.000 C
ATOM     90   O  SGN C   5      36.106   2.701  34.5810  0.00  0.00     0.000 O
ATOM     91   S  SGN C   5      35.996   2.564  36.1760  0.00  0.00     0.000 S
ATOM     92   O  SGN C   5      35.520   3.833  36.6610  0.00  0.00     0.000 OA
ATOM     93   O  SGN C   5      35.075   1.490  36.4470  0.00  0.00     0.000 OA
ATOM     94   O  SGN C   5      37.345   2.269  36.5760  0.00  0.00     0.000 OA
ENDBRANCH 79 89
BRANCH 75 95
ATOM     95  O4  BDP C   6      37.398   4.470  30.9870  0.00  0.00     0.000 O
BRANCH 95 99
ATOM     96  C1  BDP C   6      41.482   3.410  31.7870  0.00  0.00     0.000 C
ATOM     97  C2  BDP C   6      40.717   2.616  30.7660  0.00  0.00     0.000 C
ATOM     98  C3  BDP C   6      39.427   3.290  30.2760  0.00  0.00     0.000 C
ATOM     99  C4  BDP C   6      38.587   3.789  31.4420  0.00  0.00     0.000 C
ATOM    100  C5  BDP C   6      39.505   4.612  32.3760  0.00  0.00     0.000 C
ATOM    101  O5  BDP C   6      40.507   3.665  32.7810  0.00  0.00     0.000 O
BRANCH 100 102
ATOM    102   C  BDP C   6      38.794   5.094  33.6140  0.00  0.00     0.000 C
ATOM    103   O  BDP C   6      38.077   6.105  33.6140  0.00  0.00     0.000 OA
ATOM    104   O  BDP C   6      38.946   4.425  34.6430  0.00  0.00     0.000 OA
ENDBRANCH 100 102
ENDBRANCH 95 99
ENDBRANCH 75 95
ENDBRANCH 74 78
ENDBRANCH 58 74
ENDBRANCH 57 61
ENDBRANCH 37 57
ENDBRANCH 36 40
ENDBRANCH 23 36
ENDBRANCH 22 26
ENDBRANCH 1 22
TORSDOF 20
ENDMDL
MODEL 19
REMARK VINA RESULT:      -6.9      7.082     19.589
ROOT
ATOM      1  C1  NGY C   1      31.074   7.563  32.5240  0.00  0.00     0.000 C
ATOM      2  C2  NGY C   1      31.455   6.897  33.8390  0.00  0.00     0.000 C
ATOM      3  C3  NGY C   1      32.913   7.193  34.1780  0.00  0.00     0.000 C
ATOM      4  C4  NGY C   1      33.770   6.772  33.0000  0.00  0.00     0.000 C
ATOM      5  C5  NGY C   1      33.341   7.570  31.7720  0.00  0.00     0.000 C
ATOM      6  O5  NGY C   1      31.960   7.239  31.4740  0.00  0.00     0.000 O
ATOM      7   O  NGY C   1      33.265   6.503  35.3680  0.00  0.00     0.000 O
ATOM      9  HD  NGY C   1      33.085   5.742  35.7400  0.00  0.00     0.000 HD
ATOM      9   O  NGY C   1      35.147   6.993  33.2690  0.00  0.00     0.000 O
ATOM     11  HD  NGY C   1      34.967   6.232  33.6410  0.00  0.00     0.000 HD
ENDROOT
BRANCH 2 13
ATOM     11   N  NGY C   1      31.171   6.901  35.2540  0.00  0.00     0.000 N
ATOM     13  HD  NGY C   1      30.357   6.607  35.2290  0.00  0.00     0.000 HD
ATOM     13   C  NGY C   1      29.988   6.515  35.7300  0.00  0.00     0.000 C
ATOM     14   O  NGY C   1      29.045   6.276  34.9740  0.00  0.00     0.000 OA
ATOM     15   C  NGY C   1      29.879   6.362  37.2170  0.00  0.00     0.000 C
ENDBRANCH 2 13
BRANCH 5 16
ATOM     16   C  NGY C   1      34.106   7.273  30.5220  0.00  0.00     0.000 C
ATOM     17   O  NGY C   1      34.423   3.923  29.0600  0.00  0.00     0.000 OA
ATOM     18   O  NGY C   1      34.200   5.855  30.3660  0.00  0.00     0.000 O
ATOM     19   S  NGY C   1      34.561   5.351  28.9230  0.00  0.00     0.000 S
ATOM     20   O  NGY C   1      35.920   5.747  28.6620  0.00  0.00     0.000 OA
ATOM     21   O  NGY C   1      33.591   5.999  28.0560  0.00  0.00     0.000 OA
ENDBRANCH 5 16
BRANCH 1 22
ATOM     22  O4  BDP C   2      30.971   8.894  32.7250  0.00  0.00     0.000 O
BRANCH 22 26
ATOM     23  C1  BDP C   2      29.298  12.562  31.8820  0.00  0.00     0.000 C
ATOM     24  C2  BDP C   2      28.333  11.502  32.3590  0.00  0.00     0.000 C
ATOM     25  C3  BDP C   2      29.101  10.358  32.9700  0.00  0.00     0.000 C
ATOM     26  C4  BDP C   2      30.161   9.854  31.9970  0.00  0.00     0.000 C
ATOM     27  C5  BDP C   2      30.959  11.029  31.4470  0.00  0.00     0.000 C
ATOM     28  O5  BDP C   2      30.120  12.025  30.8080  0.00  0.00     0.000 O
ATOM     29   O  BDP C   2      27.506  11.961  33.4280  0.00  0.00     0.000 O
ATOM     31  HD  BDP C   2      27.304  11.380  34.0390  0.00  0.00     0.000 HD
ATOM     31   O  BDP C   2      28.159   9.328  33.2450  0.00  0.00     0.000 O
ATOM     33  HD  BDP C   2      27.957   8.748  33.8550  0.00  0.00     0.000 HD
BRANCH 27 33
ATOM     33   C  BDP C   2      31.962  10.606  30.4010  0.00  0.00     0.000 C
ATOM     34   O  BDP C   2      31.645   9.878  29.4290  0.00  0.00     0.000 OA
ATOM     35   O  BDP C   2      33.122  10.960  30.5330  0.00  0.00     0.000 OA
ENDBRANCH 27 33
BRANCH 23 36
ATOM     36  O4  SGN C   3      28.727  13.702  31.4300  0.00  0.00     0.000 O
BRANCH 36 40
ATOM     37  C1  SGN C   3      28.909  17.873  31.3850  0.00  0.00     0.000 C
ATOM     38  C2  SGN C   3      30.013  17.102  30.6420  0.00  0.00     0.000 C
ATOM     39  C3  SGN C   3      29.576  15.668  30.3820  0.00  0.00     0.000 C
ATOM     40  C4  SGN C   3      29.208  15.022  31.7000  0.00  0.00     0.000 C
ATOM     41  C5  SGN C   3      28.138  15.856  32.3690  0.00  0.00     0.000 C
ATOM     42  O5  SGN C   3      28.630  17.186  32.5950  0.00  0.00     0.000 O
ATOM     43   O  SGN C   3      30.637  14.963  29.7480  0.00  0.00     0.000 O
ATOM     45  HD  SGN C   3      30.143  14.412  30.1970  0.00  0.00     0.000 HD
BRANCH 38 47
ATOM     45   N  SGN C   3      31.348  17.654  30.3540  0.00  0.00     0.000 N
ATOM     47  HD  SGN C   3      30.867  16.984  30.6180  0.00  0.00     0.000 HD
ATOM     47   S  SGN C   3      31.269  19.002  29.5150  0.00  0.00     0.000 S
ATOM     48   O  SGN C   3      30.754  18.772  28.2120  0.00  0.00     0.000 OA
ATOM     49   O  SGN C   3      30.569  19.946  30.3240  0.00  0.00     0.000 OA
ATOM     50   O  SGN C   3      32.682  19.352  29.3810  0.00  0.00     0.000 OA
ENDBRANCH 38 47
BRANCH 41 51
ATOM     51   C  SGN C   3      27.677  15.316  33.6960  0.00  0.00     0.000 C
ATOM     52   O  SGN C   3      29.748  14.738  36.7380  0.00  0.00     0.000 OA
ATOM     53   O  SGN C   3      27.460  15.419  36.5590  0.00  0.00     0.000 OA
ATOM     54   O  SGN C   3      28.147  13.249  35.7950  0.00  0.00     0.000 OA
ATOM     55   O  SGN C   3      28.769  15.304  34.5870  0.00  0.00     0.000 O
ATOM     56   S  SGN C   3      28.505  14.611  36.0570  0.00  0.00     0.000 S
ENDBRANCH 41 51
BRANCH 37 57
ATOM     57  O4  IDS C   4      27.750  18.006  30.6950  0.00  0.00     0.000 O
BRANCH 57 61
ATOM     58  C1  IDS C   4      25.386  20.396  28.9140  0.00  0.00     0.000 C
ATOM     59  C2  IDS C   4      26.843  20.733  28.9670  0.00  0.00     0.000 C
ATOM     60  C3  IDS C   4      27.476  20.406  30.3220  0.00  0.00     0.000 C
ATOM     61  C4  IDS C   4      26.960  19.163  31.0330  0.00  0.00     0.000 C
ATOM     62  C5  IDS C   4      25.480  18.928  30.7120  0.00  0.00     0.000 C
ATOM     63  O5  IDS C   4      25.216  19.049  29.3220  0.00  0.00     0.000 O
ATOM     64   O  IDS C   4      27.208  21.530  31.1390  0.00  0.00     0.000 O
ATOM     66  HD  IDS C   4      26.663  21.317  31.7780  0.00  0.00     0.000 HD
BRANCH 59 66
ATOM     66   O  IDS C   4      27.611  19.983  27.9550  0.00  0.00     0.000 O
ATOM     67   S  IDS C   4      28.133  20.813  26.7020  0.00  0.00     0.000 S
ATOM     68   O  IDS C   4      29.070  21.740  27.2890  0.00  0.00     0.000 OA
ATOM     69   O  IDS C   4      28.723  19.825  25.8200  0.00  0.00     0.000 OA
ATOM     70   O  IDS C   4      26.985  21.499  26.1310  0.00  0.00     0.000 OA
ENDBRANCH 59 66
BRANCH 62 71
ATOM     71   C  IDS C   4      24.999  17.543  31.1010  0.00  0.00     0.000 C
ATOM     72   O  IDS C   4      24.962  17.216  32.2710  0.00  0.00     0.000 OA
ATOM     73   O  IDS C   4      24.748  16.725  30.1930  0.00  0.00     0.000 OA
ENDBRANCH 62 71
BRANCH 58 74
ATOM     74  O4  SGN C   5      24.555  21.354  29.4140  0.00  0.00     0.000 O
BRANCH 74 78
ATOM     75  C1  SGN C   5      21.006  23.492  28.8910  0.00  0.00     0.000 C
ATOM     76  C2  SGN C   5      20.864  22.089  29.5100  0.00  0.00     0.000 C
ATOM     77  C3  SGN C   5      22.230  21.555  29.9630  0.00  0.00     0.000 C
ATOM     78  C4  SGN C   5      23.285  21.721  28.8770  0.00  0.00     0.000 C
ATOM     79  C5  SGN C   5      23.302  23.167  28.4030  0.00  0.00     0.000 C
ATOM     80  O5  SGN C   5      21.997  23.519  27.8720  0.00  0.00     0.000 O
ATOM     81   O  SGN C   5      22.094  20.184  30.3220  0.00  0.00     0.000 O
ATOM     83  HD  SGN C   5      21.385  19.887  30.7200  0.00  0.00     0.000 HD
BRANCH 76 85
ATOM     83   N  SGN C   5      19.953  21.780  30.6190  0.00  0.00     0.000 N
ATOM     85  HD  SGN C   5      19.204  21.481  30.9360  0.00  0.00     0.000 HD
ATOM     85   S  SGN C   5      18.359  21.989  30.7210  0.00  0.00     0.000 S
ATOM     86   O  SGN C   5      17.874  21.506  31.9670  0.00  0.00     0.000 OA
ATOM     87   O  SGN C   5      18.094  23.347  30.4070  0.00  0.00     0.000 OA
ATOM     88   O  SGN C   5      17.993  21.028  29.5930  0.00  0.00     0.000 OA
ENDBRANCH 76 85
BRANCH 79 89
ATOM     89   C  SGN C   5      24.341  23.440  27.3350  0.00  0.00     0.000 C
ATOM     90   O  SGN C   5      24.647  24.855  27.2990  0.00  0.00     0.000 O
ATOM     91   S  SGN C   5      26.141  25.259  26.8740  0.00  0.00     0.000 S
ATOM     92   O  SGN C   5      27.024  24.508  27.7290  0.00  0.00     0.000 OA
ATOM     93   O  SGN C   5      26.294  24.914  25.4840  0.00  0.00     0.000 OA
ATOM     94   O  SGN C   5      26.181  26.676  27.1140  0.00  0.00     0.000 OA
ENDBRANCH 79 89
BRANCH 75 95
ATOM     95  O4  BDP C   6      21.379  24.315  29.9160  0.00  0.00     0.000 O
BRANCH 95 99
ATOM     96  C1  BDP C   6      20.573  28.522  30.2200  0.00  0.00     0.000 C
ATOM     97  C2  BDP C   6      19.850  27.723  29.1730  0.00  0.00     0.000 C
ATOM     98  C3  BDP C   6      19.906  26.203  29.3860  0.00  0.00     0.000 C
ATOM     99  C4  BDP C   6      21.327  25.736  29.6630  0.00  0.00     0.000 C
ATOM    100  C5  BDP C   6      21.915  26.630  30.7790  0.00  0.00     0.000 C
ATOM    101  O5  BDP C   6      21.868  27.949  30.2140  0.00  0.00     0.000 O
BRANCH 100 102
ATOM    102   C  BDP C   6      23.356  26.307  31.0850  0.00  0.00     0.000 C
ATOM    103   O  BDP C   6      23.729  25.941  32.2090  0.00  0.00     0.000 OA
ATOM    104   O  BDP C   6      24.162  26.411  30.1520  0.00  0.00     0.000 OA
ENDBRANCH 100 102
ENDBRANCH 95 99
ENDBRANCH 75 95
ENDBRANCH 74 78
ENDBRANCH 58 74
ENDBRANCH 57 61
ENDBRANCH 37 57
ENDBRANCH 36 40
ENDBRANCH 23 36
ENDBRANCH 22 26
ENDBRANCH 1 22
TORSDOF 20
ENDMDL
MODEL 20
REMARK VINA RESULT:      -6.9     29.821     35.243
ROOT
ATOM      1  C1  NGY C   1      17.548  11.907  60.9290  0.00  0.00     0.000 C
ATOM      2  C2  NGY C   1      17.075  12.806  62.0630  0.00  0.00     0.000 C
ATOM      3  C3  NGY C   1      17.207  12.083  63.4000  0.00  0.00     0.000 C
ATOM      4  C4  NGY C   1      16.462  10.765  63.3030  0.00  0.00     0.000 C
ATOM      5  C5  NGY C   1      17.086   9.930  62.1880  0.00  0.00     0.000 C
ATOM      6  O5  NGY C   1      16.916  10.645  60.9360  0.00  0.00     0.000 O
ATOM      7   O  NGY C   1      16.693  12.912  64.4320  0.00  0.00     0.000 O
ATOM      9  HD  NGY C   1      16.045  13.478  64.5310  0.00  0.00     0.000 HD
ATOM      9   O  NGY C   1      16.520  10.057  64.5330  0.00  0.00     0.000 O
ATOM     11  HD  NGY C   1      15.872  10.623  64.6330  0.00  0.00     0.000 HD
ENDROOT
BRANCH 2 13
ATOM     11   N  NGY C   1      17.791  14.040  61.8430  0.00  0.00     0.000 N
ATOM     13  HD  NGY C   1      17.194  14.595  62.1350  0.00  0.00     0.000 HD
ATOM     13   C  NGY C   1      17.256  15.221  62.1480  0.00  0.00     0.000 C
ATOM     14   O  NGY C   1      16.077  15.316  62.4940  0.00  0.00     0.000 OA
ATOM     15   C  NGY C   1      18.164  16.411  62.0730  0.00  0.00     0.000 C
ENDBRANCH 2 13
BRANCH 5 16
ATOM     16   C  NGY C   1      16.462   8.588  61.9750  0.00  0.00     0.000 C
ATOM     17   O  NGY C   1      12.941   8.083  61.0780  0.00  0.00     0.000 OA
ATOM     18   O  NGY C   1      15.046   8.752  61.8560  0.00  0.00     0.000 O
ATOM     19   S  NGY C   1      14.276   7.554  61.1940  0.00  0.00     0.000 S
ATOM     20   O  NGY C   1      14.348   6.445  62.1080  0.00  0.00     0.000 OA
ATOM     21   O  NGY C   1      14.973   7.318  59.9400  0.00  0.00     0.000 OA
ENDBRANCH 5 16
BRANCH 1 22
ATOM     22  O4  BDP C   2      18.894  11.814  60.9800  0.00  0.00     0.000 O
BRANCH 22 26
ATOM     23  C1  BDP C   2      22.555  11.209  59.1940  0.00  0.00     0.000 C
ATOM     24  C2  BDP C   2      21.854  12.493  58.8190  0.00  0.00     0.000 C
ATOM     25  C3  BDP C   2      20.737  12.762  59.7930  0.00  0.00     0.000 C
ATOM     26  C4  BDP C   2      19.819  11.548  59.8930  0.00  0.00     0.000 C
ATOM     27  C5  BDP C   2      20.649  10.288  60.0980  0.00  0.00     0.000 C
ATOM     28  O5  BDP C   2      21.635  10.090  59.0520  0.00  0.00     0.000 O
ATOM     29   O  BDP C   2      22.700  13.635  58.9530  0.00  0.00     0.000 O
ATOM     31  HD  BDP C   2      22.324  14.366  59.2250  0.00  0.00     0.000 HD
ATOM     31   O  BDP C   2      20.014  13.881  59.2950  0.00  0.00     0.000 O
ATOM     33  HD  BDP C   2      19.638  14.612  59.5670  0.00  0.00     0.000 HD
BRANCH 27 33
ATOM     33   C  BDP C   2      19.805   9.035  60.1070  0.00  0.00     0.000 C
ATOM     34   O  BDP C   2      18.842   8.876  59.3200  0.00  0.00     0.000 OA
ATOM     35   O  BDP C   2      20.056   8.173  60.9330  0.00  0.00     0.000 OA
ENDBRANCH 27 33
BRANCH 23 36
ATOM     36  O4  SGN C   3      23.663  10.922  58.4710  0.00  0.00     0.000 O
BRANCH 36 40
ATOM     37  C1  SGN C   3      27.510   9.311  58.6600  0.00  0.00     0.000 C
ATOM     38  C2  SGN C   3      26.400   8.604  59.4560  0.00  0.00     0.000 C
ATOM     39  C3  SGN C   3      25.029   9.028  58.9480  0.00  0.00     0.000 C
ATOM     40  C4  SGN C   3      24.924  10.536  59.0240  0.00  0.00     0.000 C
ATOM     41  C5  SGN C   3      26.064  11.144  58.2360  0.00  0.00     0.000 C
ATOM     42  O5  SGN C   3      27.318  10.711  58.7850  0.00  0.00     0.000 O
ATOM     43   O  SGN C   3      24.024   8.406  59.7390  0.00  0.00     0.000 O
ATOM     45  HD  SGN C   3      23.725   9.152  59.4140  0.00  0.00     0.000 HD
BRANCH 38 47
ATOM     45   N  SGN C   3      26.655   7.753  60.6310  0.00  0.00     0.000 N
ATOM     47  HD  SGN C   3      26.180   8.373  60.2580  0.00  0.00     0.000 HD
ATOM     47   S  SGN C   3      27.627   6.542  60.2920  0.00  0.00     0.000 S
ATOM     48   O  SGN C   3      27.022   5.629  59.3870  0.00  0.00     0.000 OA
ATOM     49   O  SGN C   3      28.869   7.116  59.8880  0.00  0.00     0.000 OA
ATOM     50   O  SGN C   3      27.738   5.877  61.5890  0.00  0.00     0.000 OA
ENDBRANCH 38 47
BRANCH 41 51
ATOM     51   C  SGN C   3      26.072  12.649  58.2280  0.00  0.00     0.000 C
ATOM     52   O  SGN C   3      25.344  14.892  55.3450  0.00  0.00     0.000 OA
ATOM     53   O  SGN C   3      24.885  15.206  57.6730  0.00  0.00     0.000 OA
ATOM     54   O  SGN C   3      27.150  15.084  56.8850  0.00  0.00     0.000 OA
ATOM     55   O  SGN C   3      25.692  13.099  56.9470  0.00  0.00     0.000 O
ATOM     56   S  SGN C   3      25.777  14.723  56.6900  0.00  0.00     0.000 S
ENDBRANCH 41 51
BRANCH 37 57
ATOM     57  O4  IDS C   4      27.543   9.003  57.3410  0.00  0.00     0.000 O
BRANCH 57 61
ATOM     58  C1  IDS C   4      29.921   7.459  54.8040  0.00  0.00     0.000 C
ATOM     59  C2  IDS C   4      30.203   7.270  56.2610  0.00  0.00     0.000 C
ATOM     60  C3  IDS C   4      29.928   8.529  57.0860  0.00  0.00     0.000 C
ATOM     61  C4  IDS C   4      28.747   9.385  56.6480  0.00  0.00     0.000 C
ATOM     62  C5  IDS C   4      28.554   9.309  55.1290  0.00  0.00     0.000 C
ATOM     63  O5  IDS C   4      28.607   7.971  54.6580  0.00  0.00     0.000 O
ATOM     64   O  IDS C   4      31.105   9.307  56.9810  0.00  0.00     0.000 O
ATOM     66  HD  IDS C   4      30.950  10.034  56.5350  0.00  0.00     0.000 HD
BRANCH 59 66
ATOM     66   O  IDS C   4      29.368   6.200  56.8400  0.00  0.00     0.000 O
ATOM     67   S  IDS C   4      30.102   4.828  57.1750  0.00  0.00     0.000 S
ATOM     68   O  IDS C   4      31.032   5.199  58.2140  0.00  0.00     0.000 OA
ATOM     69   O  IDS C   4      29.043   3.931  57.5940  0.00  0.00     0.000 OA
ATOM     70   O  IDS C   4      30.790   4.402  55.9660  0.00  0.00     0.000 OA
ENDBRANCH 59 66
BRANCH 62 71
ATOM     71   C  IDS C   4      27.212   9.851  54.6730  0.00  0.00     0.000 C
ATOM     72   O  IDS C   4      26.443   9.136  54.0600  0.00  0.00     0.000 OA
ATOM     73   O  IDS C   4      26.969  11.061  54.8500  0.00  0.00     0.000 OA
ENDBRANCH 62 71
BRANCH 58 74
ATOM     74  O4  SGN C   5      30.937   8.021  54.0900  0.00  0.00     0.000 O
BRANCH 74 78
ATOM     75  C1  SGN C   5      32.961   8.134  50.4380  0.00  0.00     0.000 C
ATOM     76  C2  SGN C   5      31.692   9.001  50.5340  0.00  0.00     0.000 C
ATOM     77  C3  SGN C   5      31.243   9.145  51.9940  0.00  0.00     0.000 C
ATOM     78  C4  SGN C   5      31.208   7.800  52.7060  0.00  0.00     0.000 C
ATOM     79  C5  SGN C   5      32.545   7.097  52.5270  0.00  0.00     0.000 C
ATOM     80  O5  SGN C   5      32.801   6.893  51.1130  0.00  0.00     0.000 O
ATOM     81   O  SGN C   5      29.958   9.760  52.0240  0.00  0.00     0.000 O
ATOM     83  HD  SGN C   5      29.740  10.383  51.4640  0.00  0.00     0.000 HD
BRANCH 76 85
ATOM     83   N  SGN C   5      31.845   9.388  49.1260  0.00  0.00     0.000 N
ATOM     85  HD  SGN C   5      32.153   9.902  48.5010  0.00  0.00     0.000 HD
ATOM     85   S  SGN C   5      31.820  10.854  48.4600  0.00  0.00     0.000 S
ATOM     86   O  SGN C   5      32.055  10.768  47.0600  0.00  0.00     0.000 OA
ATOM     87   O  SGN C   5      30.618  11.483  48.8750  0.00  0.00     0.000 OA
ATOM     88   O  SGN C   5      33.057  11.384  49.1800  0.00  0.00     0.000 OA
ENDBRANCH 76 85
BRANCH 79 89
ATOM     89   C  SGN C   5      32.618   5.753  53.2230  0.00  0.00     0.000 C
ATOM     90   O  SGN C   5      33.801   5.039  52.7870  0.00  0.00     0.000 O
ATOM     91   S  SGN C   5      34.484   4.054  53.8540  0.00  0.00     0.000 S
ATOM     92   O  SGN C   5      34.697   4.832  55.0460  0.00  0.00     0.000 OA
ATOM     93   O  SGN C   5      33.570   2.961  54.0670  0.00  0.00     0.000 OA
ATOM     94   O  SGN C   5      35.703   3.656  53.2040  0.00  0.00     0.000 OA
ENDBRANCH 79 89
BRANCH 75 95
ATOM     95  O4  BDP C   6      33.952   8.858  51.0380  0.00  0.00     0.000 O
BRANCH 95 99
ATOM     96  C1  BDP C   6      38.173   9.008  50.2580  0.00  0.00     0.000 C
ATOM     97  C2  BDP C   6      37.232   8.833  49.1000  0.00  0.00     0.000 C
ATOM     98  C3  BDP C   6      35.767   9.171  49.4180  0.00  0.00     0.000 C
ATOM     99  C4  BDP C   6      35.312   8.501  50.7060  0.00  0.00     0.000 C
ATOM    100  C5  BDP C   6      36.363   8.804  51.8000  0.00  0.00     0.000 C
ATOM    101  O5  BDP C   6      37.570   8.229  51.2740  0.00  0.00     0.000 O
BRANCH 100 102
ATOM    102   C  BDP C   6      36.054   8.121  53.1080  0.00  0.00     0.000 C
ATOM    103   O  BDP C   6      35.303   8.624  53.9560  0.00  0.00     0.000 OA
ATOM    104   O  BDP C   6      36.576   7.017  53.2990  0.00  0.00     0.000 OA
ENDBRANCH 100 102
ENDBRANCH 95 99
ENDBRANCH 75 95
ENDBRANCH 74 78
ENDBRANCH 58 74
ENDBRANCH 57 61
ENDBRANCH 37 57
ENDBRANCH 36 40
ENDBRANCH 23 36
ENDBRANCH 22 26
ENDBRANCH 1 22
TORSDOF 20
ENDMDL
MODEL 21
REMARK VINA RESULT:      -6.9     13.865     20.030
ROOT
ATOM      1  C1  NGY C   1      26.323  30.720   6.9270  0.00  0.00     0.000 C
ATOM      2  C2  NGY C   1      26.847  29.373   6.4490  0.00  0.00     0.000 C
ATOM      3  C3  NGY C   1      28.165  29.553   5.7030  0.00  0.00     0.000 C
ATOM      4  C4  NGY C   1      27.949  30.563   4.5920  0.00  0.00     0.000 C
ATOM      5  C5  NGY C   1      27.508  31.886   5.2110  0.00  0.00     0.000 C
ATOM      6  O5  NGY C   1      26.242  31.672   5.8870  0.00  0.00     0.000 O
ATOM      7   O  NGY C   1      28.595  28.294   5.2050  0.00  0.00     0.000 O
ATOM      9  HD  NGY C   1      28.230  27.582   4.8730  0.00  0.00     0.000 HD
ATOM      9   O  NGY C   1      29.137  30.749   3.8360  0.00  0.00     0.000 O
ATOM     11  HD  NGY C   1      28.773  30.037   3.5050  0.00  0.00     0.000 HD
ENDROOT
BRANCH 2 13
ATOM     11   N  NGY C   1      27.331  28.270   7.2440  0.00  0.00     0.000 N
ATOM     13  HD  NGY C   1      26.609  27.793   7.2670  0.00  0.00     0.000 HD
ATOM     13   C  NGY C   1      26.547  27.242   7.5630  0.00  0.00     0.000 C
ATOM     14   O  NGY C   1      25.340  27.260   7.3150  0.00  0.00     0.000 OA
ATOM     15   C  NGY C   1      27.211  26.064   8.2090  0.00  0.00     0.000 C
ENDBRANCH 2 13
BRANCH 5 16
ATOM     16   C  NGY C   1      27.263  32.993   4.2360  0.00  0.00     0.000 C
ATOM     17   O  NGY C   1      29.504  35.863   3.7890  0.00  0.00     0.000 OA
ATOM     18   O  NGY C   1      28.209  34.038   4.4800  0.00  0.00     0.000 O
ATOM     19   S  NGY C   1      28.407  35.063   3.3060  0.00  0.00     0.000 S
ATOM     20   O  NGY C   1      27.187  35.817   3.1890  0.00  0.00     0.000 OA
ATOM     21   O  NGY C   1      28.693  34.237   2.1430  0.00  0.00     0.000 OA
ENDBRANCH 5 16
BRANCH 1 22
ATOM     22  O4  BDP C   2      27.086  31.142   7.9580  0.00  0.00     0.000 O
BRANCH 22 26
ATOM     23  C1  BDP C   2      27.515  33.104  11.5530  0.00  0.00     0.000 C
ATOM     24  C2  BDP C   2      26.409  32.077  11.5020  0.00  0.00     0.000 C
ATOM     25  C3  BDP C   2      26.594  31.196  10.2940  0.00  0.00     0.000 C
ATOM     26  C4  BDP C   2      26.724  32.046   9.0350  0.00  0.00     0.000 C
ATOM     27  C5  BDP C   2      27.741  33.156   9.2630  0.00  0.00     0.000 C
ATOM     28  O5  BDP C   2      27.413  33.991  10.4040  0.00  0.00     0.000 O
ATOM     29   O  BDP C   2      26.463  31.163  12.5970  0.00  0.00     0.000 O
ATOM     31  HD  BDP C   2      26.236  30.344  12.4300  0.00  0.00     0.000 HD
ATOM     31   O  BDP C   2      25.441  30.367  10.2070  0.00  0.00     0.000 O
ATOM     33  HD  BDP C   2      25.214  29.548  10.0400  0.00  0.00     0.000 HD
BRANCH 27 33
ATOM     33   C  BDP C   2      27.846  34.095   8.0850  0.00  0.00     0.000 C
ATOM     34   O  BDP C   2      28.952  34.470   7.6290  0.00  0.00     0.000 OA
ATOM     35   O  BDP C   2      26.816  34.523   7.5900  0.00  0.00     0.000 OA
ENDBRANCH 27 33
BRANCH 23 36
ATOM     36  O4  SGN C   3      27.537  33.876  12.6650  0.00  0.00     0.000 O
BRANCH 36 40
ATOM     37  C1  SGN C   3      29.952  35.812  15.4670  0.00  0.00     0.000 C
ATOM     38  C2  SGN C   3      29.778  36.478  14.0930  0.00  0.00     0.000 C
ATOM     39  C3  SGN C   3      28.565  35.907  13.3740  0.00  0.00     0.000 C
ATOM     40  C4  SGN C   3      28.720  34.405  13.2720  0.00  0.00     0.000 C
ATOM     41  C5  SGN C   3      28.907  33.839  14.6620  0.00  0.00     0.000 C
ATOM     42  O5  SGN C   3      30.077  34.413  15.2660  0.00  0.00     0.000 O
ATOM     43   O  SGN C   3      28.463  36.497  12.0840  0.00  0.00     0.000 O
ATOM     45  HD  SGN C   3      28.106  35.709  12.0760  0.00  0.00     0.000 HD
BRANCH 38 47
ATOM     45   N  SGN C   3      31.003  37.109  14.6160  0.00  0.00     0.000 N
ATOM     47  HD  SGN C   3      30.594  36.389  14.3620  0.00  0.00     0.000 HD
ATOM     47   S  SGN C   3      30.973  38.690  14.4620  0.00  0.00     0.000 S
ATOM     48   O  SGN C   3      30.998  39.079  13.0960  0.00  0.00     0.000 OA
ATOM     49   O  SGN C   3      29.873  39.156  15.2400  0.00  0.00     0.000 OA
ATOM     50   O  SGN C   3      32.253  39.071  15.0570  0.00  0.00     0.000 OA
ENDBRANCH 38 47
BRANCH 41 51
ATOM     51   C  SGN C   3      29.069  32.343  14.7000  0.00  0.00     0.000 C
ATOM     52   O  SGN C   3      31.184  30.245  12.4630  0.00  0.00     0.000 OA
ATOM     53   O  SGN C   3      30.653  29.947  14.7780  0.00  0.00     0.000 OA
ATOM     54   O  SGN C   3      28.931  29.824  13.1090  0.00  0.00     0.000 OA
ATOM     55   O  SGN C   3      29.999  31.960  13.7120  0.00  0.00     0.000 O
ATOM     56   S  SGN C   3      30.210  30.342  13.4960  0.00  0.00     0.000 S
ENDBRANCH 41 51
BRANCH 37 57
ATOM     57  O4  IDS C   4      28.931  36.026  16.3330  0.00  0.00     0.000 O
BRANCH 57 61
ATOM     58  C1  IDS C   4      27.362  37.312  19.5510  0.00  0.00     0.000 C
ATOM     59  C2  IDS C   4      28.143  38.264  18.7020  0.00  0.00     0.000 C
ATOM     60  C3  IDS C   4      29.407  37.632  18.1130  0.00  0.00     0.000 C
ATOM     61  C4  IDS C   4      29.312  36.166  17.7140  0.00  0.00     0.000 C
ATOM     62  C5  IDS C   4      28.339  35.415  18.6310  0.00  0.00     0.000 C
ATOM     63  O5  IDS C   4      27.124  36.129  18.8060  0.00  0.00     0.000 O
ATOM     64   O  IDS C   4      30.391  37.757  19.1220  0.00  0.00     0.000 O
ATOM     66  HD  IDS C   4      30.611  36.978  19.4290  0.00  0.00     0.000 HD
BRANCH 59 66
ATOM     66   O  IDS C   4      27.347  38.751  17.5590  0.00  0.00     0.000 O
ATOM     67   S  IDS C   4      26.938  40.288  17.5820  0.00  0.00     0.000 S
ATOM     68   O  IDS C   4      28.208  40.968  17.4860  0.00  0.00     0.000 OA
ATOM     69   O  IDS C   4      26.066  40.459  16.4370  0.00  0.00     0.000 OA
ATOM     70   O  IDS C   4      26.289  40.542  18.8590  0.00  0.00     0.000 OA
ENDBRANCH 59 66
BRANCH 62 71
ATOM     71   C  IDS C   4      27.940  34.056  18.0880  0.00  0.00     0.000 C
ATOM     72   O  IDS C   4      28.704  33.115  18.1780  0.00  0.00     0.000 OA
ATOM     73   O  IDS C   4      26.865  33.959  17.4630  0.00  0.00     0.000 OA
ENDBRANCH 62 71
BRANCH 58 74
ATOM     74  O4  SGN C   5      27.787  37.211  20.8430  0.00  0.00     0.000 O
BRANCH 74 78
ATOM     75  C1  SGN C   5      26.902  35.678  24.6250  0.00  0.00     0.000 C
ATOM     76  C2  SGN C   5      27.870  34.841  23.7660  0.00  0.00     0.000 C
ATOM     77  C3  SGN C   5      28.378  35.658  22.5710  0.00  0.00     0.000 C
ATOM     78  C4  SGN C   5      27.236  36.350  21.8390  0.00  0.00     0.000 C
ATOM     79  C5  SGN C   5      26.404  37.145  22.8330  0.00  0.00     0.000 C
ATOM     80  O5  SGN C   5      25.864  36.249  23.8400  0.00  0.00     0.000 O
ATOM     81   O  SGN C   5      29.086  34.793  21.6890  0.00  0.00     0.000 O
ATOM     83  HD  SGN C   5      29.582  34.148  21.9860  0.00  0.00     0.000 HD
BRANCH 76 85
ATOM     83   N  SGN C   5      28.190  33.511  24.2980  0.00  0.00     0.000 N
ATOM     85  HD  SGN C   5      28.349  32.963  24.9500  0.00  0.00     0.000 HD
ATOM     85   S  SGN C   5      29.187  33.101  25.4950  0.00  0.00     0.000 S
ATOM     86   O  SGN C   5      29.159  31.695  25.7060  0.00  0.00     0.000 OA
ATOM     87   O  SGN C   5      30.448  33.686  25.2100  0.00  0.00     0.000 OA
ATOM     88   O  SGN C   5      28.424  33.826  26.6010  0.00  0.00     0.000 OA
ENDBRANCH 76 85
BRANCH 79 89
ATOM     89   C  SGN C   5      25.251  37.893  22.1940  0.00  0.00     0.000 C
ATOM     90   O  SGN C   5      24.306  36.950  21.6320  0.00  0.00     0.000 O
ATOM     91   S  SGN C   5      22.764  37.394  21.6210  0.00  0.00     0.000 S
ATOM     92   O  SGN C   5      22.444  37.784  22.9700  0.00  0.00     0.000 OA
ATOM     93   O  SGN C   5      22.644  38.485  20.6890  0.00  0.00     0.000 OA
ATOM     94   O  SGN C   5      22.081  36.204  21.1930  0.00  0.00     0.000 OA
ENDBRANCH 79 89
BRANCH 75 95
ATOM     95  O4  BDP C   6      27.659  36.671  25.1780  0.00  0.00     0.000 O
BRANCH 95 99
ATOM     96  C1  BDP C   6      26.897  39.022  28.6910  0.00  0.00     0.000 C
ATOM     97  C2  BDP C   6      26.285  37.653  28.5920  0.00  0.00     0.000 C
ATOM     98  C3  BDP C   6      26.909  36.757  27.5120  0.00  0.00     0.000 C
ATOM     99  C4  BDP C   6      27.025  37.491  26.1840  0.00  0.00     0.000 C
ATOM    100  C5  BDP C   6      27.702  38.856  26.4500  0.00  0.00     0.000 C
ATOM    101  O5  BDP C   6      26.802  39.505  27.3640  0.00  0.00     0.000 O
BRANCH 100 102
ATOM    102   C  BDP C   6      27.799  39.708  25.2100  0.00  0.00     0.000 C
ATOM    103   O  BDP C   6      26.797  40.156  24.6340  0.00  0.00     0.000 OA
ATOM    104   O  BDP C   6      28.935  39.957  24.7910  0.00  0.00     0.000 OA
ENDBRANCH 100 102
ENDBRANCH 95 99
ENDBRANCH 75 95
ENDBRANCH 74 78
ENDBRANCH 58 74
ENDBRANCH 57 61
ENDBRANCH 37 57
ENDBRANCH 36 40
ENDBRANCH 23 36
ENDBRANCH 22 26
ENDBRANCH 1 22
TORSDOF 20
ENDMDL
MODEL 22
REMARK VINA RESULT:      -6.9     20.219     25.164
ROOT
ATOM      1  C1  NGY C   1      15.449  11.139  47.5070  0.00  0.00     0.000 C
ATOM      2  C2  NGY C   1      14.395  10.246  46.8680  0.00  0.00     0.000 C
ATOM      3  C3  NGY C   1      13.736  10.962  45.6930  0.00  0.00     0.000 C
ATOM      4  C4  NGY C   1      13.202  12.293  46.1870  0.00  0.00     0.000 C
ATOM      5  C5  NGY C   1      14.367  13.120  46.7230  0.00  0.00     0.000 C
ATOM      6  O5  NGY C   1      14.945  12.413  47.8500  0.00  0.00     0.000 O
ATOM      7   O  NGY C   1      12.708  10.138  45.1620  0.00  0.00     0.000 O
ATOM      9  HD  NGY C   1      12.115   9.584  45.4640  0.00  0.00     0.000 HD
ATOM      9   O  NGY C   1      12.545  12.996  45.1420  0.00  0.00     0.000 O
ATOM     11  HD  NGY C   1      11.952  12.441  45.4440  0.00  0.00     0.000 HD
ENDROOT
BRANCH 2 13
ATOM     11   N  NGY C   1      14.312   9.008  46.1290  0.00  0.00     0.000 N
ATOM     13  HD  NGY C   1      14.445   8.453  46.7810  0.00  0.00     0.000 HD
ATOM     13   C  NGY C   1      14.461   7.827  46.7260  0.00  0.00     0.000 C
ATOM     14   O  NGY C   1      14.816   7.749  47.9040  0.00  0.00     0.000 OA
ATOM     15   C  NGY C   1      14.150   6.613  45.9050  0.00  0.00     0.000 C
ENDBRANCH 2 13
BRANCH 5 16
ATOM     16   C  NGY C   1      14.000  14.474  47.2410  0.00  0.00     0.000 C
ATOM     17   O  NGY C   1      14.159  17.546  45.2420  0.00  0.00     0.000 OA
ATOM     18   O  NGY C   1      14.385  15.456  46.2750  0.00  0.00     0.000 O
ATOM     19   S  NGY C   1      13.697  16.860  46.4220  0.00  0.00     0.000 S
ATOM     20   O  NGY C   1      14.198  17.455  47.6330  0.00  0.00     0.000 OA
ATOM     21   O  NGY C   1      12.273  16.568  46.4640  0.00  0.00     0.000 OA
ENDBRANCH 5 16
BRANCH 1 22
ATOM     22  O4  BDP C   2      16.516  11.208  46.6830  0.00  0.00     0.000 O
BRANCH 22 26
ATOM     23  C1  BDP C   2      20.568  11.727  46.1510  0.00  0.00     0.000 C
ATOM     24  C2  BDP C   2      20.169  10.928  47.3690  0.00  0.00     0.000 C
ATOM     25  C3  BDP C   2      18.728  10.506  47.2490  0.00  0.00     0.000 C
ATOM     26  C4  BDP C   2      17.844  11.718  46.9740  0.00  0.00     0.000 C
ATOM     27  C5  BDP C   2      18.438  12.544  45.8400  0.00  0.00     0.000 C
ATOM     28  O5  BDP C   2      19.801  12.964  46.1070  0.00  0.00     0.000 O
ATOM     29   O  BDP C   2      20.875   9.691  47.4630  0.00  0.00     0.000 O
ATOM     31  HD  BDP C   2      20.434   9.016  47.7800  0.00  0.00     0.000 HD
ATOM     31   O  BDP C   2      18.367   9.909  48.4880  0.00  0.00     0.000 O
ATOM     33  HD  BDP C   2      17.926   9.235  48.8050  0.00  0.00     0.000 HD
BRANCH 27 33
ATOM     33   C  BDP C   2      17.662  13.814  45.5820  0.00  0.00     0.000 C
ATOM     34   O  BDP C   2      17.145  14.063  44.4670  0.00  0.00     0.000 OA
ATOM     35   O  BDP C   2      17.570  14.631  46.4840  0.00  0.00     0.000 OA
ENDBRANCH 27 33
BRANCH 23 36
ATOM     36  O4  SGN C   3      21.878  12.055  46.0770  0.00  0.00     0.000 O
BRANCH 36 40
ATOM     37  C1  SGN C   3      25.185  12.523  43.5710  0.00  0.00     0.000 C
ATOM     38  C2  SGN C   3      23.997  13.479  43.3720  0.00  0.00     0.000 C
ATOM     39  C3  SGN C   3      23.099  13.474  44.6010  0.00  0.00     0.000 C
ATOM     40  C4  SGN C   3      22.656  12.053  44.8770  0.00  0.00     0.000 C
ATOM     41  C5  SGN C   3      23.883  11.182  45.0340  0.00  0.00     0.000 C
ATOM     42  O5  SGN C   3      24.668  11.227  43.8320  0.00  0.00     0.000 O
ATOM     43   O  SGN C   3      21.980  14.320  44.3660  0.00  0.00     0.000 O
ATOM     45  HD  SGN C   3      21.768  13.700  44.9330  0.00  0.00     0.000 HD
BRANCH 38 47
ATOM     45   N  SGN C   3      24.514  13.595  41.9970  0.00  0.00     0.000 N
ATOM     47  HD  SGN C   3      24.087  13.128  42.5890  0.00  0.00     0.000 HD
ATOM     47   S  SGN C   3      24.940  15.084  41.6430  0.00  0.00     0.000 S
ATOM     48   O  SGN C   3      23.816  15.952  41.6130  0.00  0.00     0.000 OA
ATOM     49   O  SGN C   3      25.994  15.432  42.5390  0.00  0.00     0.000 OA
ATOM     50   O  SGN C   3      25.426  14.937  40.2720  0.00  0.00     0.000 OA
ENDBRANCH 38 47
BRANCH 41 51
ATOM     51   C  SGN C   3      23.579   9.736  45.3190  0.00  0.00     0.000 C
ATOM     52   O  SGN C   3      25.681   7.322  47.2240  0.00  0.00     0.000 OA
ATOM     53   O  SGN C   3      23.296   7.485  47.0810  0.00  0.00     0.000 OA
ATOM     54   O  SGN C   3      24.597   6.938  45.1390  0.00  0.00     0.000 OA
ATOM     55   O  SGN C   3      24.613   9.201  46.1130  0.00  0.00     0.000 O
ATOM     56   S  SGN C   3      24.539   7.585  46.4160  0.00  0.00     0.000 S
ENDBRANCH 41 51
BRANCH 37 57
ATOM     57  O4  IDS C   4      26.019  12.859  44.5850  0.00  0.00     0.000 O
BRANCH 57 61
ATOM     58  C1  IDS C   4      29.692  12.788  45.5710  0.00  0.00     0.000 C
ATOM     59  C2  IDS C   4      29.335  12.679  44.1230  0.00  0.00     0.000 C
ATOM     60  C3  IDS C   4      28.106  11.800  43.8800  0.00  0.00     0.000 C
ATOM     61  C4  IDS C   4      27.004  11.866  44.9280  0.00  0.00     0.000 C
ATOM     62  C5  IDS C   4      27.592  12.135  46.3190  0.00  0.00     0.000 C
ATOM     63  O5  IDS C   4      28.541  13.191  46.2940  0.00  0.00     0.000 O
ATOM     64   O  IDS C   4      28.600  10.474  43.8360  0.00  0.00     0.000 O
ATOM     66  HD  IDS C   4      28.311  10.020  44.5150  0.00  0.00     0.000 HD
BRANCH 59 66
ATOM     66   O  IDS C   4      29.026  13.999  43.5400  0.00  0.00     0.000 O
ATOM     67   S  IDS C   4      30.051  14.554  42.4560  0.00  0.00     0.000 S
ATOM     68   O  IDS C   4      29.923  13.612  41.3700  0.00  0.00     0.000 OA
ATOM     69   O  IDS C   4      29.589  15.896  42.1580  0.00  0.00     0.000 OA
ATOM     70   O  IDS C   4      31.376  14.508  43.0530  0.00  0.00     0.000 OA
ENDBRANCH 59 66
BRANCH 62 71
ATOM     71   C  IDS C   4      26.546  12.549  47.3360  0.00  0.00     0.000 C
ATOM     72   O  IDS C   4      26.513  13.693  47.7470  0.00  0.00     0.000 OA
ATOM     73   O  IDS C   4      25.799  11.670  47.8120  0.00  0.00     0.000 OA
ENDBRANCH 62 71
BRANCH 58 74
ATOM     74  O4  SGN C   5      30.458  11.768  46.0530  0.00  0.00     0.000 O
BRANCH 74 78
ATOM     75  C1  SGN C   5      32.942  10.465  49.1480  0.00  0.00     0.000 C
ATOM     76  C2  SGN C   5      31.431  10.244  49.3550  0.00  0.00     0.000 C
ATOM     77  C3  SGN C   5      30.669  10.439  48.0370  0.00  0.00     0.000 C
ATOM     78  C4  SGN C   5      31.083  11.726  47.3360  0.00  0.00     0.000 C
ATOM     79  C5  SGN C   5      32.597  11.763  47.1950  0.00  0.00     0.000 C
ATOM     80  O5  SGN C   5      33.208  11.708  48.5120  0.00  0.00     0.000 O
ATOM     81   O  SGN C   5      29.271  10.445  48.3090  0.00  0.00     0.000 O
ATOM     83  HD  SGN C   5      28.924   9.930  48.9120  0.00  0.00     0.000 HD
BRANCH 76 85
ATOM     83   N  SGN C   5      31.553   8.888  49.9060  0.00  0.00     0.000 N
ATOM     85  HD  SGN C   5      31.258   8.221  50.3710  0.00  0.00     0.000 HD
ATOM     85   S  SGN C   5      31.162   8.340  51.3680  0.00  0.00     0.000 S
ATOM     86   O  SGN C   5      31.407   6.942  51.4570  0.00  0.00     0.000 OA
ATOM     87   O  SGN C   5      31.814   9.172  52.3160  0.00  0.00     0.000 OA
ATOM     88   O  SGN C   5      29.665   8.617  51.2540  0.00  0.00     0.000 OA
ENDBRANCH 76 85
BRANCH 79 89
ATOM     89   C  SGN C   5      33.108  12.999  46.4840  0.00  0.00     0.000 C
ATOM     90   O  SGN C   5      34.544  12.911  46.3170  0.00  0.00     0.000 O
ATOM     91   S  SGN C   5      35.163  13.618  45.0160  0.00  0.00     0.000 S
ATOM     92   O  SGN C   5      34.427  13.111  43.8880  0.00  0.00     0.000 OA
ATOM     93   O  SGN C   5      34.997  15.039  45.1880  0.00  0.00     0.000 OA
ATOM     94   O  SGN C   5      36.539  13.201  45.0370  0.00  0.00     0.000 OA
ENDBRANCH 79 89
BRANCH 75 95
ATOM     95  O4  BDP C   6      33.361   9.441  48.3470  0.00  0.00     0.000 O
BRANCH 95 99
ATOM     96  C1  BDP C   6      37.282   7.692  48.2370  0.00  0.00     0.000 C
ATOM     97  C2  BDP C   6      36.912   8.560  49.4070  0.00  0.00     0.000 C
ATOM     98  C3  BDP C   6      35.405   8.818  49.5520  0.00  0.00     0.000 C
ATOM     99  C4  BDP C   6      34.788   9.248  48.2290  0.00  0.00     0.000 C
ATOM    100  C5  BDP C   6      35.233   8.240  47.1440  0.00  0.00     0.000 C
ATOM    101  O5  BDP C   6      36.665   8.352  47.1480  0.00  0.00     0.000 O
BRANCH 100 102
ATOM    102   C  BDP C   6      34.741   8.612  45.7680  0.00  0.00     0.000 C
ATOM    103   O  BDP C   6      34.766   9.779  45.3500  0.00  0.00     0.000 OA
ATOM    104   O  BDP C   6      34.319   7.692  45.0580  0.00  0.00     0.000 OA
ENDBRANCH 100 102
ENDBRANCH 95 99
ENDBRANCH 75 95
ENDBRANCH 74 78
ENDBRANCH 58 74
ENDBRANCH 57 61
ENDBRANCH 37 57
ENDBRANCH 36 40
ENDBRANCH 23 36
ENDBRANCH 22 26
ENDBRANCH 1 22
TORSDOF 20
ENDMDL
MODEL 23
REMARK VINA RESULT:      -6.8     13.870     20.351
ROOT
ATOM      1  C1  NGY C   1      32.752  16.587  28.1870  0.00  0.00     0.000 C
ATOM      2  C2  NGY C   1      31.922  17.572  27.3760  0.00  0.00     0.000 C
ATOM      3  C3  NGY C   1      31.264  16.863  26.1970  0.00  0.00     0.000 C
ATOM      4  C4  NGY C   1      32.347  16.164  25.3980  0.00  0.00     0.000 C
ATOM      5  C5  NGY C   1      33.044  15.150  26.3010  0.00  0.00     0.000 C
ATOM      6  O5  NGY C   1      33.673  15.871  27.3920  0.00  0.00     0.000 O
ATOM      7   O  NGY C   1      30.555  17.815  25.4160  0.00  0.00     0.000 O
ATOM      9  HD  NGY C   1      30.655  18.640  25.1710  0.00  0.00     0.000 HD
ATOM      9   O  NGY C   1      31.799  15.510  24.2620  0.00  0.00     0.000 O
ATOM     11  HD  NGY C   1      31.899  16.335  24.0170  0.00  0.00     0.000 HD
ENDROOT
BRANCH 2 13
ATOM     11   N  NGY C   1      31.863  18.955  27.7880  0.00  0.00     0.000 N
ATOM     13  HD  NGY C   1      31.029  18.990  28.0220  0.00  0.00     0.000 HD
ATOM     13   C  NGY C   1      30.736  19.500  28.2430  0.00  0.00     0.000 C
ATOM     14   O  NGY C   1      29.667  18.888  28.1960  0.00  0.00     0.000 OA
ATOM     15   C  NGY C   1      30.844  20.873  28.8350  0.00  0.00     0.000 C
ENDBRANCH 2 13
BRANCH 5 16
ATOM     16   C  NGY C   1      34.139  14.367  25.6500  0.00  0.00     0.000 C
ATOM     17   O  NGY C   1      37.464  13.878  27.1210  0.00  0.00     0.000 OA
ATOM     18   O  NGY C   1      35.348  14.564  26.3880  0.00  0.00     0.000 O
ATOM     19   S  NGY C   1      36.477  13.500  26.1410  0.00  0.00     0.000 S
ATOM     20   O  NGY C   1      36.946  13.683  24.7930  0.00  0.00     0.000 OA
ATOM     21   O  NGY C   1      35.827  12.219  26.3610  0.00  0.00     0.000 OA
ENDBRANCH 5 16
BRANCH 1 22
ATOM     22  O4  BDP C   2      31.919  15.777  28.8730  0.00  0.00     0.000 O
BRANCH 22 26
ATOM     23  C1  BDP C   2      30.958  13.760  32.3330  0.00  0.00     0.000 C
ATOM     24  C2  BDP C   2      31.521  15.149  32.5250  0.00  0.00     0.000 C
ATOM     25  C3  BDP C   2      31.481  15.896  31.2180  0.00  0.00     0.000 C
ATOM     26  C4  BDP C   2      32.167  15.084  30.1240  0.00  0.00     0.000 C
ATOM     27  C5  BDP C   2      31.645  13.653  30.1390  0.00  0.00     0.000 C
ATOM     28  O5  BDP C   2      31.813  13.008  31.4270  0.00  0.00     0.000 O
ATOM     29   O  BDP C   2      30.716  15.947  33.3930  0.00  0.00     0.000 O
ATOM     31  HD  BDP C   2      30.658  16.789  33.2020  0.00  0.00     0.000 HD
ATOM     31   O  BDP C   2      32.171  17.122  31.4210  0.00  0.00     0.000 O
ATOM     33  HD  BDP C   2      32.114  17.965  31.2300  0.00  0.00     0.000 HD
BRANCH 27 33
ATOM     33   C  BDP C   2      32.356  12.769  29.1420  0.00  0.00     0.000 C
ATOM     34   O  BDP C   2      31.736  11.969  28.4010  0.00  0.00     0.000 OA
ATOM     35   O  BDP C   2      33.573  12.817  29.0880  0.00  0.00     0.000 OA
ENDBRANCH 27 33
BRANCH 23 36
ATOM     36  O4  SGN C   3      30.818  13.030  33.4640  0.00  0.00     0.000 O
BRANCH 36 40
ATOM     37  C1  SGN C   3      28.194  10.637  35.6590  0.00  0.00     0.000 C
ATOM     38  C2  SGN C   3      29.144   9.938  34.6740  0.00  0.00     0.000 C
ATOM     39  C3  SGN C   3      30.295  10.860  34.2990  0.00  0.00     0.000 C
ATOM     40  C4  SGN C   3      29.728  12.146  33.7390  0.00  0.00     0.000 C
ATOM     41  C5  SGN C   3      28.790  12.751  34.7600  0.00  0.00     0.000 C
ATOM     42  O5  SGN C   3      27.727  11.830  35.0480  0.00  0.00     0.000 O
ATOM     43   O  SGN C   3      31.125  10.210  33.3440  0.00  0.00     0.000 O
ATOM     45  HD  SGN C   3      31.177  11.068  33.2450  0.00  0.00     0.000 HD
BRANCH 38 47
ATOM     45   N  SGN C   3      28.789   8.631  34.0920  0.00  0.00     0.000 N
ATOM     47  HD  SGN C   3      29.064   9.444  33.9710  0.00  0.00     0.000 HD
ATOM     47   S  SGN C   3      28.685   7.493  35.1970  0.00  0.00     0.000 S
ATOM     48   O  SGN C   3      29.949   7.224  35.7840  0.00  0.00     0.000 OA
ATOM     49   O  SGN C   3      27.636   7.879  36.0830  0.00  0.00     0.000 OA
ATOM     50   O  SGN C   3      28.310   6.332  34.3920  0.00  0.00     0.000 OA
ENDBRANCH 38 47
BRANCH 41 51
ATOM     51   C  SGN C   3      28.158  14.045  34.3240  0.00  0.00     0.000 C
ATOM     52   O  SGN C   3      26.483  14.755  31.0730  0.00  0.00     0.000 OA
ATOM     53   O  SGN C   3      25.986  15.596  33.2590  0.00  0.00     0.000 OA
ATOM     54   O  SGN C   3      28.071  16.132  32.1940  0.00  0.00     0.000 OA
ATOM     55   O  SGN C   3      27.595  13.869  33.0430  0.00  0.00     0.000 O
ATOM     56   S  SGN C   3      26.977  15.215  32.3260  0.00  0.00     0.000 S
ENDBRANCH 41 51
BRANCH 37 57
ATOM     57  O4  IDS C   4      28.752  10.962  36.8510  0.00  0.00     0.000 O
BRANCH 57 61
ATOM     58  C1  IDS C   4      28.912  10.217  40.5780  0.00  0.00     0.000 C
ATOM     59  C2  IDS C   4      28.554   9.109  39.6390  0.00  0.00     0.000 C
ATOM     60  C3  IDS C   4      27.625   9.566  38.5110  0.00  0.00     0.000 C
ATOM     61  C4  IDS C   4      27.848  10.973  37.9730  0.00  0.00     0.000 C
ATOM     62  C5  IDS C   4      28.359  11.904  39.0790  0.00  0.00     0.000 C
ATOM     63  O5  IDS C   4      29.411  11.309  39.8240  0.00  0.00     0.000 O
ATOM     64   O  IDS C   4      26.320   9.499  39.0540  0.00  0.00     0.000 O
ATOM     66  HD  IDS C   4      25.982  10.293  39.1310  0.00  0.00     0.000 HD
BRANCH 59 66
ATOM     66   O  IDS C   4      29.751   8.540  38.9900  0.00  0.00     0.000 O
ATOM     67   S  IDS C   4      30.133   7.048  39.3880  0.00  0.00     0.000 S
ATOM     68   O  IDS C   4      29.019   6.279  38.8880  0.00  0.00     0.000 OA
ATOM     69   O  IDS C   4      31.397   6.796  38.7240  0.00  0.00     0.000 OA
ATOM     70   O  IDS C   4      30.212   6.997  40.8400  0.00  0.00     0.000 OA
ENDBRANCH 59 66
BRANCH 62 71
ATOM     71   C  IDS C   4      28.921  13.208  38.5460  0.00  0.00     0.000 C
ATOM     72   O  IDS C   4      30.091  13.485  38.7230  0.00  0.00     0.000 OA
ATOM     73   O  IDS C   4      28.135  14.022  38.0210  0.00  0.00     0.000 OA
ENDBRANCH 62 71
BRANCH 58 74
ATOM     74  O4  SGN C   5      28.002  10.451  41.5660  0.00  0.00     0.000 O
BRANCH 74 78
ATOM     75  C1  SGN C   5      27.550  12.346  45.2600  0.00  0.00     0.000 C
ATOM     76  C2  SGN C   5      26.704  12.911  44.1030  0.00  0.00     0.000 C
ATOM     77  C3  SGN C   5      26.694  11.940  42.9150  0.00  0.00     0.000 C
ATOM     78  C4  SGN C   5      28.097  11.463  42.5670  0.00  0.00     0.000 C
ATOM     79  C5  SGN C   5      28.772  10.917  43.8170  0.00  0.00     0.000 C
ATOM     80  O5  SGN C   5      28.847  11.962  44.8230  0.00  0.00     0.000 O
ATOM     81   O  SGN C   5      26.094  12.585  41.7960  0.00  0.00     0.000 O
ATOM     83  HD  SGN C   5      25.425  13.128  41.8890  0.00  0.00     0.000 HD
BRANCH 76 85
ATOM     83   N  SGN C   5      25.493  13.085  44.9140  0.00  0.00     0.000 N
ATOM     85  HD  SGN C   5      24.718  13.439  45.0680  0.00  0.00     0.000 HD
ATOM     85   S  SGN C   5      24.674  14.430  45.2520  0.00  0.00     0.000 S
ATOM     86   O  SGN C   5      23.529  14.129  46.0410  0.00  0.00     0.000 OA
ATOM     87   O  SGN C   5      25.600  15.361  45.7880  0.00  0.00     0.000 OA
ATOM     88   O  SGN C   5      24.268  14.743  43.8140  0.00  0.00     0.000 OA
ENDBRANCH 76 85
BRANCH 79 89
ATOM     89   C  SGN C   5      30.172  10.394  43.5690  0.00  0.00     0.000 C
ATOM     90   O  SGN C   5      31.146  11.344  44.0650  0.00  0.00     0.000 O
ATOM     91   S  SGN C   5      32.529  10.740  44.6110  0.00  0.00     0.000 S
ATOM     92   O  SGN C   5      32.178   9.730  45.5750  0.00  0.00     0.000 OA
ATOM     93   O  SGN C   5      33.232  10.199  43.4770  0.00  0.00     0.000 OA
ATOM     94   O  SGN C   5      33.182  11.882  45.1910  0.00  0.00     0.000 OA
ENDBRANCH 79 89
BRANCH 75 95
ATOM     95  O4  BDP C   6      26.875  11.248  45.7130  0.00  0.00     0.000 O
BRANCH 95 99
ATOM     96  C1  BDP C   6      27.219  10.026  49.8160  0.00  0.00     0.000 C
ATOM     97  C2  BDP C   6      28.143  11.093  49.3010  0.00  0.00     0.000 C
ATOM     98  C3  BDP C   6      27.703  11.725  47.9720  0.00  0.00     0.000 C
ATOM     99  C4  BDP C   6      27.340  10.660  46.9470  0.00  0.00     0.000 C
ATOM    100  C5  BDP C   6      26.363   9.666  47.6170  0.00  0.00     0.000 C
ATOM    101  O5  BDP C   6      27.121   9.138  48.7170  0.00  0.00     0.000 O
BRANCH 100 102
ATOM    102   C  BDP C   6      25.993   8.516  46.7140  0.00  0.00     0.000 C
ATOM    103   O  BDP C   6      26.551   8.325  45.6240  0.00  0.00     0.000 OA
ATOM    104   O  BDP C   6      25.108   7.753  47.1160  0.00  0.00     0.000 OA
ENDBRANCH 100 102
ENDBRANCH 95 99
ENDBRANCH 75 95
ENDBRANCH 74 78
ENDBRANCH 58 74
ENDBRANCH 57 61
ENDBRANCH 37 57
ENDBRANCH 36 40
ENDBRANCH 23 36
ENDBRANCH 22 26
ENDBRANCH 1 22
TORSDOF 20
ENDMDL
MODEL 24
REMARK VINA RESULT:      -6.8     16.759     23.573
ROOT
ATOM      1  C1  NGY C   1      26.718  10.799  42.1290  0.00  0.00     0.000 C
ATOM      2  C2  NGY C   1      26.845  12.285  42.4360  0.00  0.00     0.000 C
ATOM      3  C3  NGY C   1      27.952  12.520  43.4600  0.00  0.00     0.000 C
ATOM      4  C4  NGY C   1      27.665  11.659  44.6760  0.00  0.00     0.000 C
ATOM      5  C5  NGY C   1      27.645  10.195  44.2460  0.00  0.00     0.000 C
ATOM      6  O5  NGY C   1      26.565  10.015  43.2930  0.00  0.00     0.000 O
ATOM      7   O  NGY C   1      28.003  13.901  43.7840  0.00  0.00     0.000 O
ATOM      9  HD  NGY C   1      27.441  14.553  43.8880  0.00  0.00     0.000 HD
ATOM      9   O  NGY C   1      28.646  11.859  45.6830  0.00  0.00     0.000 O
ATOM     11  HD  NGY C   1      28.085  12.510  45.7870  0.00  0.00     0.000 HD
ENDROOT
BRANCH 2 13
ATOM     11   N  NGY C   1      26.965  12.913  41.1410  0.00  0.00     0.000 N
ATOM     13  HD  NGY C   1      26.532  13.645  41.3060  0.00  0.00     0.000 HD
ATOM     13   C  NGY C   1      26.432  14.108  40.8930  0.00  0.00     0.000 C
ATOM     14   O  NGY C   1      25.695  14.659  41.7120  0.00  0.00     0.000 OA
ATOM     15   C  NGY C   1      26.796  14.750  39.5890  0.00  0.00     0.000 C
ENDBRANCH 2 13
BRANCH 5 16
ATOM     16   C  NGY C   1      27.382   9.214  45.3430  0.00  0.00     0.000 C
ATOM     17   O  NGY C   1      24.034   8.387  46.5950  0.00  0.00     0.000 OA
ATOM     18   O  NGY C   1      26.004   9.301  45.7170  0.00  0.00     0.000 O
ATOM     19   S  NGY C   1      25.438   8.072  46.5150  0.00  0.00     0.000 S
ATOM     20   O  NGY C   1      26.074   8.074  47.8070  0.00  0.00     0.000 OA
ATOM     21   O  NGY C   1      25.781   6.917  45.7010  0.00  0.00     0.000 OA
ENDBRANCH 5 16
BRANCH 1 22
ATOM     22  O4  BDP C   2      27.774  10.418  41.3800  0.00  0.00     0.000 O
BRANCH 22 26
ATOM     23  C1  BDP C   2      28.752   8.487  37.8760  0.00  0.00     0.000 C
ATOM     24  C2  BDP C   2      27.275   8.695  38.1130  0.00  0.00     0.000 C
ATOM     25  C3  BDP C   2      27.076   9.709  39.2090  0.00  0.00     0.000 C
ATOM     26  C4  BDP C   2      27.863   9.306  40.4510  0.00  0.00     0.000 C
ATOM     27  C5  BDP C   2      29.293   8.951  40.0650  0.00  0.00     0.000 C
ATOM     28  O5  BDP C   2      29.360   7.904  39.0630  0.00  0.00     0.000 O
ATOM     29   O  BDP C   2      26.621   9.283  36.9880  0.00  0.00     0.000 O
ATOM     31  HD  BDP C   2      25.981   9.841  37.1600  0.00  0.00     0.000 HD
ATOM     31   O  BDP C   2      25.685   9.737  39.5000  0.00  0.00     0.000 O
ATOM     33  HD  BDP C   2      25.045  10.296  39.6720  0.00  0.00     0.000 HD
BRANCH 27 33
ATOM     33   C  BDP C   2      30.101   8.448  41.2380  0.00  0.00     0.000 C
ATOM     34   O  BDP C   2      29.589   7.758  42.1510  0.00  0.00     0.000 OA
ATOM     35   O  BDP C   2      31.279   8.757  41.3060  0.00  0.00     0.000 OA
ENDBRANCH 27 33
BRANCH 23 36
ATOM     36  O4  SGN C   3      29.064   7.694  36.8250  0.00  0.00     0.000 O
BRANCH 36 40
ATOM     37  C1  SGN C   3      32.454   7.341  34.4130  0.00  0.00     0.000 C
ATOM     38  C2  SGN C   3      31.703   6.052  34.7840  0.00  0.00     0.000 C
ATOM     39  C3  SGN C   3      30.298   6.375  35.2700  0.00  0.00     0.000 C
ATOM     40  C4  SGN C   3      30.393   7.341  36.4310  0.00  0.00     0.000 C
ATOM     41  C5  SGN C   3      31.163   8.565  35.9850  0.00  0.00     0.000 C
ATOM     42  O5  SGN C   3      32.479   8.181  35.5570  0.00  0.00     0.000 O
ATOM     43   O  SGN C   3      29.650   5.171  35.6610  0.00  0.00     0.000 O
ATOM     45  HD  SGN C   3      29.324   5.839  36.1050  0.00  0.00     0.000 HD
BRANCH 38 47
ATOM     45   N  SGN C   3      33.027   5.638  34.2850  0.00  0.00     0.000 N
ATOM     47  HD  SGN C   3      32.563   6.118  34.8360  0.00  0.00     0.000 HD
ATOM     47   S  SGN C   3      32.942   4.338  33.3740  0.00  0.00     0.000 S
ATOM     48   O  SGN C   3      32.539   3.203  34.1280  0.00  0.00     0.000 OA
ATOM     49   O  SGN C   3      32.135   4.679  32.2490  0.00  0.00     0.000 OA
ATOM     50   O  SGN C   3      34.341   4.148  32.9960  0.00  0.00     0.000 OA
ENDBRANCH 38 47
BRANCH 41 51
ATOM     51   C  SGN C   3      31.324   9.613  37.0520  0.00  0.00     0.000 C
ATOM     52   O  SGN C   3      34.235  11.881  37.5620  0.00  0.00     0.000 OA
ATOM     53   O  SGN C   3      31.906  12.282  37.9430  0.00  0.00     0.000 OA
ATOM     54   O  SGN C   3      33.084  10.635  39.2330  0.00  0.00     0.000 OA
ATOM     55   O  SGN C   3      32.552  10.279  36.8540  0.00  0.00     0.000 O
ATOM     56   S  SGN C   3      32.984  11.370  38.0080  0.00  0.00     0.000 S
ENDBRANCH 41 51
BRANCH 37 57
ATOM     57  O4  IDS C   4      31.907   8.039  33.3880  0.00  0.00     0.000 O
BRANCH 57 61
ATOM     58  C1  IDS C   4      33.105   9.506  30.0890  0.00  0.00     0.000 C
ATOM     59  C2  IDS C   4      33.997   8.550  30.8150  0.00  0.00     0.000 C
ATOM     60  C3  IDS C   4      33.987   8.767  32.3310  0.00  0.00     0.000 C
ATOM     61  C4  IDS C   4      32.661   9.186  32.9500  0.00  0.00     0.000 C
ATOM     62  C5  IDS C   4      31.847  10.036  31.9680  0.00  0.00     0.000 C
ATOM     63  O5  IDS C   4      31.814   9.457  30.6720  0.00  0.00     0.000 O
ATOM     64   O  IDS C   4      34.933   9.794  32.5660  0.00  0.00     0.000 O
ATOM     66  HD  IDS C   4      34.538  10.511  32.8490  0.00  0.00     0.000 HD
BRANCH 59 66
ATOM     66   O  IDS C   4      33.589   7.150  30.5910  0.00  0.00     0.000 O
ATOM     67   S  IDS C   4      34.581   6.249  29.7330  0.00  0.00     0.000 S
ATOM     68   O  IDS C   4      35.761   6.180  30.5610  0.00  0.00     0.000 OA
ATOM     69   O  IDS C   4      33.884   4.990  29.5570  0.00  0.00     0.000 OA
ATOM     70   O  IDS C   4      34.839   6.958  28.4900  0.00  0.00     0.000 OA
ENDBRANCH 59 66
BRANCH 62 71
ATOM     71   C  IDS C   4      30.396  10.195  32.3810  0.00  0.00     0.000 C
ATOM     72   O  IDS C   4      29.512   9.702  31.7080  0.00  0.00     0.000 OA
ATOM     73   O  IDS C   4      30.133  10.925  33.3580  0.00  0.00     0.000 OA
ENDBRANCH 62 71
BRANCH 58 74
ATOM     74  O4  SGN C   5      33.665  10.718  29.8120  0.00  0.00     0.000 O
BRANCH 74 78
ATOM     75  C1  SGN C   5      33.891  13.923  27.1440  0.00  0.00     0.000 C
ATOM     76  C2  SGN C   5      32.612  13.845  27.9990  0.00  0.00     0.000 C
ATOM     77  C3  SGN C   5      32.794  12.853  29.1560  0.00  0.00     0.000 C
ATOM     78  C4  SGN C   5      33.377  11.531  28.6750  0.00  0.00     0.000 C
ATOM     79  C5  SGN C   5      34.642  11.798  27.8730  0.00  0.00     0.000 C
ATOM     80  O5  SGN C   5      34.325  12.634  26.7290  0.00  0.00     0.000 O
ATOM     81   O  SGN C   5      31.534  12.643  29.7860  0.00  0.00     0.000 O
ATOM     83  HD  SGN C   5      30.961  13.286  29.8820  0.00  0.00     0.000 HD
BRANCH 76 85
ATOM     83   N  SGN C   5      31.950  14.960  27.3110  0.00  0.00     0.000 N
ATOM     85  HD  SGN C   5      31.822  15.804  27.1650  0.00  0.00     0.000 HD
ATOM     85   S  SGN C   5      31.422  16.360  27.9060  0.00  0.00     0.000 S
ATOM     86   O  SGN C   5      30.882  17.169  26.8680  0.00  0.00     0.000 OA
ATOM     87   O  SGN C   5      30.569  16.056  28.9980  0.00  0.00     0.000 OA
ATOM     88   O  SGN C   5      32.790  16.883  28.3380  0.00  0.00     0.000 OA
ENDBRANCH 76 85
BRANCH 79 89
ATOM     89   C  SGN C   5      35.314  10.537  27.3680  0.00  0.00     0.000 C
ATOM     90   O  SGN C   5      34.680  10.101  26.1410  0.00  0.00     0.000 O
ATOM     91   S  SGN C   5      35.614   9.346  25.0750  0.00  0.00     0.000 S
ATOM     92   O  SGN C   5      36.752  10.200  24.8560  0.00  0.00     0.000 OA
ATOM     93   O  SGN C   5      35.979   8.080  25.6560  0.00  0.00     0.000 OA
ATOM     94   O  SGN C   5      34.763   9.219  23.9230  0.00  0.00     0.000 OA
ENDBRANCH 79 89
BRANCH 75 95
ATOM     95  O4  BDP C   6      34.840  14.491  27.9450  0.00  0.00     0.000 O
BRANCH 95 99
ATOM     96  C1  BDP C   6      38.118  17.012  26.7840  0.00  0.00     0.000 C
ATOM     97  C2  BDP C   6      36.948  16.876  25.8520  0.00  0.00     0.000 C
ATOM     98  C3  BDP C   6      35.687  16.283  26.5000  0.00  0.00     0.000 C
ATOM     99  C4  BDP C   6      36.012  15.024  27.2900  0.00  0.00     0.000 C
ATOM    100  C5  BDP C   6      37.206  15.338  28.2200  0.00  0.00     0.000 C
ATOM    101  O5  BDP C   6      38.255  15.705  27.3100  0.00  0.00     0.000 O
BRANCH 100 102
ATOM    102   C  BDP C   6      37.669  14.134  29.0000  0.00  0.00     0.000 C
ATOM    103   O  BDP C   6      38.303  13.208  28.4740  0.00  0.00     0.000 OA
ATOM    104   O  BDP C   6      37.397  14.111  30.2060  0.00  0.00     0.000 OA
ENDBRANCH 100 102
ENDBRANCH 95 99
ENDBRANCH 75 95
ENDBRANCH 74 78
ENDBRANCH 58 74
ENDBRANCH 57 61
ENDBRANCH 37 57
ENDBRANCH 36 40
ENDBRANCH 23 36
ENDBRANCH 22 26
ENDBRANCH 1 22
TORSDOF 20
ENDMDL
MODEL 25
REMARK VINA RESULT:      -6.7      4.452     16.354
ROOT
ATOM      1  C1  NGY C   1      27.076  15.691  34.9450  0.00  0.00     0.000 C
ATOM      2  C2  NGY C   1      27.550  16.149  36.3170  0.00  0.00     0.000 C
ATOM      3  C3  NGY C   1      28.915  16.821  36.2070  0.00  0.00     0.000 C
ATOM      4  C4  NGY C   1      29.863  15.860  35.5140  0.00  0.00     0.000 C
ATOM      5  C5  NGY C   1      29.315  15.548  34.1240  0.00  0.00     0.000 C
ATOM      6  O5  NGY C   1      28.030  14.891  34.2800  0.00  0.00     0.000 O
ATOM      7   O  NGY C   1      29.368  17.173  37.5060  0.00  0.00     0.000 O
ATOM      9  HD  NGY C   1      29.330  16.843  38.3060  0.00  0.00     0.000 HD
ATOM      9   O  NGY C   1      31.166  16.417  35.4120  0.00  0.00     0.000 O
ATOM     11  HD  NGY C   1      31.128  16.086  36.2110  0.00  0.00     0.000 HD
ENDROOT
BRANCH 2 13
ATOM     11   N  NGY C   1      27.356  16.775  37.6040  0.00  0.00     0.000 N
ATOM     13  HD  NGY C   1      26.495  16.705  37.6580  0.00  0.00     0.000 HD
ATOM     13   C  NGY C   1      26.143  16.910  38.1380  0.00  0.00     0.000 C
ATOM     14   O  NGY C   1      25.129  16.638  37.4940  0.00  0.00     0.000 OA
ATOM     15   C  NGY C   1      26.084  17.380  39.5600  0.00  0.00     0.000 C
ENDBRANCH 2 13
BRANCH 5 16
ATOM     16   C  NGY C   1      30.150  14.615  33.3070  0.00  0.00     0.000 C
ATOM     17   O  NGY C   1      28.773  12.159  30.9550  0.00  0.00     0.000 OA
ATOM     18   O  NGY C   1      29.290  13.662  32.6750  0.00  0.00     0.000 O
ATOM     19   S  NGY C   1      29.907  12.898  31.4490  0.00  0.00     0.000 S
ATOM     20   O  NGY C   1      30.941  12.038  31.9610  0.00  0.00     0.000 OA
ATOM     21   O  NGY C   1      30.405  13.949  30.5760  0.00  0.00     0.000 OA
ENDBRANCH 5 16
BRANCH 1 22
ATOM     22  O4  BDP C   2      26.714  16.774  34.2250  0.00  0.00     0.000 O
BRANCH 22 26
ATOM     23  C1  BDP C   2      24.600  18.424  31.0990  0.00  0.00     0.000 C
ATOM     24  C2  BDP C   2      23.893  17.323  31.8520  0.00  0.00     0.000 C
ATOM     25  C3  BDP C   2      24.598  17.071  33.1590  0.00  0.00     0.000 C
ATOM     26  C4  BDP C   2      26.082  16.817  32.9190  0.00  0.00     0.000 C
ATOM     27  C5  BDP C   2      26.649  17.895  32.0050  0.00  0.00     0.000 C
ATOM     28  O5  BDP C   2      25.942  17.988  30.7410  0.00  0.00     0.000 O
ATOM     29   O  BDP C   2      22.573  17.695  32.2480  0.00  0.00     0.000 O
ATOM     31  HD  BDP C   2      22.298  17.395  33.0130  0.00  0.00     0.000 HD
ATOM     31   O  BDP C   2      23.993  15.922  33.7400  0.00  0.00     0.000 O
ATOM     33  HD  BDP C   2      23.719  15.621  34.5050  0.00  0.00     0.000 HD
BRANCH 27 33
ATOM     33   C  BDP C   2      28.095  17.647  31.6470  0.00  0.00     0.000 C
ATOM     34   O  BDP C   2      29.036  18.238  32.2300  0.00  0.00     0.000 OA
ATOM     35   O  BDP C   2      28.344  16.871  30.7390  0.00  0.00     0.000 OA
ENDBRANCH 27 33
BRANCH 23 36
ATOM     36  O4  SGN C   3      23.988  18.836  29.9650  0.00  0.00     0.000 O
BRANCH 36 40
ATOM     37  C1  SGN C   3      22.882  22.390  28.0740  0.00  0.00     0.000 C
ATOM     38  C2  SGN C   3      23.822  21.440  27.3140  0.00  0.00     0.000 C
ATOM     39  C3  SGN C   3      23.773  20.045  27.9220  0.00  0.00     0.000 C
ATOM     40  C4  SGN C   3      24.114  20.141  29.3930  0.00  0.00     0.000 C
ATOM     41  C5  SGN C   3      23.159  21.111  30.0530  0.00  0.00     0.000 C
ATOM     42  O5  SGN C   3      23.275  22.402  29.4370  0.00  0.00     0.000 O
ATOM     43   O  SGN C   3      24.694  19.204  27.2390  0.00  0.00     0.000 O
ATOM     45  HD  SGN C   3      24.585  18.924  28.0510  0.00  0.00     0.000 HD
BRANCH 38 47
ATOM     45   N  SGN C   3      24.340  22.615  26.5920  0.00  0.00     0.000 N
ATOM     47  HD  SGN C   3      24.351  22.121  27.3030  0.00  0.00     0.000 HD
ATOM     47   S  SGN C   3      23.958  22.585  25.0500  0.00  0.00     0.000 S
ATOM     48   O  SGN C   3      24.602  21.513  24.3770  0.00  0.00     0.000 OA
ATOM     49   O  SGN C   3      22.533  22.621  24.9810  0.00  0.00     0.000 OA
ATOM     50   O  SGN C   3      24.551  23.832  24.5720  0.00  0.00     0.000 OA
ENDBRANCH 38 47
BRANCH 41 51
ATOM     51   C  SGN C   3      23.389  21.294  31.5290  0.00  0.00     0.000 C
ATOM     52   O  SGN C   3      25.144  24.121  33.2030  0.00  0.00     0.000 OA
ATOM     53   O  SGN C   3      23.282  22.820  33.9600  0.00  0.00     0.000 OA
ATOM     54   O  SGN C   3      25.432  21.799  33.6430  0.00  0.00     0.000 OA
ATOM     55   O  SGN C   3      24.048  22.523  31.7380  0.00  0.00     0.000 O
ATOM     56   S  SGN C   3      24.521  22.844  33.2810  0.00  0.00     0.000 S
ENDBRANCH 41 51
BRANCH 37 57
ATOM     57  O4  IDS C   4      21.569  22.055  28.0140  0.00  0.00     0.000 O
BRANCH 57 61
ATOM     58  C1  IDS C   4      17.947  22.908  27.2270  0.00  0.00     0.000 C
ATOM     59  C2  IDS C   4      19.016  23.387  26.2960  0.00  0.00     0.000 C
ATOM     60  C3  IDS C   4      20.266  23.875  27.0330  0.00  0.00     0.000 C
ATOM     61  C4  IDS C   4      20.647  23.123  28.3010  0.00  0.00     0.000 C
ATOM     62  C5  IDS C   4      19.398  22.592  29.0130  0.00  0.00     0.000 C
ATOM     63  O5  IDS C   4      18.508  21.952  28.1100  0.00  0.00     0.000 O
ATOM     64   O  IDS C   4      19.993  25.221  27.3770  0.00  0.00     0.000 O
ATOM     66  HD  IDS C   4      19.925  25.306  28.2370  0.00  0.00     0.000 HD
BRANCH 59 66
ATOM     66   O  IDS C   4      19.460  22.316  25.3830  0.00  0.00     0.000 O
ATOM     67   S  IDS C   4      18.656  22.167  24.0180  0.00  0.00     0.000 S
ATOM     68   O  IDS C   4      18.942  23.405  23.3320  0.00  0.00     0.000 OA
ATOM     69   O  IDS C   4      19.202  20.980  23.3910  0.00  0.00     0.000 OA
ATOM     70   O  IDS C   4      17.246  22.057  24.3590  0.00  0.00     0.000 OA
ENDBRANCH 59 66
BRANCH 62 71
ATOM     71   C  IDS C   4      19.714  21.558  30.0770  0.00  0.00     0.000 C
ATOM     72   O  IDS C   4      19.894  20.397  29.7650  0.00  0.00     0.000 OA
ATOM     73   O  IDS C   4      19.681  21.908  31.2740  0.00  0.00     0.000 OA
ENDBRANCH 62 71
BRANCH 58 74
ATOM     74  O4  SGN C   5      17.140  23.886  27.7280  0.00  0.00     0.000 O
BRANCH 74 78
ATOM     75  C1  SGN C   5      13.271  24.950  28.8850  0.00  0.00     0.000 C
ATOM     76  C2  SGN C   5      14.067  24.100  29.8920  0.00  0.00     0.000 C
ATOM     77  C3  SGN C   5      15.555  24.067  29.5170  0.00  0.00     0.000 C
ATOM     78  C4  SGN C   5      15.755  23.747  28.0430  0.00  0.00     0.000 C
ATOM     79  C5  SGN C   5      14.916  24.696  27.1990  0.00  0.00     0.000 C
ATOM     80  O5  SGN C   5      13.514  24.542  27.5450  0.00  0.00     0.000 O
ATOM     81   O  SGN C   5      16.215  23.104  30.3320  0.00  0.00     0.000 O
ATOM     83  HD  SGN C   5      15.998  22.985  31.1620  0.00  0.00     0.000 HD
BRANCH 76 85
ATOM     83   N  SGN C   5      13.973  24.583  31.2750  0.00  0.00     0.000 N
ATOM     85  HD  SGN C   5      13.771  24.481  32.1110  0.00  0.00     0.000 HD
ATOM     85   S  SGN C   5      12.799  24.367  32.3560  0.00  0.00     0.000 S
ATOM     86   O  SGN C   5      13.144  24.975  33.5940  0.00  0.00     0.000 OA
ATOM     87   O  SGN C   5      11.587  24.784  31.7480  0.00  0.00     0.000 OA
ATOM     88   O  SGN C   5      12.934  22.849  32.4470  0.00  0.00     0.000 OA
ENDBRANCH 76 85
BRANCH 79 89
ATOM     89   C  SGN C   5      15.066  24.471  25.7080  0.00  0.00     0.000 C
ATOM     90   O  SGN C   5      14.009  23.602  25.2350  0.00  0.00     0.000 O
ATOM     91   S  SGN C   5      13.504  23.835  23.7290  0.00  0.00     0.000 S
ATOM     92   O  SGN C   5      13.181  25.234  23.6210  0.00  0.00     0.000 OA
ATOM     93   O  SGN C   5      14.583  23.450  22.8560  0.00  0.00     0.000 OA
ATOM     94   O  SGN C   5      12.357  22.973  23.6280  0.00  0.00     0.000 OA
ENDBRANCH 79 89
BRANCH 75 95
ATOM     95  O4  BDP C   6      13.703  26.235  29.0590  0.00  0.00     0.000 O
BRANCH 95 99
ATOM     96  C1  BDP C   6      11.731  30.021  28.5850  0.00  0.00     0.000 C
ATOM     97  C2  BDP C   6      11.019  28.924  29.3250  0.00  0.00     0.000 C
ATOM     98  C3  BDP C   6      11.926  27.768  29.7720  0.00  0.00     0.000 C
ATOM     99  C4  BDP C   6      12.810  27.286  28.6310  0.00  0.00     0.000 C
ATOM    100  C5  BDP C   6      13.494  28.522  28.0020  0.00  0.00     0.000 C
ATOM    101  O5  BDP C   6      12.391  29.322  27.5460  0.00  0.00     0.000 O
BRANCH 100 102
ATOM    102   C  BDP C   6      14.339  28.171  26.8040  0.00  0.00     0.000 C
ATOM    103   O  BDP C   6      15.578  28.212  26.8320  0.00  0.00     0.000 OA
ATOM    104   O  BDP C   6      13.740  27.823  25.7790  0.00  0.00     0.000 OA
ENDBRANCH 100 102
ENDBRANCH 95 99
ENDBRANCH 75 95
ENDBRANCH 74 78
ENDBRANCH 58 74
ENDBRANCH 57 61
ENDBRANCH 37 57
ENDBRANCH 36 40
ENDBRANCH 23 36
ENDBRANCH 22 26
ENDBRANCH 1 22
TORSDOF 20
ENDMDL
MODEL 26
REMARK VINA RESULT:      -6.6     18.100     27.216
ROOT
ATOM      1  C1  NGY C   1      26.930  29.613   9.9000  0.00  0.00     0.000 C
ATOM      2  C2  NGY C   1      27.428  28.430  10.7190  0.00  0.00     0.000 C
ATOM      3  C3  NGY C   1      28.462  27.637   9.9250  0.00  0.00     0.000 C
ATOM      4  C4  NGY C   1      27.846  27.252   8.5940  0.00  0.00     0.000 C
ATOM      5  C5  NGY C   1      27.467  28.525   7.8430  0.00  0.00     0.000 C
ATOM      6  O5  NGY C   1      26.468  29.232   8.6220  0.00  0.00     0.000 O
ATOM      7   O  NGY C   1      28.857  26.500  10.6790  0.00  0.00     0.000 O
ATOM      9  HD  NGY C   1      28.487  25.933  11.2190  0.00  0.00     0.000 HD
ATOM      9   O  NGY C   1      28.752  26.479   7.8190  0.00  0.00     0.000 O
ATOM     11  HD  NGY C   1      28.381  25.912   8.3590  0.00  0.00     0.000 HD
ENDROOT
BRANCH 2 13
ATOM     11   N  NGY C   1      27.741  29.038  11.9900  0.00  0.00     0.000 N
ATOM     13  HD  NGY C   1      27.600  28.356  12.5040  0.00  0.00     0.000 HD
ATOM     13   C  NGY C   1      27.663  28.353  13.1300  0.00  0.00     0.000 C
ATOM     14   O  NGY C   1      27.184  27.218  13.1590  0.00  0.00     0.000 OA
ATOM     15   C  NGY C   1      28.209  29.020  14.3550  0.00  0.00     0.000 C
ENDBRANCH 2 13
BRANCH 5 16
ATOM     16   C  NGY C   1      26.852  28.310   6.4970  0.00  0.00     0.000 C
ATOM     17   O  NGY C   1      23.822  26.324   5.9220  0.00  0.00     0.000 OA
ATOM     18   O  NGY C   1      25.825  27.322   6.6130  0.00  0.00     0.000 O
ATOM     19   S  NGY C   1      24.782  27.283   5.4390  0.00  0.00     0.000 S
ATOM     20   O  NGY C   1      25.478  26.819   4.2670  0.00  0.00     0.000 OA
ATOM     21   O  NGY C   1      24.306  28.652   5.3270  0.00  0.00     0.000 OA
ENDBRANCH 5 16
BRANCH 1 22
ATOM     22  O4  BDP C   2      27.905  30.545   9.8440  0.00  0.00     0.000 O
BRANCH 22 26
ATOM     23  C1  BDP C   2      28.470  34.624   9.8780  0.00  0.00     0.000 C
ATOM     24  C2  BDP C   2      27.039  34.165  10.0360  0.00  0.00     0.000 C
ATOM     25  C3  BDP C   2      27.014  32.697  10.3720  0.00  0.00     0.000 C
ATOM     26  C4  BDP C   2      27.820  31.906   9.3470  0.00  0.00     0.000 C
ATOM     27  C5  BDP C   2      29.179  32.562   9.1400  0.00  0.00     0.000 C
ATOM     28  O5  BDP C   2      29.075  33.952   8.7370  0.00  0.00     0.000 O
ATOM     29   O  BDP C   2      26.392  34.777  11.1510  0.00  0.00     0.000 O
ATOM     31  HD  BDP C   2      25.828  34.286  11.5890  0.00  0.00     0.000 HD
ATOM     31   O  BDP C   2      25.652  32.289  10.3430  0.00  0.00     0.000 O
ATOM     33  HD  BDP C   2      25.088  31.799  10.7800  0.00  0.00     0.000 HD
BRANCH 27 33
ATOM     33   C  BDP C   2      29.991  31.883   8.0630  0.00  0.00     0.000 C
ATOM     34   O  BDP C   2      31.018  31.213   8.3270  0.00  0.00     0.000 OA
ATOM     35   O  BDP C   2      29.647  32.025   6.9010  0.00  0.00     0.000 OA
ENDBRANCH 27 33
BRANCH 23 36
ATOM     36  O4  SGN C   3      28.634  35.956   9.7020  0.00  0.00     0.000 O
BRANCH 36 40
ATOM     37  C1  SGN C   3      30.815  39.319  10.8720  0.00  0.00     0.000 C
ATOM     38  C2  SGN C   3      31.392  38.451   9.7420  0.00  0.00     0.000 C
ATOM     39  C3  SGN C   3      30.310  37.559   9.1500  0.00  0.00     0.000 C
ATOM     40  C4  SGN C   3      29.700  36.730  10.2600  0.00  0.00     0.000 C
ATOM     41  C5  SGN C   3      29.181  37.661  11.3340  0.00  0.00     0.000 C
ATOM     42  O5  SGN C   3      30.260  38.455  11.8510  0.00  0.00     0.000 O
ATOM     43   O  SGN C   3      30.884  36.726   8.1500  0.00  0.00     0.000 O
ATOM     45  HD  SGN C   3      30.193  36.336   8.4980  0.00  0.00     0.000 HD
BRANCH 38 47
ATOM     45   N  SGN C   3      32.810  38.747  10.0130  0.00  0.00     0.000 N
ATOM     47  HD  SGN C   3      32.128  38.227  10.1330  0.00  0.00     0.000 HD
ATOM     47   S  SGN C   3      33.391  39.845   9.0210  0.00  0.00     0.000 S
ATOM     48   O  SGN C   3      33.436  39.364   7.6850  0.00  0.00     0.000 OA
ATOM     49   O  SGN C   3      32.642  41.037   9.2470  0.00  0.00     0.000 OA
ATOM     50   O  SGN C   3      34.767  39.975   9.4950  0.00  0.00     0.000 OA
ENDBRANCH 38 47
BRANCH 41 51
ATOM     51   C  SGN C   3      28.540  36.958  12.5000  0.00  0.00     0.000 C
ATOM     52   O  SGN C   3      30.070  34.352  14.6790  0.00  0.00     0.000 OA
ATOM     53   O  SGN C   3      28.492  36.066  15.2310  0.00  0.00     0.000 OA
ATOM     54   O  SGN C   3      27.896  34.308  13.7080  0.00  0.00     0.000 OA
ATOM     55   O  SGN C   3      29.483  36.084  13.0790  0.00  0.00     0.000 O
ATOM     56   S  SGN C   3      28.932  35.111  14.2870  0.00  0.00     0.000 S
ENDBRANCH 41 51
BRANCH 37 57
ATOM     57  O4  IDS C   4      29.852  40.190  10.4810  0.00  0.00     0.000 O
BRANCH 57 61
ATOM     58  C1  IDS C   4      28.576  43.771  10.6180  0.00  0.00     0.000 C
ATOM     59  C2  IDS C   4      30.046  43.527  10.7440  0.00  0.00     0.000 C
ATOM     60  C3  IDS C   4      30.372  42.300  11.6000  0.00  0.00     0.000 C
ATOM     61  C4  IDS C   4      29.416  41.120  11.4900  0.00  0.00     0.000 C
ATOM     62  C5  IDS C   4      27.988  41.602  11.2100  0.00  0.00     0.000 C
ATOM     63  O5  IDS C   4      27.953  42.576  10.1770  0.00  0.00     0.000 O
ATOM     64   O  IDS C   4      30.356  42.764  12.9370  0.00  0.00     0.000 O
ATOM     66  HD  IDS C   4      29.695  42.411  13.3720  0.00  0.00     0.000 HD
BRANCH 59 66
ATOM     66   O  IDS C   4      30.672  43.298   9.4280  0.00  0.00     0.000 O
ATOM     67   S  IDS C   4      31.574  44.477   8.8550  0.00  0.00     0.000 S
ATOM     68   O  IDS C   4      32.666  44.543   9.7970  0.00  0.00     0.000 OA
ATOM     69   O  IDS C   4      31.944  44.049   7.5200  0.00  0.00     0.000 OA
ATOM     70   O  IDS C   4      30.768  45.687   8.8820  0.00  0.00     0.000 OA
ENDBRANCH 59 66
BRANCH 62 71
ATOM     71   C  IDS C   4      27.063  40.490  10.7540  0.00  0.00     0.000 C
ATOM     72   O  IDS C   4      26.722  40.418   9.5890  0.00  0.00     0.000 OA
ATOM     73   O  IDS C   4      26.586  39.724  11.6150  0.00  0.00     0.000 OA
ENDBRANCH 62 71
BRANCH 58 74
ATOM     74  O4  SGN C   5      28.019  44.471  11.6470  0.00  0.00     0.000 O
BRANCH 74 78
ATOM     75  C1  SGN C   5      24.670  46.859  12.3720  0.00  0.00     0.000 C
ATOM     76  C2  SGN C   5      24.923  45.725  13.3830  0.00  0.00     0.000 C
ATOM     77  C3  SGN C   5      26.336  45.152  13.2130  0.00  0.00     0.000 C
ATOM     78  C4  SGN C   5      26.646  44.849  11.7540  0.00  0.00     0.000 C
ATOM     79  C5  SGN C   5      26.364  46.083  10.9090  0.00  0.00     0.000 C
ATOM     80  O5  SGN C   5      24.966  46.453  11.0430  0.00  0.00     0.000 O
ATOM     81   O  SGN C   5      26.455  43.973  14.0040  0.00  0.00     0.000 O
ATOM     83  HD  SGN C   5      26.075  43.906  14.7790  0.00  0.00     0.000 HD
BRANCH 76 85
ATOM     83   N  SGN C   5      23.682  46.049  14.0980  0.00  0.00     0.000 N
ATOM     85  HD  SGN C   5      23.232  46.489  14.6940  0.00  0.00     0.000 HD
ATOM     85   S  SGN C   5      23.449  46.333  15.6670  0.00  0.00     0.000 S
ATOM     86   O  SGN C   5      22.087  46.653  15.9170  0.00  0.00     0.000 OA
ATOM     87   O  SGN C   5      23.995  45.233  16.3770  0.00  0.00     0.000 OA
ATOM     88   O  SGN C   5      24.318  47.587  15.7380  0.00  0.00     0.000 OA
ENDBRANCH 76 85
BRANCH 79 89
ATOM     89   C  SGN C   5      26.667  45.889   9.4370  0.00  0.00     0.000 C
ATOM     90   O  SGN C   5      25.826  44.839   8.8980  0.00  0.00     0.000 O
ATOM     91   S  SGN C   5      25.404  44.974   7.3560  0.00  0.00     0.000 S
ATOM     92   O  SGN C   5      24.838  46.290   7.2030  0.00  0.00     0.000 OA
ATOM     93   O  SGN C   5      26.599  44.794   6.5720  0.00  0.00     0.000 OA
ATOM     94   O  SGN C   5      24.446  43.916   7.1820  0.00  0.00     0.000 OA
ENDBRANCH 79 89
BRANCH 75 95
ATOM     95  O4  BDP C   6      25.505  47.876  12.7380  0.00  0.00     0.000 O
BRANCH 95 99
ATOM     96  C1  BDP C   6      24.693  52.091  12.5730  0.00  0.00     0.000 C
ATOM     97  C2  BDP C   6      23.540  51.130  12.4910  0.00  0.00     0.000 C
ATOM     98  C3  BDP C   6      23.875  49.699  12.9370  0.00  0.00     0.000 C
ATOM     99  C4  BDP C   6      25.156  49.201  12.2830  0.00  0.00     0.000 C
ATOM    100  C5  BDP C   6      26.246  50.280  12.4850  0.00  0.00     0.000 C
ATOM    101  O5  BDP C   6      25.702  51.436  11.8260  0.00  0.00     0.000 O
BRANCH 100 102
ATOM    102   C  BDP C   6      27.545  49.928  11.8060  0.00  0.00     0.000 C
ATOM    103   O  BDP C   6      27.586  49.418  10.6770  0.00  0.00     0.000 OA
ATOM    104   O  BDP C   6      28.585  50.183  12.4240  0.00  0.00     0.000 OA
ENDBRANCH 100 102
ENDBRANCH 95 99
ENDBRANCH 75 95
ENDBRANCH 74 78
ENDBRANCH 58 74
ENDBRANCH 57 61
ENDBRANCH 37 57
ENDBRANCH 36 40
ENDBRANCH 23 36
ENDBRANCH 22 26
ENDBRANCH 1 22
TORSDOF 20
ENDMDL
MODEL 27
REMARK VINA RESULT:      -6.6     28.699     37.307
ROOT
ATOM      1  C1  NGY C   1      18.345   5.461  62.2850  0.00  0.00     0.000 C
ATOM      2  C2  NGY C   1      17.201   6.447  62.4730  0.00  0.00     0.000 C
ATOM      3  C3  NGY C   1      17.376   7.215  63.7800  0.00  0.00     0.000 C
ATOM      4  C4  NGY C   1      17.517   6.210  64.9070  0.00  0.00     0.000 C
ATOM      5  C5  NGY C   1      18.743   5.341  64.6370  0.00  0.00     0.000 C
ATOM      6  O5  NGY C   1      18.522   4.614  63.4010  0.00  0.00     0.000 O
ATOM      7   O  NGY C   1      16.261   8.075  63.9680  0.00  0.00     0.000 O
ATOM      9  HD  NGY C   1      15.408   8.055  63.8160  0.00  0.00     0.000 HD
ATOM      9   O  NGY C   1      17.650   6.866  66.1590  0.00  0.00     0.000 O
ATOM     11  HD  NGY C   1      16.797   6.847  66.0080  0.00  0.00     0.000 HD
ENDROOT
BRANCH 2 13
ATOM     11   N  NGY C   1      17.152   7.128  61.2010  0.00  0.00     0.000 N
ATOM     13  HD  NGY C   1      16.306   7.313  61.1800  0.00  0.00     0.000 HD
ATOM     13   C  NGY C   1      16.012   7.615  60.7140  0.00  0.00     0.000 C
ATOM     14   O  NGY C   1      14.933   7.379  61.2600  0.00  0.00     0.000 OA
ATOM     15   C  NGY C   1      16.116   8.480  59.4940  0.00  0.00     0.000 C
ENDBRANCH 2 13
BRANCH 5 16
ATOM     16   C  NGY C   1      19.023   4.300  65.6730  0.00  0.00     0.000 C
ATOM     17   O  NGY C   1      19.810   0.801  64.9010  0.00  0.00     0.000 OA
ATOM     18   O  NGY C   1      19.074   3.020  65.0370  0.00  0.00     0.000 O
ATOM     19   S  NGY C   1      19.785   1.882  65.8530  0.00  0.00     0.000 S
ATOM     20   O  NGY C   1      18.953   1.591  66.9920  0.00  0.00     0.000 OA
ATOM     21   O  NGY C   1      21.080   2.441  66.2080  0.00  0.00     0.000 OA
ENDBRANCH 5 16
BRANCH 1 22
ATOM     22  O4  BDP C   2      19.464   6.147  61.9720  0.00  0.00     0.000 O
BRANCH 22 26
ATOM     23  C1  BDP C   2      23.131   6.444  60.1200  0.00  0.00     0.000 C
ATOM     24  C2  BDP C   2      21.954   6.226  59.1990  0.00  0.00     0.000 C
ATOM     25  C3  BDP C   2      20.673   6.500  59.9420  0.00  0.00     0.000 C
ATOM     26  C4  BDP C   2      20.625   5.686  61.2310  0.00  0.00     0.000 C
ATOM     27  C5  BDP C   2      21.934   5.846  61.9930  0.00  0.00     0.000 C
ATOM     28  O5  BDP C   2      23.092   5.472  61.2020  0.00  0.00     0.000 O
ATOM     29   O  BDP C   2      21.925   7.162  58.1220  0.00  0.00     0.000 O
ATOM     31  HD  BDP C   2      21.144   7.429  57.8620  0.00  0.00     0.000 HD
ATOM     31   O  BDP C   2      19.606   6.119  59.0830  0.00  0.00     0.000 O
ATOM     33  HD  BDP C   2      18.825   6.386  58.8230  0.00  0.00     0.000 HD
BRANCH 27 33
ATOM     33   C  BDP C   2      21.989   4.986  63.2330  0.00  0.00     0.000 C
ATOM     34   O  BDP C   2      21.754   3.754  63.2000  0.00  0.00     0.000 OA
ATOM     35   O  BDP C   2      22.238   5.522  64.3000  0.00  0.00     0.000 OA
ENDBRANCH 27 33
BRANCH 23 36
ATOM     36  O4  SGN C   3      24.349   6.356  59.5350  0.00  0.00     0.000 O
BRANCH 36 40
ATOM     37  C1  SGN C   3      28.077   8.186  59.1130  0.00  0.00     0.000 C
ATOM     38  C2  SGN C   3      27.889   7.211  60.2860  0.00  0.00     0.000 C
ATOM     39  C3  SGN C   3      26.676   6.323  60.0510  0.00  0.00     0.000 C
ATOM     40  C4  SGN C   3      25.463   7.202  59.8310  0.00  0.00     0.000 C
ATOM     41  C5  SGN C   3      25.744   8.141  58.6780  0.00  0.00     0.000 C
ATOM     42  O5  SGN C   3      26.890   8.952  58.9820  0.00  0.00     0.000 O
ATOM     43   O  SGN C   3      26.491   5.474  61.1770  0.00  0.00     0.000 O
ATOM     45  HD  SGN C   3      25.732   5.614  60.7860  0.00  0.00     0.000 HD
BRANCH 38 47
ATOM     45   N  SGN C   3      29.037   8.007  60.7550  0.00  0.00     0.000 N
ATOM     47  HD  SGN C   3      28.197   7.975  60.5450  0.00  0.00     0.000 HD
ATOM     47   S  SGN C   3      30.253   7.091  61.2120  0.00  0.00     0.000 S
ATOM     48   O  SGN C   3      29.925   6.331  62.3660  0.00  0.00     0.000 OA
ATOM     49   O  SGN C   3      30.668   6.359  60.0600  0.00  0.00     0.000 OA
ATOM     50   O  SGN C   3      31.247   8.089  61.6020  0.00  0.00     0.000 OA
ENDBRANCH 38 47
BRANCH 41 51
ATOM     51   C  SGN C   3      24.608   9.071  58.3520  0.00  0.00     0.000 C
ATOM     52   O  SGN C   3      22.825  11.362  60.6870  0.00  0.00     0.000 OA
ATOM     53   O  SGN C   3      23.330  11.645  58.3640  0.00  0.00     0.000 OA
ATOM     54   O  SGN C   3      21.838   9.905  59.0820  0.00  0.00     0.000 OA
ATOM     55   O  SGN C   3      24.261   9.793  59.5130  0.00  0.00     0.000 O
ATOM     56   S  SGN C   3      22.939  10.766  59.4000  0.00  0.00     0.000 S
ENDBRANCH 41 51
BRANCH 37 57
ATOM     57  O4  IDS C   4      28.333   7.594  57.9200  0.00  0.00     0.000 O
BRANCH 57 61
ATOM     58  C1  IDS C   4      30.513   6.996  54.8610  0.00  0.00     0.000 C
ATOM     59  C2  IDS C   4      31.161   7.031  56.2090  0.00  0.00     0.000 C
ATOM     60  C3  IDS C   4      30.581   8.119  57.1160  0.00  0.00     0.000 C
ATOM     61  C4  IDS C   4      29.088   8.389  56.9860  0.00  0.00     0.000 C
ATOM     62  C5  IDS C   4      28.614   8.144  55.5490  0.00  0.00     0.000 C
ATOM     63  O5  IDS C   4      29.108   6.916  55.0340  0.00  0.00     0.000 O
ATOM     64   O  IDS C   4      31.279   9.301  56.7730  0.00  0.00     0.000 O
ATOM     66  HD  IDS C   4      30.745   9.871  56.3980  0.00  0.00     0.000 HD
BRANCH 59 66
ATOM     66   O  IDS C   4      30.990   5.753  56.9260  0.00  0.00     0.000 O
ATOM     67   S  IDS C   4      32.261   4.798  56.9900  0.00  0.00     0.000 S
ATOM     68   O  IDS C   4      33.205   5.559  57.7730  0.00  0.00     0.000 OA
ATOM     69   O  IDS C   4      31.784   3.583  57.6190  0.00  0.00     0.000 OA
ATOM     70   O  IDS C   4      32.726   4.610  55.6240  0.00  0.00     0.000 OA
ENDBRANCH 59 66
BRANCH 62 71
ATOM     71   C  IDS C   4      27.105   8.061  55.4270  0.00  0.00     0.000 C
ATOM     72   O  IDS C   4      26.561   6.980  55.3070  0.00  0.00     0.000 OA
ATOM     73   O  IDS C   4      26.456   9.123  55.3470  0.00  0.00     0.000 OA
ENDBRANCH 62 71
BRANCH 58 74
ATOM     74  O4  SGN C   5      31.024   7.876  53.9540  0.00  0.00     0.000 O
BRANCH 74 78
ATOM     75  C1  SGN C   5      31.979   8.570  49.9480  0.00  0.00     0.000 C
ATOM     76  C2  SGN C   5      30.507   8.224  50.2410  0.00  0.00     0.000 C
ATOM     77  C3  SGN C   5      30.214   8.331  51.7440  0.00  0.00     0.000 C
ATOM     78  C4  SGN C   5      31.266   7.607  52.5730  0.00  0.00     0.000 C
ATOM     79  C5  SGN C   5      32.651   8.089  52.1680  0.00  0.00     0.000 C
ATOM     80  O5  SGN C   5      32.868   7.813  50.7590  0.00  0.00     0.000 O
ATOM     81   O  SGN C   5      28.919   7.796  52.0010  0.00  0.00     0.000 O
ATOM     83  HD  SGN C   5      28.264   7.906  51.4460  0.00  0.00     0.000 HD
BRANCH 76 85
ATOM     83   N  SGN C   5      30.128   8.161  48.8240  0.00  0.00     0.000 N
ATOM     85  HD  SGN C   5      29.909   8.530  48.0720  0.00  0.00     0.000 HD
ATOM     85   S  SGN C   5      29.030   9.023  48.0200  0.00  0.00     0.000 S
ATOM     86   O  SGN C   5      29.024   8.661  46.6450  0.00  0.00     0.000 OA
ATOM     87   O  SGN C   5      27.804   8.903  48.7250  0.00  0.00     0.000 OA
ATOM     88   O  SGN C   5      29.707  10.378  48.2170  0.00  0.00     0.000 OA
ENDBRANCH 76 85
BRANCH 79 89
ATOM     89   C  SGN C   5      33.770   7.441  52.9580  0.00  0.00     0.000 C
ATOM     90   O  SGN C   5      33.760   6.010  52.7380  0.00  0.00     0.000 O
ATOM     91   S  SGN C   5      35.180   5.262  52.7930  0.00  0.00     0.000 S
ATOM     92   O  SGN C   5      36.048   5.971  51.8890  0.00  0.00     0.000 OA
ATOM     93   O  SGN C   5      35.638   5.323  54.1570  0.00  0.00     0.000 OA
ATOM     94   O  SGN C   5      34.867   3.928  52.3590  0.00  0.00     0.000 OA
ENDBRANCH 79 89
BRANCH 75 95
ATOM     95  O4  BDP C   6      32.113   9.899  50.2360  0.00  0.00     0.000 O
BRANCH 95 99
ATOM     96  C1  BDP C   6      34.839  12.796  48.6170  0.00  0.00     0.000 C
ATOM     97  C2  BDP C   6      34.411  11.646  47.7500  0.00  0.00     0.000 C
ATOM     98  C3  BDP C   6      33.171  10.896  48.2600  0.00  0.00     0.000 C
ATOM     99  C4  BDP C   6      33.298  10.557  49.7380  0.00  0.00     0.000 C
ATOM    100  C5  BDP C   6      33.707  11.845  50.4900  0.00  0.00     0.000 C
ATOM    101  O5  BDP C   6      34.965  12.198  49.8930  0.00  0.00     0.000 O
BRANCH 100 102
ATOM    102   C  BDP C   6      33.940  11.610  51.9610  0.00  0.00     0.000 C
ATOM    103   O  BDP C   6      33.012  11.583  52.7820  0.00  0.00     0.000 OA
ATOM    104   O  BDP C   6      35.110  11.430  52.3200  0.00  0.00     0.000 OA
ENDBRANCH 100 102
ENDBRANCH 95 99
ENDBRANCH 75 95
ENDBRANCH 74 78
ENDBRANCH 58 74
ENDBRANCH 57 61
ENDBRANCH 37 57
ENDBRANCH 36 40
ENDBRANCH 23 36
ENDBRANCH 22 26
ENDBRANCH 1 22
TORSDOF 20
ENDMDL
MODEL 28
REMARK VINA RESULT:      -6.5     34.093     41.741
ROOT
ATOM      1  C1  NGY C   1      23.545   6.138  57.8610  0.00  0.00     0.000 C
ATOM      2  C2  NGY C   1      24.252   4.974  58.5400  0.00  0.00     0.000 C
ATOM      3  C3  NGY C   1      25.585   5.432  59.1220  0.00  0.00     0.000 C
ATOM      4  C4  NGY C   1      26.390   6.083  58.0140  0.00  0.00     0.000 C
ATOM      5  C5  NGY C   1      25.609   7.279  57.4790  0.00  0.00     0.000 C
ATOM      6  O5  NGY C   1      24.363   6.793  56.9150  0.00  0.00     0.000 O
ATOM      7   O  NGY C   1      26.258   4.314  59.6850  0.00  0.00     0.000 O
ATOM      9  HD  NGY C   1      26.354   3.472  59.5070  0.00  0.00     0.000 HD
ATOM      9   O  NGY C   1      27.662   6.502  58.4880  0.00  0.00     0.000 O
ATOM     11  HD  NGY C   1      27.758   5.660  58.3090  0.00  0.00     0.000 HD
ENDROOT
BRANCH 2 13
ATOM     11   N  NGY C   1      24.180   4.002  59.6050  0.00  0.00     0.000 N
ATOM     13  HD  NGY C   1      23.452   3.596  59.3680  0.00  0.00     0.000 HD
ATOM     13   C  NGY C   1      23.187   3.116  59.6760  0.00  0.00     0.000 C
ATOM     14   O  NGY C   1      22.218   3.184  58.9180  0.00  0.00     0.000 OA
ATOM     15   C  NGY C   1      23.327   2.029  60.6980  0.00  0.00     0.000 C
ENDBRANCH 2 13
BRANCH 5 16
ATOM     16   C  NGY C   1      26.281   8.036  56.3790  0.00  0.00     0.000 C
ATOM     17   O  NGY C   1      27.652  11.418  56.7580  0.00  0.00     0.000 OA
ATOM     18   O  NGY C   1      26.492   9.384  56.8100  0.00  0.00     0.000 O
ATOM     19   S  NGY C   1      27.562  10.198  55.9970  0.00  0.00     0.000 S
ATOM     20   O  NGY C   1      27.022  10.412  54.6800  0.00  0.00     0.000 OA
ATOM     21   O  NGY C   1      28.748   9.358  56.0090  0.00  0.00     0.000 OA
ENDBRANCH 5 16
BRANCH 1 22
ATOM     22  O4  BDP C   2      23.077   6.976  58.8110  0.00  0.00     0.000 O
BRANCH 22 26
ATOM     23  C1  BDP C   2      19.751   9.009  60.1390  0.00  0.00     0.000 C
ATOM     24  C2  BDP C   2      19.493   7.960  59.0830  0.00  0.00     0.000 C
ATOM     25  C3  BDP C   2      20.695   7.061  58.9590  0.00  0.00     0.000 C
ATOM     26  C4  BDP C   2      21.953   7.891  58.7280  0.00  0.00     0.000 C
ATOM     27  C5  BDP C   2      22.018   9.025  59.7430  0.00  0.00     0.000 C
ATOM     28  O5  BDP C   2      20.841   9.873  59.7120  0.00  0.00     0.000 O
ATOM     29   O  BDP C   2      18.441   7.066  59.4500  0.00  0.00     0.000 O
ATOM     31  HD  BDP C   2      18.532   6.240  59.2050  0.00  0.00     0.000 HD
ATOM     31   O  BDP C   2      20.461   6.209  57.8450  0.00  0.00     0.000 O
ATOM     33  HD  BDP C   2      20.551   5.383  57.6010  0.00  0.00     0.000 HD
BRANCH 27 33
ATOM     33   C  BDP C   2      23.192   9.945  59.5080  0.00  0.00     0.000 C
ATOM     34   O  BDP C   2      23.356  10.550  58.4210  0.00  0.00     0.000 OA
ATOM     35   O  BDP C   2      24.019  10.069  60.3960  0.00  0.00     0.000 OA
ENDBRANCH 27 33
BRANCH 23 36
ATOM     36  O4  SGN C   3      18.695   9.801  60.4390  0.00  0.00     0.000 O
BRANCH 36 40
ATOM     37  C1  SGN C   3      16.820  11.045  63.9550  0.00  0.00     0.000 C
ATOM     38  C2  SGN C   3      17.076  12.103  62.8700  0.00  0.00     0.000 C
ATOM     39  C3  SGN C   3      17.345  11.436  61.5290  0.00  0.00     0.000 C
ATOM     40  C4  SGN C   3      18.505  10.476  61.6860  0.00  0.00     0.000 C
ATOM     41  C5  SGN C   3      18.177   9.490  62.7850  0.00  0.00     0.000 C
ATOM     42  O5  SGN C   3      17.953  10.193  64.0170  0.00  0.00     0.000 O
ATOM     43   O  SGN C   3      17.637  12.434  60.5590  0.00  0.00     0.000 O
ATOM     45  HD  SGN C   3      18.026  11.690  60.3440  0.00  0.00     0.000 HD
BRANCH 38 47
ATOM     45   N  SGN C   3      17.188  13.226  63.8180  0.00  0.00     0.000 N
ATOM     47  HD  SGN C   3      17.579  12.598  63.3670  0.00  0.00     0.000 HD
ATOM     47   S  SGN C   3      15.872  14.116  63.8480  0.00  0.00     0.000 S
ATOM     48   O  SGN C   3      15.673  14.788  62.6130  0.00  0.00     0.000 OA
ATOM     49   O  SGN C   3      14.815  13.268  64.2940  0.00  0.00     0.000 OA
ATOM     50   O  SGN C   3      16.215  15.121  64.8520  0.00  0.00     0.000 OA
ENDBRANCH 38 47
BRANCH 41 51
ATOM     51   C  SGN C   3      19.255   8.471  63.0390  0.00  0.00     0.000 C
ATOM     52   O  SGN C   3      18.893   4.763  63.0560  0.00  0.00     0.000 OA
ATOM     53   O  SGN C   3      20.748   6.110  62.3640  0.00  0.00     0.000 OA
ATOM     54   O  SGN C   3      20.044   6.094  64.6600  0.00  0.00     0.000 OA
ATOM     55   O  SGN C   3      18.703   7.180  62.9020  0.00  0.00     0.000 O
ATOM     56   S  SGN C   3      19.690   5.920  63.2830  0.00  0.00     0.000 S
ENDBRANCH 41 51
BRANCH 37 57
ATOM     57  O4  IDS C   4      15.722  10.277  63.7480  0.00  0.00     0.000 O
BRANCH 57 61
ATOM     58  C1  IDS C   4      12.922   8.631  65.7290  0.00  0.00     0.000 C
ATOM     59  C2  IDS C   4      13.725   9.711  66.3820  0.00  0.00     0.000 C
ATOM     60  C3  IDS C   4      15.216   9.623  66.0490  0.00  0.00     0.000 C
ATOM     61  C4  IDS C   4      15.575   9.158  64.6440  0.00  0.00     0.000 C
ATOM     62  C5  IDS C   4      14.530   8.168  64.1170  0.00  0.00     0.000 C
ATOM     63  O5  IDS C   4      13.206   8.630  64.3400  0.00  0.00     0.000 O
ATOM     64   O  IDS C   4      15.751   8.696  66.9750  0.00  0.00     0.000 O
ATOM     66  HD  IDS C   4      16.013   7.978  66.5680  0.00  0.00     0.000 HD
BRANCH 59 66
ATOM     66   O  IDS C   4      13.279  11.051  65.9550  0.00  0.00     0.000 O
ATOM     67   S  IDS C   4      12.751  12.022  67.1000  0.00  0.00     0.000 S
ATOM     68   O  IDS C   4      13.924  12.244  67.9100  0.00  0.00     0.000 OA
ATOM     69   O  IDS C   4      12.261  13.193  66.3990  0.00  0.00     0.000 OA
ATOM     70   O  IDS C   4      11.721  11.302  67.8330  0.00  0.00     0.000 OA
ENDBRANCH 59 66
BRANCH 62 71
ATOM     71   C  IDS C   4      14.635   7.933  62.6220  0.00  0.00     0.000 C
ATOM     72   O  IDS C   4      13.795   8.391  61.8720  0.00  0.00     0.000 OA
ATOM     73   O  IDS C   4      15.535   7.179  62.2010  0.00  0.00     0.000 OA
ENDBRANCH 62 71
BRANCH 58 74
ATOM     74  O4  SGN C   5      12.895   7.446  66.4040  0.00  0.00     0.000 O
BRANCH 74 78
ATOM     75  C1  SGN C   5      11.071   3.690  66.4860  0.00  0.00     0.000 C
ATOM     76  C2  SGN C   5      12.557   3.711  66.0790  0.00  0.00     0.000 C
ATOM     77  C3  SGN C   5      13.192   5.067  66.4150  0.00  0.00     0.000 C
ATOM     78  C4  SGN C   5      12.332   6.225  65.9260  0.00  0.00     0.000 C
ATOM     79  C5  SGN C   5      10.911   6.054  66.4410  0.00  0.00     0.000 C
ATOM     80  O5  SGN C   5      10.364   4.801  65.9500  0.00  0.00     0.000 O
ATOM     81   O  SGN C   5      14.489   5.126  65.8300  0.00  0.00     0.000 O
ATOM     83  HD  SGN C   5      15.003   4.430  65.7930  0.00  0.00     0.000 HD
BRANCH 76 85
ATOM     83   N  SGN C   5      12.962   2.542  66.8700  0.00  0.00     0.000 N
ATOM     85  HD  SGN C   5      13.486   1.873  67.0360  0.00  0.00     0.000 HD
ATOM     85   S  SGN C   5      13.512   1.112  66.3740  0.00  0.00     0.000 S
ATOM     86   O  SGN C   5      13.827   0.287  67.4880  0.00  0.00     0.000 OA
ATOM     87   O  SGN C   5      12.573   0.604  65.4390  0.00  0.00     0.000 OA
ATOM     88   O  SGN C   5      14.785   1.642  65.7190  0.00  0.00     0.000 OA
ENDBRANCH 76 85
BRANCH 79 89
ATOM     89   C  SGN C   5       9.979   7.174  66.0260  0.00  0.00     0.000 C
ATOM     90   O  SGN C   5       9.088   6.710  64.9820  0.00  0.00     0.000 O
ATOM     91   S  SGN C   5       7.624   7.366  64.9390  0.00  0.00     0.000 S
ATOM     92   O  SGN C   5       7.075   7.219  66.2620  0.00  0.00     0.000 OA
ATOM     93   O  SGN C   5       7.789   8.746  64.5610  0.00  0.00     0.000 OA
ATOM     94   O  SGN C   5       6.940   6.583  63.9460  0.00  0.00     0.000 OA
ENDBRANCH 79 89
BRANCH 75 95
ATOM     95  O4  BDP C   6      11.058   3.754  67.8510  0.00  0.00     0.000 O
BRANCH 95 99
ATOM     96  C1  BDP C   6       7.996   2.482  70.5800  0.00  0.00     0.000 C
ATOM     97  C2  BDP C   6       8.068   1.836  69.2260  0.00  0.00     0.000 C
ATOM     98  C3  BDP C   6       9.393   2.067  68.4840  0.00  0.00     0.000 C
ATOM     99  C4  BDP C   6       9.787   3.537  68.5010  0.00  0.00     0.000 C
ATOM    100  C5  BDP C   6       9.695   4.039  69.9610  0.00  0.00     0.000 C
ATOM    101  O5  BDP C   6       8.315   3.833  70.3010  0.00  0.00     0.000 O
BRANCH 100 102
ATOM    102   C  BDP C   6       9.990   5.512  70.0890  0.00  0.00     0.000 C
ATOM    103   O  BDP C   6      11.130   5.942  70.3200  0.00  0.00     0.000 OA
ATOM    104   O  BDP C   6       9.038   6.288  69.9390  0.00  0.00     0.000 OA
ENDBRANCH 100 102
ENDBRANCH 95 99
ENDBRANCH 75 95
ENDBRANCH 74 78
ENDBRANCH 58 74
ENDBRANCH 57 61
ENDBRANCH 37 57
ENDBRANCH 36 40
ENDBRANCH 23 36
ENDBRANCH 22 26
ENDBRANCH 1 22
TORSDOF 20
ENDMDL
MODEL 29
REMARK VINA RESULT:      -6.5     29.548     36.329
ROOT
ATOM      1  C1  NGY C   1      17.839  11.306  61.0160  0.00  0.00     0.000 C
ATOM      2  C2  NGY C   1      17.472  12.593  61.7420  0.00  0.00     0.000 C
ATOM      3  C3  NGY C   1      17.092  12.294  63.1880  0.00  0.00     0.000 C
ATOM      4  C4  NGY C   1      15.991  11.250  63.1850  0.00  0.00     0.000 C
ATOM      5  C5  NGY C   1      16.514   9.988  62.5050  0.00  0.00     0.000 C
ATOM      6  O5  NGY C   1      16.840  10.315  61.1290  0.00  0.00     0.000 O
ATOM      7   O  NGY C   1      16.684  13.498  63.8220  0.00  0.00     0.000 O
ATOM      9  HD  NGY C   1      16.252  14.216  63.6070  0.00  0.00     0.000 HD
ATOM      9   O  NGY C   1      15.569  10.953  64.5080  0.00  0.00     0.000 O
ATOM     11  HD  NGY C   1      15.136  11.671  64.2930  0.00  0.00     0.000 HD
ENDROOT
BRANCH 2 13
ATOM     11   N  NGY C   1      18.501  13.463  61.2230  0.00  0.00     0.000 N
ATOM     13  HD  NGY C   1      18.157  14.226  61.4470  0.00  0.00     0.000 HD
ATOM     13   C  NGY C   1      18.413  14.788  61.3300  0.00  0.00     0.000 C
ATOM     14   O  NGY C   1      17.387  15.327  61.7470  0.00  0.00     0.000 OA
ATOM     15   C  NGY C   1      19.629  15.576  60.9470  0.00  0.00     0.000 C
ENDBRANCH 2 13
BRANCH 5 16
ATOM     16   C  NGY C   1      15.541   8.856  62.4320  0.00  0.00     0.000 C
ATOM     17   O  NGY C   1      12.984   8.516  59.8230  0.00  0.00     0.000 OA
ATOM     18   O  NGY C   1      14.564   9.153  61.4310  0.00  0.00     0.000 O
ATOM     19   S  NGY C   1      13.741   7.926  60.8970  0.00  0.00     0.000 S
ATOM     20   O  NGY C   1      12.901   7.476  61.9770  0.00  0.00     0.000 OA
ATOM     21   O  NGY C   1      14.747   6.954  60.5010  0.00  0.00     0.000 OA
ENDBRANCH 5 16
BRANCH 1 22
ATOM     22  O4  BDP C   2      19.041  10.884  61.4610  0.00  0.00     0.000 O
BRANCH 22 26
ATOM     23  C1  BDP C   2      22.723   9.369  60.4050  0.00  0.00     0.000 C
ATOM     24  C2  BDP C   2      21.939  10.012  59.2850  0.00  0.00     0.000 C
ATOM     25  C3  BDP C   2      20.814  10.831  59.8610  0.00  0.00     0.000 C
ATOM     26  C4  BDP C   2      19.975   9.982  60.8110  0.00  0.00     0.000 C
ATOM     27  C5  BDP C   2      20.885   9.244  61.7840  0.00  0.00     0.000 C
ATOM     28  O5  BDP C   2      21.875   8.423  61.1140  0.00  0.00     0.000 O
ATOM     29   O  BDP C   2      22.712  10.967  58.5580  0.00  0.00     0.000 O
ATOM     31  HD  BDP C   2      22.292  11.668  58.2720  0.00  0.00     0.000 HD
ATOM     31   O  BDP C   2      20.019  11.269  58.7660  0.00  0.00     0.000 O
ATOM     33  HD  BDP C   2      19.599  11.970  58.4790  0.00  0.00     0.000 HD
BRANCH 27 33
ATOM     33   C  BDP C   2      20.122   8.308  62.6910  0.00  0.00     0.000 C
ATOM     34   O  BDP C   2      19.496   8.719  63.6970  0.00  0.00     0.000 OA
ATOM     35   O  BDP C   2      20.150   7.113  62.4480  0.00  0.00     0.000 OA
ENDBRANCH 27 33
BRANCH 23 36
ATOM     36  O4  SGN C   3      23.842   8.711  60.0250  0.00  0.00     0.000 O
BRANCH 36 40
ATOM     37  C1  SGN C   3      27.934   8.201  60.6820  0.00  0.00     0.000 C
ATOM     38  C2  SGN C   3      26.963   7.558  61.6860  0.00  0.00     0.000 C
ATOM     39  C3  SGN C   3      25.568   7.456  61.0880  0.00  0.00     0.000 C
ATOM     40  C4  SGN C   3      25.120   8.835  60.6550  0.00  0.00     0.000 C
ATOM     41  C5  SGN C   3      26.141   9.399  59.6900  0.00  0.00     0.000 C
ATOM     42  O5  SGN C   3      27.423   9.478  60.3320  0.00  0.00     0.000 O
ATOM     43   O  SGN C   3      24.680   6.913  62.0570  0.00  0.00     0.000 O
ATOM     45  HD  SGN C   3      24.243   7.417  61.5060  0.00  0.00     0.000 HD
BRANCH 38 47
ATOM     45   N  SGN C   3      27.683   7.543  62.9720  0.00  0.00     0.000 N
ATOM     47  HD  SGN C   3      27.059   7.885  62.4790  0.00  0.00     0.000 HD
ATOM     47   S  SGN C   3      28.569   6.235  63.1460  0.00  0.00     0.000 S
ATOM     48   O  SGN C   3      27.761   5.071  63.2430  0.00  0.00     0.000 OA
ATOM     49   O  SGN C   3      29.539   6.256  62.1000  0.00  0.00     0.000 OA
ATOM     50   O  SGN C   3      29.182   6.462  64.4530  0.00  0.00     0.000 OA
ENDBRANCH 38 47
BRANCH 41 51
ATOM     51   C  SGN C   3      25.809  10.774  59.1780  0.00  0.00     0.000 C
ATOM     52   O  SGN C   3      25.679  13.940  61.1360  0.00  0.00     0.000 OA
ATOM     53   O  SGN C   3      26.341  13.580  58.8640  0.00  0.00     0.000 OA
ATOM     54   O  SGN C   3      24.077  13.174  59.5500  0.00  0.00     0.000 OA
ATOM     55   O  SGN C   3      25.923  11.696  60.2390  0.00  0.00     0.000 O
ATOM     56   S  SGN C   3      25.460  13.242  59.9160  0.00  0.00     0.000 S
ENDBRANCH 41 51
BRANCH 37 57
ATOM     57  O4  IDS C   4      28.120   7.492  59.5420  0.00  0.00     0.000 O
BRANCH 57 61
ATOM     58  C1  IDS C   4      30.365   6.850  56.5390  0.00  0.00     0.000 C
ATOM     59  C2  IDS C   4      30.988   7.325  57.8130  0.00  0.00     0.000 C
ATOM     60  C3  IDS C   4      30.150   8.393  58.5200  0.00  0.00     0.000 C
ATOM     61  C4  IDS C   4      28.638   8.243  58.4270  0.00  0.00     0.000 C
ATOM     62  C5  IDS C   4      28.236   7.595  57.0960  0.00  0.00     0.000 C
ATOM     63  O5  IDS C   4      29.030   6.454  56.8060  0.00  0.00     0.000 O
ATOM     64   O  IDS C   4      30.515   9.617  57.9100  0.00  0.00     0.000 O
ATOM     66  HD  IDS C   4      29.849   9.942  57.4620  0.00  0.00     0.000 HD
BRANCH 59 66
ATOM     66   O  IDS C   4      31.160   6.222  58.7770  0.00  0.00     0.000 O
ATOM     67   S  IDS C   4      32.596   5.538  58.8280  0.00  0.00     0.000 S
ATOM     68   O  IDS C   4      33.449   6.602  59.3010  0.00  0.00     0.000 OA
ATOM     69   O  IDS C   4      32.447   4.423  59.7410  0.00  0.00     0.000 OA
ATOM     70   O  IDS C   4      32.933   5.145  57.4690  0.00  0.00     0.000 OA
ENDBRANCH 59 66
BRANCH 62 71
ATOM     71   C  IDS C   4      26.800   7.108  57.0810  0.00  0.00     0.000 C
ATOM     72   O  IDS C   4      26.556   5.924  57.2050  0.00  0.00     0.000 OA
ATOM     73   O  IDS C   4      25.896   7.932  56.8360  0.00  0.00     0.000 OA
ENDBRANCH 62 71
BRANCH 58 74
ATOM     74  O4  SGN C   5      30.625   7.625  55.4480  0.00  0.00     0.000 O
BRANCH 74 78
ATOM     75  C1  SGN C   5      30.595   7.752  51.2730  0.00  0.00     0.000 C
ATOM     76  C2  SGN C   5      29.399   8.420  51.9780  0.00  0.00     0.000 C
ATOM     77  C3  SGN C   5      29.688   8.611  53.4730  0.00  0.00     0.000 C
ATOM     78  C4  SGN C   5      30.232   7.337  54.1060  0.00  0.00     0.000 C
ATOM     79  C5  SGN C   5      31.418   6.834  53.2970  0.00  0.00     0.000 C
ATOM     80  O5  SGN C   5      30.995   6.559  51.9350  0.00  0.00     0.000 O
ATOM     81   O  SGN C   5      28.492   9.022  54.1260  0.00  0.00     0.000 O
ATOM     83  HD  SGN C   5      27.928   9.558  53.7450  0.00  0.00     0.000 HD
BRANCH 76 85
ATOM     83   N  SGN C   5      28.240   8.999  51.2870  0.00  0.00     0.000 N
ATOM     85  HD  SGN C   5      27.833   9.280  50.5770  0.00  0.00     0.000 HD
ATOM     85   S  SGN C   5      28.195  10.098  50.1110  0.00  0.00     0.000 S
ATOM     86   O  SGN C   5      26.854  10.336  49.7050  0.00  0.00     0.000 OA
ATOM     87   O  SGN C   5      28.944  11.219  50.5550  0.00  0.00     0.000 OA
ATOM     88   O  SGN C   5      28.931   9.257  49.0700  0.00  0.00     0.000 OA
ENDBRANCH 76 85
BRANCH 79 89
ATOM     89   C  SGN C   5      32.047   5.578  53.8640  0.00  0.00     0.000 C
ATOM     90   O  SGN C   5      32.968   5.012  52.8990  0.00  0.00     0.000 O
ATOM     91   S  SGN C   5      34.239   4.230  53.4880  0.00  0.00     0.000 S
ATOM     92   O  SGN C   5      34.872   5.127  54.4200  0.00  0.00     0.000 OA
ATOM     93   O  SGN C   5      33.744   3.035  54.1230  0.00  0.00     0.000 OA
ATOM     94   O  SGN C   5      35.034   3.964  52.3200  0.00  0.00     0.000 OA
ENDBRANCH 79 89
BRANCH 75 95
ATOM     95  O4  BDP C   6      31.611   8.664  51.3180  0.00  0.00     0.000 O
BRANCH 95 99
ATOM     96  C1  BDP C   6      34.799   9.447  48.5480  0.00  0.00     0.000 C
ATOM     97  C2  BDP C   6      33.454   9.049  48.0070  0.00  0.00     0.000 C
ATOM     98  C3  BDP C   6      32.304   9.165  49.0190  0.00  0.00     0.000 C
ATOM     99  C4  BDP C   6      32.667   8.512  50.3450  0.00  0.00     0.000 C
ATOM    100  C5  BDP C   6      34.051   9.049  50.7800  0.00  0.00     0.000 C
ATOM    101  O5  BDP C   6      34.920   8.646  49.7090  0.00  0.00     0.000 O
BRANCH 100 102
ATOM    102   C  BDP C   6      34.550   8.409  52.0500  0.00  0.00     0.000 C
ATOM    103   O  BDP C   6      34.368   8.920  53.1650  0.00  0.00     0.000 OA
ATOM    104   O  BDP C   6      35.147   7.332  51.9360  0.00  0.00     0.000 OA
ENDBRANCH 100 102
ENDBRANCH 95 99
ENDBRANCH 75 95
ENDBRANCH 74 78
ENDBRANCH 58 74
ENDBRANCH 57 61
ENDBRANCH 37 57
ENDBRANCH 36 40
ENDBRANCH 23 36
ENDBRANCH 22 26
ENDBRANCH 1 22
TORSDOF 20
ENDMDL
MODEL 30
REMARK VINA RESULT:      -6.5     34.340     40.503
ROOT
ATOM      1  C1  NGY C   1      22.837   4.858  58.3190  0.00  0.00     0.000 C
ATOM      2  C2  NGY C   1      22.965   3.609  59.1800  0.00  0.00     0.000 C
ATOM      3  C3  NGY C   1      24.080   3.787  60.2050  0.00  0.00     0.000 C
ATOM      4  C4  NGY C   1      25.351   4.163  59.4670  0.00  0.00     0.000 C
ATOM      5  C5  NGY C   1      25.112   5.469  58.7150  0.00  0.00     0.000 C
ATOM      6  O5  NGY C   1      24.063   5.246  57.7370  0.00  0.00     0.000 O
ATOM      7   O  NGY C   1      24.229   2.585  60.9460  0.00  0.00     0.000 O
ATOM      9  HD  NGY C   1      24.179   1.733  60.7960  0.00  0.00     0.000 HD
ATOM      9   O  NGY C   1      26.438   4.311  60.3690  0.00  0.00     0.000 O
ATOM     11  HD  NGY C   1      26.388   3.459  60.2180  0.00  0.00     0.000 HD
ENDROOT
BRANCH 2 13
ATOM     11   N  NGY C   1      22.200   2.393  59.0350  0.00  0.00     0.000 N
ATOM     13  HD  NGY C   1      21.625   2.521  59.6700  0.00  0.00     0.000 HD
ATOM     13   C  NGY C   1      21.163   2.123  59.8270  0.00  0.00     0.000 C
ATOM     14   O  NGY C   1      20.906   2.829  60.8030  0.00  0.00     0.000 OA
ATOM     15   C  NGY C   1      20.321   0.942  59.4520  0.00  0.00     0.000 C
ENDBRANCH 2 13
BRANCH 5 16
ATOM     16   C  NGY C   1      26.284   5.980  57.9400  0.00  0.00     0.000 C
ATOM     17   O  NGY C   1      26.067   7.295  54.5220  0.00  0.00     0.000 OA
ATOM     18   O  NGY C   1      25.878   6.206  56.5870  0.00  0.00     0.000 O
ATOM     19   S  NGY C   1      26.815   7.144  55.7440  0.00  0.00     0.000 S
ATOM     20   O  NGY C   1      28.055   6.440  55.5450  0.00  0.00     0.000 OA
ATOM     21   O  NGY C   1      26.954   8.345  56.5520  0.00  0.00     0.000 OA
ENDBRANCH 5 16
BRANCH 1 22
ATOM     22  O4  BDP C   2      22.280   5.840  59.0590  0.00  0.00     0.000 O
BRANCH 22 26
ATOM     23  C1  BDP C   2      20.300   9.442  59.3280  0.00  0.00     0.000 C
ATOM     24  C2  BDP C   2      19.742   8.467  58.3180  0.00  0.00     0.000 C
ATOM     25  C3  BDP C   2      20.306   7.095  58.5750  0.00  0.00     0.000 C
ATOM     26  C4  BDP C   2      21.829   7.150  58.6220  0.00  0.00     0.000 C
ATOM     27  C5  BDP C   2      22.277   8.282  59.5370  0.00  0.00     0.000 C
ATOM     28  O5  BDP C   2      21.738   9.569  59.1410  0.00  0.00     0.000 O
ATOM     29   O  BDP C   2      18.333   8.284  58.4600  0.00  0.00     0.000 O
ATOM     31  HD  BDP C   2      18.028   7.488  58.3060  0.00  0.00     0.000 HD
ATOM     31   O  BDP C   2      19.880   6.265  57.5010  0.00  0.00     0.000 O
ATOM     33  HD  BDP C   2      19.575   5.469  57.3470  0.00  0.00     0.000 HD
BRANCH 27 33
ATOM     33   C  BDP C   2      23.777   8.454  59.5510  0.00  0.00     0.000 C
ATOM     34   O  BDP C   2      24.399   8.957  58.5850  0.00  0.00     0.000 OA
ATOM     35   O  BDP C   2      24.398   8.055  60.5230  0.00  0.00     0.000 OA
ENDBRANCH 27 33
BRANCH 23 36
ATOM     36  O4  SGN C   3      19.770  10.687  59.2870  0.00  0.00     0.000 O
BRANCH 36 40
ATOM     37  C1  SGN C   3      19.391  13.856  61.9770  0.00  0.00     0.000 C
ATOM     38  C2  SGN C   3      19.849  14.185  60.5470  0.00  0.00     0.000 C
ATOM     39  C3  SGN C   3      19.519  13.036  59.6060  0.00  0.00     0.000 C
ATOM     40  C4  SGN C   3      20.154  11.769  60.1390  0.00  0.00     0.000 C
ATOM     41  C5  SGN C   3      19.667  11.538  61.5530  0.00  0.00     0.000 C
ATOM     42  O5  SGN C   3      20.030  12.655  62.3790  0.00  0.00     0.000 O
ATOM     43   O  SGN C   3      20.005  13.341  58.3050  0.00  0.00     0.000 O
ATOM     45  HD  SGN C   3      19.980  12.482  58.4160  0.00  0.00     0.000 HD
BRANCH 38 47
ATOM     45   N  SGN C   3      20.528  15.369  61.1020  0.00  0.00     0.000 N
ATOM     47  HD  SGN C   3      20.536  14.516  60.9510  0.00  0.00     0.000 HD
ATOM     47   S  SGN C   3      19.866  16.725  60.6050  0.00  0.00     0.000 S
ATOM     48   O  SGN C   3      20.044  16.907  59.2080  0.00  0.00     0.000 OA
ATOM     49   O  SGN C   3      18.522  16.724  61.0840  0.00  0.00     0.000 OA
ATOM     50   O  SGN C   3      20.682  17.724  61.2920  0.00  0.00     0.000 OA
ENDBRANCH 38 47
BRANCH 41 51
ATOM     51   C  SGN C   3      20.225  10.299  62.2000  0.00  0.00     0.000 C
ATOM     52   O  SGN C   3      18.308   7.530  63.7920  0.00  0.00     0.000 OA
ATOM     53   O  SGN C   3      20.365   7.453  62.5700  0.00  0.00     0.000 OA
ATOM     54   O  SGN C   3      20.238   8.619  64.6650  0.00  0.00     0.000 OA
ATOM     55   O  SGN C   3      19.154   9.489  62.6310  0.00  0.00     0.000 O
ATOM     56   S  SGN C   3      19.556   8.148  63.4960  0.00  0.00     0.000 S
ENDBRANCH 41 51
BRANCH 37 57
ATOM     57  O4  IDS C   4      18.053  13.693  62.1200  0.00  0.00     0.000 O
BRANCH 57 61
ATOM     58  C1  IDS C   4      15.078  14.393  64.3850  0.00  0.00     0.000 C
ATOM     59  C2  IDS C   4      16.275  15.286  64.4750  0.00  0.00     0.000 C
ATOM     60  C3  IDS C   4      17.595  14.517  64.3750  0.00  0.00     0.000 C
ATOM     61  C4  IDS C   4      17.615  13.317  63.4400  0.00  0.00     0.000 C
ATOM     62  C5  IDS C   4      16.238  12.644  63.3880  0.00  0.00     0.000 C
ATOM     63  O5  IDS C   4      15.194  13.593  63.2210  0.00  0.00     0.000 O
ATOM     64   O  IDS C   4      17.861  14.063  65.6890  0.00  0.00     0.000 O
ATOM     66  HD  IDS C   4      17.808  13.199  65.7280  0.00  0.00     0.000 HD
BRANCH 59 66
ATOM     66   O  IDS C   4      16.290  16.285  63.3900  0.00  0.00     0.000 O
ATOM     67   S  IDS C   4      16.409  17.810  63.8290  0.00  0.00     0.000 S
ATOM     68   O  IDS C   4      17.718  17.876  64.4340  0.00  0.00     0.000 OA
ATOM     69   O  IDS C   4      16.265  18.565  62.6000  0.00  0.00     0.000 OA
ATOM     70   O  IDS C   4      15.356  18.061  64.8000  0.00  0.00     0.000 OA
ENDBRANCH 59 66
BRANCH 62 71
ATOM     71   C  IDS C   4      16.094  11.670  62.2350  0.00  0.00     0.000 C
ATOM     72   O  IDS C   4      16.221  10.476  62.4250  0.00  0.00     0.000 OA
ATOM     73   O  IDS C   4      15.949  12.130  61.0840  0.00  0.00     0.000 OA
ENDBRANCH 62 71
BRANCH 58 74
ATOM     74  O4  SGN C   5      14.705  13.811  65.5590  0.00  0.00     0.000 O
BRANCH 74 78
ATOM     75  C1  SGN C   5      11.614  12.031  67.7320  0.00  0.00     0.000 C
ATOM     76  C2  SGN C   5      12.305  11.137  66.6840  0.00  0.00     0.000 C
ATOM     77  C3  SGN C   5      13.617  11.775  66.2080  0.00  0.00     0.000 C
ATOM     78  C4  SGN C   5      13.427  13.240  65.8400  0.00  0.00     0.000 C
ATOM     79  C5  SGN C   5      12.757  13.971  66.9950  0.00  0.00     0.000 C
ATOM     80  O5  SGN C   5      11.465  13.366  67.2670  0.00  0.00     0.000 O
ATOM     81   O  SGN C   5      14.110  11.040  65.0930  0.00  0.00     0.000 O
ATOM     83  HD  SGN C   5      14.032  10.178  65.0470  0.00  0.00     0.000 HD
BRANCH 76 85
ATOM     83   N  SGN C   5      12.366   9.939  67.5300  0.00  0.00     0.000 N
ATOM     85  HD  SGN C   5      12.428   9.083  67.6440  0.00  0.00     0.000 HD
ATOM     85   S  SGN C   5      11.668   8.503  67.3220  0.00  0.00     0.000 S
ATOM     86   O  SGN C   5      12.037   7.614  68.3690  0.00  0.00     0.000 OA
ATOM     87   O  SGN C   5      10.281   8.735  67.1300  0.00  0.00     0.000 OA
ATOM     88   O  SGN C   5      12.403   8.147  66.0320  0.00  0.00     0.000 OA
ENDBRANCH 76 85
BRANCH 79 89
ATOM     89   C  SGN C   5      12.546  15.448  66.7330  0.00  0.00     0.000 C
ATOM     90   O  SGN C   5      11.825  15.627  65.4890  0.00  0.00     0.000 O
ATOM     91   S  SGN C   5      10.858  16.904  65.3930  0.00  0.00     0.000 S
ATOM     92   O  SGN C   5       9.997  16.849  66.5460  0.00  0.00     0.000 OA
ATOM     93   O  SGN C   5      11.699  18.073  65.3900  0.00  0.00     0.000 OA
ATOM     94   O  SGN C   5      10.165  16.701  64.1500  0.00  0.00     0.000 OA
ENDBRANCH 79 89
BRANCH 75 95
ATOM     95  O4  BDP C   6      12.427  12.015  68.8290  0.00  0.00     0.000 O
BRANCH 95 99
ATOM     96  C1  BDP C   6      11.578  12.317  73.0280  0.00  0.00     0.000 C
ATOM     97  C2  BDP C   6      10.712  11.429  72.1790  0.00  0.00     0.000 C
ATOM     98  C3  BDP C   6      11.309  11.088  70.8060  0.00  0.00     0.000 C
ATOM     99  C4  BDP C   6      11.817  12.335  70.0980  0.00  0.00     0.000 C
ATOM    100  C5  BDP C   6      12.714  13.115  71.0870  0.00  0.00     0.000 C
ATOM    101  O5  BDP C   6      11.828  13.419  72.1770  0.00  0.00     0.000 O
BRANCH 100 102
ATOM    102   C  BDP C   6      13.213  14.418  70.5170  0.00  0.00     0.000 C
ATOM    103   O  BDP C   6      12.488  15.417  70.4150  0.00  0.00     0.000 OA
ATOM    104   O  BDP C   6      14.397  14.455  70.1600  0.00  0.00     0.000 OA
ENDBRANCH 100 102
ENDBRANCH 95 99
ENDBRANCH 75 95
ENDBRANCH 74 78
ENDBRANCH 58 74
ENDBRANCH 57 61
ENDBRANCH 37 57
ENDBRANCH 36 40
ENDBRANCH 23 36
ENDBRANCH 22 26
ENDBRANCH 1 22
TORSDOF 20
ENDMDL
MODEL 31
REMARK VINA RESULT:      -6.4     19.280     23.694
ROOT
ATOM      1  C1  NGY C   1      29.265  40.010  13.4240  0.00  0.00     0.000 C
ATOM      2  C2  NGY C   1      28.956  40.355  14.8740  0.00  0.00     0.000 C
ATOM      3  C3  NGY C   1      27.478  40.698  15.0320  0.00  0.00     0.000 C
ATOM      4  C4  NGY C   1      27.137  41.801  14.0490  0.00  0.00     0.000 C
ATOM      5  C5  NGY C   1      27.414  41.299  12.6340  0.00  0.00     0.000 C
ATOM      6  O5  NGY C   1      28.832  41.009  12.5250  0.00  0.00     0.000 O
ATOM      7   O  NGY C   1      27.230  41.086  16.3760  0.00  0.00     0.000 O
ATOM      9  HD  NGY C   1      27.642  41.522  17.0000  0.00  0.00     0.000 HD
ATOM      9   O  NGY C   1      25.777  42.189  14.1710  0.00  0.00     0.000 O
ATOM     11  HD  NGY C   1      26.189  42.626  14.7950  0.00  0.00     0.000 HD
ENDROOT
BRANCH 2 13
ATOM     11   N  NGY C   1      29.485  40.463  16.2130  0.00  0.00     0.000 N
ATOM     13  HD  NGY C   1      29.760  39.648  16.3150  0.00  0.00     0.000 HD
ATOM     13   C  NGY C   1      30.037  39.420  16.8320  0.00  0.00     0.000 C
ATOM     14   O  NGY C   1      29.988  38.290  16.3420  0.00  0.00     0.000 OA
ATOM     15   C  NGY C   1      30.736  39.698  18.1270  0.00  0.00     0.000 C
ENDBRANCH 2 13
BRANCH 5 16
ATOM     16   C  NGY C   1      27.117  42.277  11.5430  0.00  0.00     0.000 C
ATOM     17   O  NGY C   1      24.173  42.081   9.3620  0.00  0.00     0.000 OA
ATOM     18   O  NGY C   1      26.024  41.779  10.7650  0.00  0.00     0.000 O
ATOM     19   S  NGY C   1      25.284  42.842   9.8750  0.00  0.00     0.000 S
ATOM     20   O  NGY C   1      26.200  43.241   8.8390  0.00  0.00     0.000 OA
ATOM     21   O  NGY C   1      24.943  43.915  10.7940  0.00  0.00     0.000 OA
ENDBRANCH 5 16
BRANCH 1 22
ATOM     22  O4  BDP C   2      28.742  38.798  13.1450  0.00  0.00     0.000 O
BRANCH 22 26
ATOM     23  C1  BDP C   2      28.774  35.252  11.0500  0.00  0.00     0.000 C
ATOM     24  C2  BDP C   2      30.063  35.603  11.7540  0.00  0.00     0.000 C
ATOM     25  C3  BDP C   2      29.810  36.698  12.7560  0.00  0.00     0.000 C
ATOM     26  C4  BDP C   2      29.118  37.879  12.0850  0.00  0.00     0.000 C
ATOM     27  C5  BDP C   2      27.935  37.385  11.2620  0.00  0.00     0.000 C
ATOM     28  O5  BDP C   2      28.315  36.394  10.2730  0.00  0.00     0.000 O
ATOM     29   O  BDP C   2      30.559  34.526  12.5490  0.00  0.00     0.000 O
ATOM     31  HD  BDP C   2      30.949  34.740  13.2920  0.00  0.00     0.000 HD
ATOM     31   O  BDP C   2      31.079  37.097  13.2610  0.00  0.00     0.000 O
ATOM     33  HD  BDP C   2      31.469  37.312  14.0040  0.00  0.00     0.000 HD
BRANCH 27 33
ATOM     33   C  BDP C   2      27.263  38.497  10.4920  0.00  0.00     0.000 C
ATOM     34   O  BDP C   2      27.887  39.209   9.6700  0.00  0.00     0.000 OA
ATOM     35   O  BDP C   2      26.084  38.723  10.7090  0.00  0.00     0.000 OA
ENDBRANCH 27 33
BRANCH 23 36
ATOM     36  O4  SGN C   3      28.840  34.189  10.2140  0.00  0.00     0.000 O
BRANCH 36 40
ATOM     37  C1  SGN C   3      26.668  31.484   7.8920  0.00  0.00     0.000 C
ATOM     38  C2  SGN C   3      26.787  32.929   7.3810  0.00  0.00     0.000 C
ATOM     39  C3  SGN C   3      27.934  33.647   8.0770  0.00  0.00     0.000 C
ATOM     40  C4  SGN C   3      27.716  33.580   9.5730  0.00  0.00     0.000 C
ATOM     41  C5  SGN C   3      27.587  32.129   9.9820  0.00  0.00     0.000 C
ATOM     42  O5  SGN C   3      26.477  31.528   9.2970  0.00  0.00     0.000 O
ATOM     43   O  SGN C   3      27.983  34.996   7.6300  0.00  0.00     0.000 O
ATOM     45  HD  SGN C   3      28.309  34.939   8.4300  0.00  0.00     0.000 HD
BRANCH 38 47
ATOM     45   N  SGN C   3      25.736  33.470   6.5000  0.00  0.00     0.000 N
ATOM     47  HD  SGN C   3      26.219  33.558   7.2140  0.00  0.00     0.000 HD
ATOM     47   S  SGN C   3      25.701  32.735   5.0910  0.00  0.00     0.000 S
ATOM     48   O  SGN C   3      26.880  32.994   4.3430  0.00  0.00     0.000 OA
ATOM     49   O  SGN C   3      25.395  31.366   5.3520  0.00  0.00     0.000 OA
ATOM     50   O  SGN C   3      24.592  33.418   4.4270  0.00  0.00     0.000 OA
ENDBRANCH 38 47
BRANCH 41 51
ATOM     51   C  SGN C   3      27.370  31.923  11.4570  0.00  0.00     0.000 C
ATOM     52   O  SGN C   3      29.802  30.551  13.9230  0.00  0.00     0.000 OA
ATOM     53   O  SGN C   3      28.116  32.226  14.2150  0.00  0.00     0.000 OA
ATOM     54   O  SGN C   3      27.506  29.961  13.7010  0.00  0.00     0.000 OA
ATOM     55   O  SGN C   3      28.562  31.430  12.0280  0.00  0.00     0.000 O
ATOM     56   S  SGN C   3      28.488  31.001  13.6150  0.00  0.00     0.000 S
ENDBRANCH 41 51
BRANCH 37 57
ATOM     57  O4  IDS C   4      27.745  30.703   7.6340  0.00  0.00     0.000 O
BRANCH 57 61
ATOM     58  C1  IDS C   4      29.262  27.712   5.8380  0.00  0.00     0.000 C
ATOM     59  C2  IDS C   4      28.210  28.513   5.1370  0.00  0.00     0.000 C
ATOM     60  C3  IDS C   4      27.077  28.946   6.0710  0.00  0.00     0.000 C
ATOM     61  C4  IDS C   4      27.467  29.295   7.5000  0.00  0.00     0.000 C
ATOM     62  C5  IDS C   4      28.665  28.455   7.9570  0.00  0.00     0.000 C
ATOM     63  O5  IDS C   4      29.696  28.431   6.9800  0.00  0.00     0.000 O
ATOM     64   O  IDS C   4      26.185  27.848   6.1080  0.00  0.00     0.000 O
ATOM     66  HD  IDS C   4      26.177  27.490   6.8970  0.00  0.00     0.000 HD
BRANCH 59 66
ATOM     66   O  IDS C   4      28.768  29.748   4.5550  0.00  0.00     0.000 O
ATOM     67   S  IDS C   4      28.609  29.927   2.9820  0.00  0.00     0.000 S
ATOM     68   O  IDS C   4      27.180  30.026   2.8050  0.00  0.00     0.000 OA
ATOM     69   O  IDS C   4      29.349  31.133   2.6660  0.00  0.00     0.000 OA
ATOM     70   O  IDS C   4      29.144  28.727   2.3560  0.00  0.00     0.000 OA
ENDBRANCH 59 66
BRANCH 62 71
ATOM     71   C  IDS C   4      29.314  28.983   9.2220  0.00  0.00     0.000 C
ATOM     72   O  IDS C   4      30.394  29.538   9.1680  0.00  0.00     0.000 OA
ATOM     73   O  IDS C   4      28.765  28.741  10.3160  0.00  0.00     0.000 OA
ENDBRANCH 62 71
BRANCH 58 74
ATOM     74  O4  SGN C   5      28.990  26.381   5.9530  0.00  0.00     0.000 O
BRANCH 74 78
ATOM     75  C1  SGN C   5      30.610  22.640   6.8600  0.00  0.00     0.000 C
ATOM     76  C2  SGN C   5      29.802  23.317   7.9840  0.00  0.00     0.000 C
ATOM     77  C3  SGN C   5      28.987  24.494   7.4320  0.00  0.00     0.000 C
ATOM     78  C4  SGN C   5      29.837  25.404   6.5560  0.00  0.00     0.000 C
ATOM     79  C5  SGN C   5      30.539  24.573   5.4920  0.00  0.00     0.000 C
ATOM     80  O5  SGN C   5      31.386  23.581   6.1310  0.00  0.00     0.000 O
ATOM     81   O  SGN C   5      28.434  25.224   8.5220  0.00  0.00     0.000 O
ATOM     83  HD  SGN C   5      28.149  24.827   9.2370  0.00  0.00     0.000 HD
BRANCH 76 85
ATOM     83   N  SGN C   5      30.123  22.195   8.8750  0.00  0.00     0.000 N
ATOM     85  HD  SGN C   5      29.955  21.419   9.2220  0.00  0.00     0.000 HD
ATOM     85   S  SGN C   5      29.147  21.329   9.8200  0.00  0.00     0.000 S
ATOM     86   O  SGN C   5      29.878  20.303  10.4800  0.00  0.00     0.000 OA
ATOM     87   O  SGN C   5      28.436  22.244  10.6390  0.00  0.00     0.000 OA
ATOM     88   O  SGN C   5      28.299  20.745   8.6930  0.00  0.00     0.000 OA
ENDBRANCH 76 85
BRANCH 79 89
ATOM     89   C  SGN C   5      31.395  25.396   4.5510  0.00  0.00     0.000 C
ATOM     90   O  SGN C   5      32.790  25.263   4.9160  0.00  0.00     0.000 O
ATOM     91   S  SGN C   5      33.860  25.358   3.7230  0.00  0.00     0.000 S
ATOM     92   O  SGN C   5      33.441  24.408   2.7260  0.00  0.00     0.000 OA
ATOM     93   O  SGN C   5      33.834  26.713   3.2380  0.00  0.00     0.000 OA
ATOM     94   O  SGN C   5      35.099  25.007   4.3620  0.00  0.00     0.000 OA
ENDBRANCH 79 89
BRANCH 75 95
ATOM     95  O4  BDP C   6      29.686  22.067   6.0320  0.00  0.00     0.000 O
BRANCH 95 99
ATOM     96  C1  BDP C   6      29.905  18.578   3.5370  0.00  0.00     0.000 C
ATOM     97  C2  BDP C   6      30.560  18.540   4.8890  0.00  0.00     0.000 C
ATOM     98  C3  BDP C   6      30.112  19.658   5.8420  0.00  0.00     0.000 C
ATOM     99  C4  BDP C   6      30.157  21.018   5.1590  0.00  0.00     0.000 C
ATOM    100  C5  BDP C   6      29.415  20.898   3.8070  0.00  0.00     0.000 C
ATOM    101  O5  BDP C   6      30.165  19.898   3.0980  0.00  0.00     0.000 O
BRANCH 100 102
ATOM    102   C  BDP C   6      29.463  22.172   3.0030  0.00  0.00     0.000 C
ATOM    103   O  BDP C   6      28.486  22.927   2.8990  0.00  0.00     0.000 OA
ATOM    104   O  BDP C   6      30.536  22.445   2.4520  0.00  0.00     0.000 OA
ENDBRANCH 100 102
ENDBRANCH 95 99
ENDBRANCH 75 95
ENDBRANCH 74 78
ENDBRANCH 58 74
ENDBRANCH 57 61
ENDBRANCH 37 57
ENDBRANCH 36 40
ENDBRANCH 23 36
ENDBRANCH 22 26
ENDBRANCH 1 22
TORSDOF 20
ENDMDL
MODEL 32
REMARK VINA RESULT:      -6.4     32.696     38.127
ROOT
ATOM      1  C1  NGY C   1      34.241   7.440  55.3120  0.00  0.00     0.000 C
ATOM      2  C2  NGY C   1      34.660   8.195  54.0590  0.00  0.00     0.000 C
ATOM      3  C3  NGY C   1      34.534   7.297  52.8330  0.00  0.00     0.000 C
ATOM      4  C4  NGY C   1      35.330   6.031  53.0870  0.00  0.00     0.000 C
ATOM      5  C5  NGY C   1      34.757   5.331  54.3160  0.00  0.00     0.000 C
ATOM      6  O5  NGY C   1      34.920   6.211  55.4580  0.00  0.00     0.000 O
ATOM      7   O  NGY C   1      34.999   7.999  51.6890  0.00  0.00     0.000 O
ATOM      9  HD  NGY C   1      35.623   8.569  51.5020  0.00  0.00     0.000 HD
ATOM      9   O  NGY C   1      35.279   5.164  51.9630  0.00  0.00     0.000 O
ATOM     11  HD  NGY C   1      35.903   5.734  51.7760  0.00  0.00     0.000 HD
ENDROOT
BRANCH 2 13
ATOM     11   N  NGY C   1      34.850   9.386  53.2630  0.00  0.00     0.000 N
ATOM     13  HD  NGY C   1      34.451   9.956  53.7780  0.00  0.00     0.000 HD
ATOM     13   C  NGY C   1      34.387  10.571  53.6580  0.00  0.00     0.000 C
ATOM     14   O  NGY C   1      33.655  10.672  54.6440  0.00  0.00     0.000 OA
ATOM     15   C  NGY C   1      34.822  11.762  52.8610  0.00  0.00     0.000 C
ENDBRANCH 2 13
BRANCH 5 16
ATOM     16   C  NGY C   1      35.435   4.052  54.6930  0.00  0.00     0.000 C
ATOM     17   O  NGY C   1      34.278   1.831  57.3740  0.00  0.00     0.000 OA
ATOM     18   O  NGY C   1      34.852   3.561  55.9030  0.00  0.00     0.000 O
ATOM     19   S  NGY C   1      35.104   2.042  56.2120  0.00  0.00     0.000 S
ATOM     20   O  NGY C   1      36.506   1.894  56.5020  0.00  0.00     0.000 OA
ATOM     21   O  NGY C   1      34.685   1.348  55.0050  0.00  0.00     0.000 OA
ENDBRANCH 5 16
BRANCH 1 22
ATOM     22  O4  BDP C   2      32.899   7.293  55.3020  0.00  0.00     0.000 O
BRANCH 22 26
ATOM     23  C1  BDP C   2      29.286   7.251  57.2790  0.00  0.00     0.000 C
ATOM     24  C2  BDP C   2      30.205   8.397  57.6300  0.00  0.00     0.000 C
ATOM     25  C3  BDP C   2      31.298   8.502  56.5990  0.00  0.00     0.000 C
ATOM     26  C4  BDP C   2      32.001   7.158  56.4350  0.00  0.00     0.000 C
ATOM     27  C5  BDP C   2      30.967   6.052  56.2620  0.00  0.00     0.000 C
ATOM     28  O5  BDP C   2      30.018   5.995  57.3580  0.00  0.00     0.000 O
ATOM     29   O  BDP C   2      29.549   9.663  57.5550  0.00  0.00     0.000 O
ATOM     31  HD  BDP C   2      30.024  10.329  57.2720  0.00  0.00     0.000 HD
ATOM     31   O  BDP C   2      32.217   9.480  57.0690  0.00  0.00     0.000 O
ATOM     33  HD  BDP C   2      32.692  10.146  56.7860  0.00  0.00     0.000 HD
BRANCH 27 33
ATOM     33   C  BDP C   2      31.596   4.681  56.1920  0.00  0.00     0.000 C
ATOM     34   O  BDP C   2      31.891   4.139  55.1000  0.00  0.00     0.000 OA
ATOM     35   O  BDP C   2      31.785   4.076  57.2340  0.00  0.00     0.000 OA
ENDBRANCH 27 33
BRANCH 23 36
ATOM     36  O4  SGN C   3      28.185   7.131  58.0580  0.00  0.00     0.000 O
BRANCH 36 40
ATOM     37  C1  SGN C   3      24.056   6.518  58.0020  0.00  0.00     0.000 C
ATOM     38  C2  SGN C   3      24.957   5.293  58.2310  0.00  0.00     0.000 C
ATOM     39  C3  SGN C   3      26.352   5.730  58.6550  0.00  0.00     0.000 C
ATOM     40  C4  SGN C   3      26.909   6.669  57.6070  0.00  0.00     0.000 C
ATOM     41  C5  SGN C   3      25.951   7.827  57.4310  0.00  0.00     0.000 C
ATOM     42  O5  SGN C   3      24.667   7.336  57.0170  0.00  0.00     0.000 O
ATOM     43   O  SGN C   3      27.178   4.582  58.8020  0.00  0.00     0.000 O
ATOM     45  HD  SGN C   3      27.663   5.271  58.5980  0.00  0.00     0.000 HD
BRANCH 38 47
ATOM     45   N  SGN C   3      24.687   4.072  59.0110  0.00  0.00     0.000 N
ATOM     47  HD  SGN C   3      25.183   4.770  58.8800  0.00  0.00     0.000 HD
ATOM     47   S  SGN C   3      23.231   3.497  58.7340  0.00  0.00     0.000 S
ATOM     48   O  SGN C   3      22.226   4.382  59.2090  0.00  0.00     0.000 OA
ATOM     49   O  SGN C   3      23.182   3.155  57.3500  0.00  0.00     0.000 OA
ATOM     50   O  SGN C   3      23.215   2.308  59.5840  0.00  0.00     0.000 OA
ENDBRANCH 38 47
BRANCH 41 51
ATOM     51   C  SGN C   3      26.394   8.843  56.4130  0.00  0.00     0.000 C
ATOM     52   O  SGN C   3      27.745   8.178  53.0050  0.00  0.00     0.000 OA
ATOM     53   O  SGN C   3      26.384   9.990  53.7790  0.00  0.00     0.000 OA
ATOM     54   O  SGN C   3      28.616   9.700  54.6160  0.00  0.00     0.000 OA
ATOM     55   O  SGN C   3      26.790   8.168  55.2390  0.00  0.00     0.000 O
ATOM     56   S  SGN C   3      27.446   9.097  54.0500  0.00  0.00     0.000 S
ENDBRANCH 41 51
BRANCH 37 57
ATOM     57  O4  IDS C   4      23.839   7.274  59.1060  0.00  0.00     0.000 O
BRANCH 57 61
ATOM     58  C1  IDS C   4      21.125   9.024  61.1160  0.00  0.00     0.000 C
ATOM     59  C2  IDS C   4      20.736   7.892  60.2190  0.00  0.00     0.000 C
ATOM     60  C3  IDS C   4      21.488   7.910  58.8860  0.00  0.00     0.000 C
ATOM     61  C4  IDS C   4      22.935   8.382  58.9260  0.00  0.00     0.000 C
ATOM     62  C5  IDS C   4      23.133   9.434  60.0230  0.00  0.00     0.000 C
ATOM     63  O5  IDS C   4      22.536   9.036  61.2490  0.00  0.00     0.000 O
ATOM     64   O  IDS C   4      20.755   8.791  58.0560  0.00  0.00     0.000 O
ATOM     66  HD  IDS C   4      21.219   9.502  57.8840  0.00  0.00     0.000 HD
BRANCH 59 66
ATOM     66   O  IDS C   4      21.019   6.585  60.8410  0.00  0.00     0.000 O
ATOM     67   S  IDS C   4      19.758   5.736  61.3140  0.00  0.00     0.000 S
ATOM     68   O  IDS C   4      19.081   5.436  60.0760  0.00  0.00     0.000 OA
ATOM     69   O  IDS C   4      20.318   4.587  61.9980  0.00  0.00     0.000 OA
ATOM     70   O  IDS C   4      18.957   6.597  62.1700  0.00  0.00     0.000 OA
ENDBRANCH 59 66
BRANCH 62 71
ATOM     71   C  IDS C   4      24.593   9.691  60.3440  0.00  0.00     0.000 C
ATOM     72   O  IDS C   4      25.077   9.257  61.3710  0.00  0.00     0.000 OA
ATOM     73   O  IDS C   4      25.245  10.439  59.5880  0.00  0.00     0.000 OA
ENDBRANCH 62 71
BRANCH 58 74
ATOM     74  O4  SGN C   5      20.467  10.196  60.8820  0.00  0.00     0.000 O
BRANCH 74 78
ATOM     75  C1  SGN C   5      19.816  14.055  62.3400  0.00  0.00     0.000 C
ATOM     76  C2  SGN C   5      20.748  13.942  61.1190  0.00  0.00     0.000 C
ATOM     77  C3  SGN C   5      20.636  12.553  60.4770  0.00  0.00     0.000 C
ATOM     78  C4  SGN C   5      20.734  11.446  61.5180  0.00  0.00     0.000 C
ATOM     79  C5  SGN C   5      19.730  11.705  62.6310  0.00  0.00     0.000 C
ATOM     80  O5  SGN C   5      20.017  12.985  63.2540  0.00  0.00     0.000 O
ATOM     81   O  SGN C   5      21.662  12.412  59.4990  0.00  0.00     0.000 O
ATOM     83  HD  SGN C   5      21.908  13.076  59.0010  0.00  0.00     0.000 HD
BRANCH 76 85
ATOM     83   N  SGN C   5      20.791  15.409  61.1830  0.00  0.00     0.000 N
ATOM     85  HD  SGN C   5      20.572  16.196  60.8950  0.00  0.00     0.000 HD
ATOM     85   S  SGN C   5      20.907  16.481  59.9870  0.00  0.00     0.000 S
ATOM     86   O  SGN C   5      20.868  17.806  60.5030  0.00  0.00     0.000 OA
ATOM     87   O  SGN C   5      22.041  16.124  59.2120  0.00  0.00     0.000 OA
ATOM     88   O  SGN C   5      19.583  16.126  59.3160  0.00  0.00     0.000 OA
ENDBRANCH 76 85
BRANCH 79 89
ATOM     89   C  SGN C   5      19.734  10.639  63.7080  0.00  0.00     0.000 C
ATOM     90   O  SGN C   5      21.044  10.567  64.3210  0.00  0.00     0.000 O
ATOM     91   S  SGN C   5      21.094  10.146  65.8690  0.00  0.00     0.000 S
ATOM     92   O  SGN C   5      20.190  11.029  66.5600  0.00  0.00     0.000 OA
ATOM     93   O  SGN C   5      20.682   8.768  65.9460  0.00  0.00     0.000 OA
ATOM     94   O  SGN C   5      22.472  10.347  66.2230  0.00  0.00     0.000 OA
ENDBRANCH 79 89
BRANCH 75 95
ATOM     95  O4  BDP C   6      18.544  14.001  61.8440  0.00  0.00     0.000 O
BRANCH 95 99
ATOM     96  C1  BDP C   6      14.854  15.529  63.4220  0.00  0.00     0.000 C
ATOM     97  C2  BDP C   6      16.113  16.318  63.6410  0.00  0.00     0.000 C
ATOM     98  C3  BDP C   6      17.284  15.908  62.7350  0.00  0.00     0.000 C
ATOM     99  C4  BDP C   6      17.479  14.399  62.7340  0.00  0.00     0.000 C
ATOM    100  C5  BDP C   6      16.107  13.739  62.4630  0.00  0.00     0.000 C
ATOM    101  O5  BDP C   6      15.294  14.191  63.5580  0.00  0.00     0.000 O
BRANCH 100 102
ATOM    102   C  BDP C   6      16.165  12.233  62.5170  0.00  0.00     0.000 C
ATOM    103   O  BDP C   6      16.198  11.535  61.4940  0.00  0.00     0.000 OA
ATOM    104   O  BDP C   6      16.191  11.715  63.6400  0.00  0.00     0.000 OA
ENDBRANCH 100 102
ENDBRANCH 95 99
ENDBRANCH 75 95
ENDBRANCH 74 78
ENDBRANCH 58 74
ENDBRANCH 57 61
ENDBRANCH 37 57
ENDBRANCH 36 40
ENDBRANCH 23 36
ENDBRANCH 22 26
ENDBRANCH 1 22
TORSDOF 20
ENDMDL
MODEL 33
REMARK VINA RESULT:      -6.4      9.679     17.155
ROOT
ATOM      1  C1  NGY C   1      29.231  21.466  27.0490  0.00  0.00     0.000 C
ATOM      2  C2  NGY C   1      29.765  22.887  27.1620  0.00  0.00     0.000 C
ATOM      3  C3  NGY C   1      28.793  23.755  27.9560  0.00  0.00     0.000 C
ATOM      4  C4  NGY C   1      27.427  23.658  27.3040  0.00  0.00     0.000 C
ATOM      5  C5  NGY C   1      26.975  22.200  27.3290  0.00  0.00     0.000 C
ATOM      6  O5  NGY C   1      27.914  21.420  26.5440  0.00  0.00     0.000 O
ATOM      7   O  NGY C   1      29.277  25.090  27.9860  0.00  0.00     0.000 O
ATOM      9  HD  NGY C   1      29.693  25.629  27.4510  0.00  0.00     0.000 HD
ATOM      9   O  NGY C   1      26.482  24.474  27.9810  0.00  0.00     0.000 O
ATOM     11  HD  NGY C   1      26.899  25.013  27.4460  0.00  0.00     0.000 HD
ENDROOT
BRANCH 2 13
ATOM     11   N  NGY C   1      31.152  22.614  27.4560  0.00  0.00     0.000 N
ATOM     13  HD  NGY C   1      31.488  23.385  27.2450  0.00  0.00     0.000 HD
ATOM     13   C  NGY C   1      32.097  23.537  27.2800  0.00  0.00     0.000 C
ATOM     14   O  NGY C   1      31.847  24.608  26.7250  0.00  0.00     0.000 OA
ATOM     15   C  NGY C   1      33.460  23.213  27.8120  0.00  0.00     0.000 C
ENDBRANCH 2 13
BRANCH 5 16
ATOM     16   C  NGY C   1      25.631  21.942  26.7260  0.00  0.00     0.000 C
ATOM     17   O  NGY C   1      24.971  19.336  24.2300  0.00  0.00     0.000 OA
ATOM     18   O  NGY C   1      25.782  21.015  25.6470  0.00  0.00     0.000 O
ATOM     19   S  NGY C   1      24.468  20.286  25.1890  0.00  0.00     0.000 S
ATOM     20   O  NGY C   1      23.620  21.279  24.5830  0.00  0.00     0.000 OA
ATOM     21   O  NGY C   1      23.918  19.720  26.4100  0.00  0.00     0.000 OA
ENDBRANCH 5 16
BRANCH 1 22
ATOM     22  O4  BDP C   2      29.349  20.860  28.2490  0.00  0.00     0.000 O
BRANCH 22 26
ATOM     23  C1  BDP C   2      29.864  17.311  30.2750  0.00  0.00     0.000 C
ATOM     24  C2  BDP C   2      30.314  17.308  28.8330  0.00  0.00     0.000 C
ATOM     25  C3  BDP C   2      30.415  18.724  28.3310  0.00  0.00     0.000 C
ATOM     26  C4  BDP C   2      29.107  19.468  28.5820  0.00  0.00     0.000 C
ATOM     27  C5  BDP C   2      28.660  19.256  30.0220  0.00  0.00     0.000 C
ATOM     28  O5  BDP C   2      28.517  17.854  30.3650  0.00  0.00     0.000 O
ATOM     29   O  BDP C   2      31.640  16.801  28.6770  0.00  0.00     0.000 O
ATOM     31  HD  BDP C   2      32.127  17.172  28.0650  0.00  0.00     0.000 HD
ATOM     31   O  BDP C   2      30.675  18.651  26.9350  0.00  0.00     0.000 O
ATOM     33  HD  BDP C   2      31.162  19.022  26.3220  0.00  0.00     0.000 HD
BRANCH 27 33
ATOM     33   C  BDP C   2      27.318  19.887  30.3090  0.00  0.00     0.000 C
ATOM     34   O  BDP C   2      26.251  19.423  29.8430  0.00  0.00     0.000 OA
ATOM     35   O  BDP C   2      27.287  20.900  30.9890  0.00  0.00     0.000 OA
ENDBRANCH 27 33
BRANCH 23 36
ATOM     36  O4  SGN C   3      29.860  16.103  30.8830  0.00  0.00     0.000 O
BRANCH 36 40
ATOM     37  C1  SGN C   3      30.773  13.987  34.3650  0.00  0.00     0.000 C
ATOM     38  C2  SGN C   3      29.561  14.932  34.4000  0.00  0.00     0.000 C
ATOM     39  C3  SGN C   3      29.109  15.271  32.9880  0.00  0.00     0.000 C
ATOM     40  C4  SGN C   3      30.279  15.861  32.2300  0.00  0.00     0.000 C
ATOM     41  C5  SGN C   3      31.429  14.879  32.2650  0.00  0.00     0.000 C
ATOM     42  O5  SGN C   3      31.805  14.622  33.6270  0.00  0.00     0.000 O
ATOM     43   O  SGN C   3      28.027  16.192  33.0500  0.00  0.00     0.000 O
ATOM     45  HD  SGN C   3      28.459  16.295  32.3070  0.00  0.00     0.000 HD
BRANCH 38 47
ATOM     45   N  SGN C   3      29.845  14.908  35.8460  0.00  0.00     0.000 N
ATOM     47  HD  SGN C   3      30.073  15.171  35.0530  0.00  0.00     0.000 HD
ATOM     47   S  SGN C   3      28.595  14.409  36.6920  0.00  0.00     0.000 S
ATOM     48   O  SGN C   3      27.517  15.330  36.6150  0.00  0.00     0.000 OA
ATOM     49   O  SGN C   3      28.326  13.072  36.2750  0.00  0.00     0.000 OA
ATOM     50   O  SGN C   3      29.122  14.452  38.0550  0.00  0.00     0.000 OA
ENDBRANCH 38 47
BRANCH 41 51
ATOM     51   C  SGN C   3      32.660  15.346  31.5380  0.00  0.00     0.000 C
ATOM     52   O  SGN C   3      34.527  18.525  32.0770  0.00  0.00     0.000 OA
ATOM     53   O  SGN C   3      35.346  16.362  31.4570  0.00  0.00     0.000 OA
ATOM     54   O  SGN C   3      33.889  17.578  29.9870  0.00  0.00     0.000 OA
ATOM     55   O  SGN C   3      33.072  16.579  32.0850  0.00  0.00     0.000 O
ATOM     56   S  SGN C   3      34.325  17.331  31.3290  0.00  0.00     0.000 S
ENDBRANCH 41 51
BRANCH 37 57
ATOM     57  O4  IDS C   4      30.532  12.778  33.8010  0.00  0.00     0.000 O
BRANCH 57 61
ATOM     58  C1  IDS C   4      30.776   8.991  34.0660  0.00  0.00     0.000 C
ATOM     59  C2  IDS C   4      30.596   9.788  35.3180  0.00  0.00     0.000 C
ATOM     60  C3  IDS C   4      31.417  11.080  35.3210  0.00  0.00     0.000 C
ATOM     61  C4  IDS C   4      31.568  11.794  33.9850  0.00  0.00     0.000 C
ATOM     62  C5  IDS C   4      31.578  10.787  32.8290  0.00  0.00     0.000 C
ATOM     63  O5  IDS C   4      30.533   9.833  32.9520  0.00  0.00     0.000 O
ATOM     64   O  IDS C   4      32.704  10.703  35.7730  0.00  0.00     0.000 O
ATOM     66  HD  IDS C   4      33.286  10.790  35.1370  0.00  0.00     0.000 HD
BRANCH 59 66
ATOM     66   O  IDS C   4      29.188  10.187  35.5090  0.00  0.00     0.000 O
ATOM     67   S  IDS C   4      28.420   9.521  36.7340  0.00  0.00     0.000 S
ATOM     68   O  IDS C   4      29.127  10.034  37.8830  0.00  0.00     0.000 OA
ATOM     69   O  IDS C   4      27.050   9.975  36.6070  0.00  0.00     0.000 OA
ATOM     70   O  IDS C   4      28.577   8.080  36.6070  0.00  0.00     0.000 OA
ENDBRANCH 59 66
BRANCH 62 71
ATOM     71   C  IDS C   4      31.382  11.436  31.4720  0.00  0.00     0.000 C
ATOM     72   O  IDS C   4      30.271  11.505  30.9840  0.00  0.00     0.000 OA
ATOM     73   O  IDS C   4      32.391  11.797  30.8350  0.00  0.00     0.000 OA
ENDBRANCH 62 71
BRANCH 58 74
ATOM     74  O4  SGN C   5      31.867   8.173  34.0570  0.00  0.00     0.000 O
BRANCH 74 78
ATOM     75  C1  SGN C   5      33.348   4.366  33.1850  0.00  0.00     0.000 C
ATOM     76  C2  SGN C   5      33.212   5.329  31.9900  0.00  0.00     0.000 C
ATOM     77  C3  SGN C   5      32.995   6.768  32.4750  0.00  0.00     0.000 C
ATOM     78  C4  SGN C   5      31.910   6.843  33.5400  0.00  0.00     0.000 C
ATOM     79  C5  SGN C   5      32.218   5.848  34.6490  0.00  0.00     0.000 C
ATOM     80  O5  SGN C   5      32.266   4.506  34.0970  0.00  0.00     0.000 O
ATOM     81   O  SGN C   5      32.656   7.585  31.3580  0.00  0.00     0.000 O
ATOM     83  HD  SGN C   5      33.017   7.464  30.5810  0.00  0.00     0.000 HD
BRANCH 76 85
ATOM     83   N  SGN C   5      33.977   4.263  31.3300  0.00  0.00     0.000 N
ATOM     85  HD  SGN C   5      34.661   3.972  30.8860  0.00  0.00     0.000 HD
ATOM     85   S  SGN C   5      34.791   4.299  29.9400  0.00  0.00     0.000 S
ATOM     86   O  SGN C   5      35.424   3.048  29.7030  0.00  0.00     0.000 OA
ATOM     87   O  SGN C   5      33.898   4.770  28.9430  0.00  0.00     0.000 OA
ATOM     88   O  SGN C   5      35.814   5.346  30.3750  0.00  0.00     0.000 OA
ENDBRANCH 76 85
BRANCH 79 89
ATOM     89   C  SGN C   5      31.203   5.864  35.7740  0.00  0.00     0.000 C
ATOM     90   O  SGN C   5      31.833   5.438  37.0080  0.00  0.00     0.000 O
ATOM     91   S  SGN C   5      31.263   6.076  38.3660  0.00  0.00     0.000 S
ATOM     92   O  SGN C   5      31.281   7.503  38.1830  0.00  0.00     0.000 OA
ATOM     93   O  SGN C   5      29.930   5.560  38.5490  0.00  0.00     0.000 OA
ATOM     94   O  SGN C   5      32.191   5.615  39.3620  0.00  0.00     0.000 OA
ENDBRANCH 79 89
BRANCH 75 95
ATOM     95  O4  BDP C   6      34.517   4.706  33.8060  0.00  0.00     0.000 O
BRANCH 95 99
ATOM     96  C1  BDP C   6      36.932   2.005  36.1110  0.00  0.00     0.000 C
ATOM     97  C2  BDP C   6      35.739   1.460  35.3780  0.00  0.00     0.000 C
ATOM     98  C3  BDP C   6      35.177   2.396  34.2980  0.00  0.00     0.000 C
ATOM     99  C4  BDP C   6      34.995   3.809  34.8310  0.00  0.00     0.000 C
ATOM    100  C5  BDP C   6      36.313   4.233  35.5210  0.00  0.00     0.000 C
ATOM    101  O5  BDP C   6      36.472   3.263  36.5680  0.00  0.00     0.000 O
BRANCH 100 102
ATOM    102   C  BDP C   6      36.224   5.596  36.1590  0.00  0.00     0.000 C
ATOM    103   O  BDP C   6      37.197   6.360  36.2270  0.00  0.00     0.000 OA
ATOM    104   O  BDP C   6      35.121   5.931  36.6070  0.00  0.00     0.000 OA
ENDBRANCH 100 102
ENDBRANCH 95 99
ENDBRANCH 75 95
ENDBRANCH 74 78
ENDBRANCH 58 74
ENDBRANCH 57 61
ENDBRANCH 37 57
ENDBRANCH 36 40
ENDBRANCH 23 36
ENDBRANCH 22 26
ENDBRANCH 1 22
TORSDOF 20
ENDMDL
MODEL 34
REMARK VINA RESULT:      -6.3     21.154     25.982
ROOT
ATOM      1  C1  NGY C   1      29.487  11.368  46.3990  0.00  0.00     0.000 C
ATOM      2  C2  NGY C   1      30.136  10.999  47.7260  0.00  0.00     0.000 C
ATOM      3  C3  NGY C   1      29.474   9.754  48.3090  0.00  0.00     0.000 C
ATOM      4  C4  NGY C   1      27.982  10.007  48.4010  0.00  0.00     0.000 C
ATOM      5  C5  NGY C   1      27.445  10.282  46.9990  0.00  0.00     0.000 C
ATOM      6  O5  NGY C   1      28.083  11.485  46.4960  0.00  0.00     0.000 O
ATOM      7   O  NGY C   1      30.047   9.473  49.5780  0.00  0.00     0.000 O
ATOM      9  HD  NGY C   1      30.347   9.921  50.2560  0.00  0.00     0.000 HD
ATOM      9   O  NGY C   1      27.311   8.892  48.9700  0.00  0.00     0.000 O
ATOM     11  HD  NGY C   1      27.611   9.341  49.6470  0.00  0.00     0.000 HD
ENDROOT
BRANCH 2 13
ATOM     11   N  NGY C   1      31.309  10.693  48.5110  0.00  0.00     0.000 N
ATOM     13  HD  NGY C   1      31.857  11.266  48.1620  0.00  0.00     0.000 HD
ATOM     13   C  NGY C   1      32.459  11.340  48.3290  0.00  0.00     0.000 C
ATOM     14   O  NGY C   1      32.607  12.124  47.3900  0.00  0.00     0.000 OA
ATOM     15   C  NGY C   1      33.540  11.087  49.3350  0.00  0.00     0.000 C
ENDBRANCH 2 13
BRANCH 5 16
ATOM     16   C  NGY C   1      25.975  10.543  46.9210  0.00  0.00     0.000 C
ATOM     17   O  NGY C   1      23.815   9.318  44.2200  0.00  0.00     0.000 OA
ATOM     18   O  NGY C   1      25.498  10.111  45.6440  0.00  0.00     0.000 O
ATOM     19   S  NGY C   1      23.946   9.886  45.5380  0.00  0.00     0.000 S
ATOM     20   O  NGY C   1      23.321  11.178  45.6430  0.00  0.00     0.000 OA
ATOM     21   O  NGY C   1      23.629   8.996  46.6430  0.00  0.00     0.000 OA
ENDBRANCH 5 16
BRANCH 1 22
ATOM     22  O4  BDP C   2      29.871  10.474  45.4640  0.00  0.00     0.000 O
BRANCH 22 26
ATOM     23  C1  BDP C   2      31.192   9.697  41.6410  0.00  0.00     0.000 C
ATOM     24  C2  BDP C   2      31.719  10.968  42.2650  0.00  0.00     0.000 C
ATOM     25  C3  BDP C   2      31.466  10.945  43.7500  0.00  0.00     0.000 C
ATOM     26  C4  BDP C   2      29.992  10.669  44.0300  0.00  0.00     0.000 C
ATOM     27  C5  BDP C   2      29.526   9.471  43.2130  0.00  0.00     0.000 C
ATOM     28  O5  BDP C   2      29.745   9.644  41.7900  0.00  0.00     0.000 O
ATOM     29   O  BDP C   2      33.140  11.074  42.1680  0.00  0.00     0.000 O
ATOM     31  HD  BDP C   2      33.547  11.442  42.8370  0.00  0.00     0.000 HD
ATOM     31   O  BDP C   2      31.827  12.226  44.2510  0.00  0.00     0.000 O
ATOM     33  HD  BDP C   2      32.235  12.594  44.9200  0.00  0.00     0.000 HD
BRANCH 27 33
ATOM     33   C  BDP C   2      28.048   9.204  43.3710  0.00  0.00     0.000 C
ATOM     34   O  BDP C   2      27.568   8.718  44.4230  0.00  0.00     0.000 OA
ATOM     35   O  BDP C   2      27.312   9.440  42.4270  0.00  0.00     0.000 OA
ENDBRANCH 27 33
BRANCH 23 36
ATOM     36  O4  SGN C   3      31.475   9.536  40.3270  0.00  0.00     0.000 O
BRANCH 36 40
ATOM     37  C1  SGN C   3      31.242   6.977  37.0370  0.00  0.00     0.000 C
ATOM     38  C2  SGN C   3      29.953   7.689  37.4810  0.00  0.00     0.000 C
ATOM     39  C3  SGN C   3      30.282   8.878  38.3710  0.00  0.00     0.000 C
ATOM     40  C4  SGN C   3      31.109   8.397  39.5440  0.00  0.00     0.000 C
ATOM     41  C5  SGN C   3      32.339   7.692  39.0170  0.00  0.00     0.000 C
ATOM     42  O5  SGN C   3      31.947   6.576  38.2020  0.00  0.00     0.000 O
ATOM     43   O  SGN C   3      29.073   9.481  38.8140  0.00  0.00     0.000 O
ATOM     45  HD  SGN C   3      29.701   9.622  39.3920  0.00  0.00     0.000 HD
BRANCH 38 47
ATOM     45   N  SGN C   3      29.559   6.598  36.5720  0.00  0.00     0.000 N
ATOM     47  HD  SGN C   3      29.995   6.851  37.2760  0.00  0.00     0.000 HD
ATOM     47   S  SGN C   3      28.353   7.016  35.6250  0.00  0.00     0.000 S
ATOM     48   O  SGN C   3      27.162   7.231  36.3680  0.00  0.00     0.000 OA
ATOM     49   O  SGN C   3      28.817   8.104  34.8290  0.00  0.00     0.000 OA
ATOM     50   O  SGN C   3      28.168   5.805  34.8270  0.00  0.00     0.000 OA
ENDBRANCH 38 47
BRANCH 41 51
ATOM     51   C  SGN C   3      33.254   7.166  40.0890  0.00  0.00     0.000 C
ATOM     52   O  SGN C   3      32.694   4.204  42.2780  0.00  0.00     0.000 OA
ATOM     53   O  SGN C   3      34.737   5.070  41.3790  0.00  0.00     0.000 OA
ATOM     54   O  SGN C   3      33.458   6.356  42.9530  0.00  0.00     0.000 OA
ATOM     55   O  SGN C   3      32.686   5.999  40.6410  0.00  0.00     0.000 O
ATOM     56   S  SGN C   3      33.467   5.348  41.9350  0.00  0.00     0.000 S
ENDBRANCH 41 51
BRANCH 37 57
ATOM     57  O4  IDS C   4      32.072   7.732  36.2780  0.00  0.00     0.000 O
BRANCH 57 61
ATOM     58  C1  IDS C   4      33.761   8.478  32.9510  0.00  0.00     0.000 C
ATOM     59  C2  IDS C   4      32.338   8.014  32.9470  0.00  0.00     0.000 C
ATOM     60  C3  IDS C   4      32.072   6.912  33.9750  0.00  0.00     0.000 C
ATOM     61  C4  IDS C   4      32.832   7.009  35.2900  0.00  0.00     0.000 C
ATOM     62  C5  IDS C   4      34.207   7.654  35.0770  0.00  0.00     0.000 C
ATOM     63  O5  IDS C   4      34.122   8.824  34.2780  0.00  0.00     0.000 O
ATOM     64   O  IDS C   4      32.444   5.707  33.3330  0.00  0.00     0.000 O
ATOM     66  HD  IDS C   4      33.140   5.361  33.7160  0.00  0.00     0.000 HD
BRANCH 59 66
ATOM     66   O  IDS C   4      31.408   9.115  33.2630  0.00  0.00     0.000 O
ATOM     67   S  IDS C   4      30.510   9.653  32.0650  0.00  0.00     0.000 S
ATOM     68   O  IDS C   4      29.674   8.520  31.7470  0.00  0.00     0.000 OA
ATOM     69   O  IDS C   4      29.806  10.797  32.6110  0.00  0.00     0.000 OA
ATOM     70   O  IDS C   4      31.407   9.983  30.9690  0.00  0.00     0.000 OA
ENDBRANCH 59 66
BRANCH 62 71
ATOM     71   C  IDS C   4      34.866   8.090  36.3720  0.00  0.00     0.000 C
ATOM     72   O  IDS C   4      34.988   9.272  36.6260  0.00  0.00     0.000 OA
ATOM     73   O  IDS C   4      35.367   7.215  37.1070  0.00  0.00     0.000 OA
ENDBRANCH 62 71
BRANCH 58 74
ATOM     74  O4  SGN C   5      34.614   7.722  32.2040  0.00  0.00     0.000 O
BRANCH 74 78
ATOM     75  C1  SGN C   5      38.000   7.729  29.7590  0.00  0.00     0.000 C
ATOM     76  C2  SGN C   5      38.258   7.568  31.2690  0.00  0.00     0.000 C
ATOM     77  C3  SGN C   5      36.955   7.238  32.0090  0.00  0.00     0.000 C
ATOM     78  C4  SGN C   5      35.827   8.177  31.6040  0.00  0.00     0.000 C
ATOM     79  C5  SGN C   5      35.700   8.192  30.0880  0.00  0.00     0.000 C
ATOM     80  O5  SGN C   5      36.947   8.649  29.5010  0.00  0.00     0.000 O
ATOM     81   O  SGN C   5      37.189   7.314  33.4120  0.00  0.00     0.000 O
ATOM     83  HD  SGN C   5      37.937   7.055  33.7620  0.00  0.00     0.000 HD
BRANCH 76 85
ATOM     83   N  SGN C   5      39.290   6.539  31.0910  0.00  0.00     0.000 N
ATOM     85  HD  SGN C   5      39.964   6.072  31.3700  0.00  0.00     0.000 HD
ATOM     85   S  SGN C   5      40.835   6.551  31.5450  0.00  0.00     0.000 S
ATOM     86   O  SGN C   5      41.462   5.320  31.2080  0.00  0.00     0.000 OA
ATOM     87   O  SGN C   5      41.416   7.735  31.0220  0.00  0.00     0.000 OA
ATOM     88   O  SGN C   5      40.566   6.624  33.0460  0.00  0.00     0.000 OA
ENDBRANCH 76 85
BRANCH 79 89
ATOM     89   C  SGN C   5      34.583   9.084  29.5840  0.00  0.00     0.000 C
ATOM     90   O  SGN C   5      35.137  10.315  29.0600  0.00  0.00     0.000 O
ATOM     91   S  SGN C   5      34.340  11.008  27.8520  0.00  0.00     0.000 S
ATOM     92   O  SGN C   5      34.162   9.993  26.8470  0.00  0.00     0.000 OA
ATOM     93   O  SGN C   5      33.088  11.480  28.3860  0.00  0.00     0.000 OA
ATOM     94   O  SGN C   5      35.218  12.070  27.4430  0.00  0.00     0.000 OA
ENDBRANCH 79 89
BRANCH 75 95
ATOM     95  O4  BDP C   6      37.646   6.489  29.3070  0.00  0.00     0.000 O
BRANCH 95 99
ATOM     96  C1  BDP C   6      37.138   5.091  25.2780  0.00  0.00     0.000 C
ATOM     97  C2  BDP C   6      38.099   6.217  25.5350  0.00  0.00     0.000 C
ATOM     98  C3  BDP C   6      38.497   6.386  27.0090  0.00  0.00     0.000 C
ATOM     99  C4  BDP C   6      37.275   6.383  27.9150  0.00  0.00     0.000 C
ATOM    100  C5  BDP C   6      36.412   5.153  27.5510  0.00  0.00     0.000 C
ATOM    101  O5  BDP C   6      36.077   5.374  26.1720  0.00  0.00     0.000 O
BRANCH 100 102
ATOM    102   C  BDP C   6      35.128   5.090  28.3370  0.00  0.00     0.000 C
ATOM    103   O  BDP C   6      35.081   4.649  29.4950  0.00  0.00     0.000 OA
ATOM    104   O  BDP C   6      34.109   5.513  27.7780  0.00  0.00     0.000 OA
ENDBRANCH 100 102
ENDBRANCH 95 99
ENDBRANCH 75 95
ENDBRANCH 74 78
ENDBRANCH 58 74
ENDBRANCH 57 61
ENDBRANCH 37 57
ENDBRANCH 36 40
ENDBRANCH 23 36
ENDBRANCH 22 26
ENDBRANCH 1 22
TORSDOF 20
ENDMDL
MODEL 35
REMARK VINA RESULT:      -6.3      8.065     20.019
ROOT
ATOM      1  C1  NGY C   1      33.753   7.285  29.6690  0.00  0.00     0.000 C
ATOM      2  C2  NGY C   1      34.331   6.369  30.7390  0.00  0.00     0.000 C
ATOM      3  C3  NGY C   1      35.751   6.800  31.0920  0.00  0.00     0.000 C
ATOM      4  C4  NGY C   1      36.565   6.849  29.8140  0.00  0.00     0.000 C
ATOM      5  C5  NGY C   1      35.928   7.860  28.8650  0.00  0.00     0.000 C
ATOM      6  O5  NGY C   1      34.591   7.397  28.5390  0.00  0.00     0.000 O
ATOM      7   O  NGY C   1      36.294   5.889  32.0370  0.00  0.00     0.000 O
ATOM      9  HD  NGY C   1      36.258   5.038  32.1950  0.00  0.00     0.000 HD
ATOM      9   O  NGY C   1      37.912   7.213  30.0830  0.00  0.00     0.000 O
ATOM     11  HD  NGY C   1      37.876   6.362  30.2400  0.00  0.00     0.000 HD
ENDROOT
BRANCH 2 13
ATOM     11   N  NGY C   1      33.248   6.312  31.6920  0.00  0.00     0.000 N
ATOM     13  HD  NGY C   1      33.424   5.543  32.0500  0.00  0.00     0.000 HD
ATOM     13   C  NGY C   1      33.090   5.270  32.5080  0.00  0.00     0.000 C
ATOM     14   O  NGY C   1      33.776   4.254  32.3830  0.00  0.00     0.000 OA
ATOM     15   C  NGY C   1      32.064   5.413  33.5900  0.00  0.00     0.000 C
ENDBRANCH 2 13
BRANCH 5 16
ATOM     16   C  NGY C   1      36.627   8.030  27.5540  0.00  0.00     0.000 C
ATOM     17   O  NGY C   1      36.060   5.883  24.6350  0.00  0.00     0.000 OA
ATOM     18   O  NGY C   1      36.331   6.903  26.7260  0.00  0.00     0.000 O
ATOM     19   S  NGY C   1      36.593   7.101  25.1890  0.00  0.00     0.000 S
ATOM     20   O  NGY C   1      38.018   7.208  25.0110  0.00  0.00     0.000 OA
ATOM     21   O  NGY C   1      35.873   8.317  24.8490  0.00  0.00     0.000 OA
ENDBRANCH 5 16
BRANCH 1 22
ATOM     22  O4  BDP C   2      33.471   8.482  30.2270  0.00  0.00     0.000 O
BRANCH 22 26
ATOM     23  C1  BDP C   2      31.087  11.824  30.5620  0.00  0.00     0.000 C
ATOM     24  C2  BDP C   2      30.363  10.500  30.6280  0.00  0.00     0.000 C
ATOM     25  C3  BDP C   2      31.356   9.391  30.8620  0.00  0.00     0.000 C
ATOM     26  C4  BDP C   2      32.469   9.450  29.8210  0.00  0.00     0.000 C
ATOM     27  C5  BDP C   2      33.005  10.872  29.7170  0.00  0.00     0.000 C
ATOM     28  O5  BDP C   2      31.971  11.840  29.4060  0.00  0.00     0.000 O
ATOM     29   O  BDP C   2      29.490  10.412  31.7540  0.00  0.00     0.000 O
ATOM     31  HD  BDP C   2      29.422   9.637  32.1330  0.00  0.00     0.000 HD
ATOM     31   O  BDP C   2      30.643   8.166  30.7470  0.00  0.00     0.000 O
ATOM     33  HD  BDP C   2      30.576   7.390  31.1260  0.00  0.00     0.000 HD
BRANCH 27 33
ATOM     33   C  BDP C   2      34.045  11.019  28.6320  0.00  0.00     0.000 C
ATOM     34   O  BDP C   2      35.118  11.641  28.8180  0.00  0.00     0.000 OA
ATOM     35   O  BDP C   2      33.808  10.545  27.5330  0.00  0.00     0.000 OA
ENDBRANCH 27 33
BRANCH 23 36
ATOM     36  O4  SGN C   3      30.292  12.916  30.4850  0.00  0.00     0.000 O
BRANCH 36 40
ATOM     37  C1  SGN C   3      29.883  16.962  31.4300  0.00  0.00     0.000 C
ATOM     38  C2  SGN C   3      30.863  16.586  30.3060  0.00  0.00     0.000 C
ATOM     39  C3  SGN C   3      30.577  15.181  29.7980  0.00  0.00     0.000 C
ATOM     40  C4  SGN C   3      30.639  14.218  30.9650  0.00  0.00     0.000 C
ATOM     41  C5  SGN C   3      29.664  14.675  32.0270  0.00  0.00     0.000 C
ATOM     42  O5  SGN C   3      30.009  15.999  32.4640  0.00  0.00     0.000 O
ATOM     43   O  SGN C   3      31.534  14.838  28.8030  0.00  0.00     0.000 O
ATOM     45  HD  SGN C   3      31.247  14.121  29.1970  0.00  0.00     0.000 HD
BRANCH 38 47
ATOM     45   N  SGN C   3      30.565  17.625  29.3050  0.00  0.00     0.000 N
ATOM     47  HD  SGN C   3      30.320  16.904  29.7160  0.00  0.00     0.000 HD
ATOM     47   S  SGN C   3      31.529  18.882  29.4430  0.00  0.00     0.000 S
ATOM     48   O  SGN C   3      31.307  19.572  30.6640  0.00  0.00     0.000 OA
ATOM     49   O  SGN C   3      32.853  18.410  29.2050  0.00  0.00     0.000 OA
ATOM     50   O  SGN C   3      31.059  19.738  28.3550  0.00  0.00     0.000 OA
ENDBRANCH 38 47
BRANCH 41 51
ATOM     51   C  SGN C   3      29.625  13.795  33.2460  0.00  0.00     0.000 C
ATOM     52   O  SGN C   3      26.926  11.422  34.2280  0.00  0.00     0.000 OA
ATOM     53   O  SGN C   3      29.292  11.259  34.5550  0.00  0.00     0.000 OA
ATOM     54   O  SGN C   3      28.031  12.992  35.6370  0.00  0.00     0.000 OA
ATOM     55   O  SGN C   3      28.449  13.017  33.2090  0.00  0.00     0.000 O
ATOM     56   S  SGN C   3      28.147  12.087  34.5320  0.00  0.00     0.000 S
ENDBRANCH 41 51
BRANCH 37 57
ATOM     57  O4  IDS C   4      28.582  17.011  31.0530  0.00  0.00     0.000 O
BRANCH 57 61
ATOM     58  C1  IDS C   4      25.380  19.025  30.6500  0.00  0.00     0.000 C
ATOM     59  C2  IDS C   4      26.692  19.711  30.4360  0.00  0.00     0.000 C
ATOM     60  C3  IDS C   4      27.758  19.279  31.4460  0.00  0.00     0.000 C
ATOM     61  C4  IDS C   4      27.729  17.821  31.8840  0.00  0.00     0.000 C
ATOM     62  C5  IDS C   4      26.294  17.282  31.8850  0.00  0.00     0.000 C
ATOM     63  O5  IDS C   4      25.601  17.626  30.6940  0.00  0.00     0.000 O
ATOM     64   O  IDS C   4      27.544  20.091  32.5850  0.00  0.00     0.000 O
ATOM     66  HD  IDS C   4      27.270  19.611  33.2520  0.00  0.00     0.000 HD
BRANCH 59 66
ATOM     66   O  IDS C   4      27.242  19.424  29.0980  0.00  0.00     0.000 O
ATOM     67   S  IDS C   4      27.324  20.648  28.0850  0.00  0.00     0.000 S
ATOM     68   O  IDS C   4      28.276  21.532  28.7130  0.00  0.00     0.000 OA
ATOM     69   O  IDS C   4      27.764  20.067  26.8320  0.00  0.00     0.000 OA
ATOM     70   O  IDS C   4      25.998  21.245  28.0230  0.00  0.00     0.000 OA
ENDBRANCH 59 66
BRANCH 62 71
ATOM     71   C  IDS C   4      26.226  15.770  31.9760  0.00  0.00     0.000 C
ATOM     72   O  IDS C   4      25.959  15.111  30.9900  0.00  0.00     0.000 OA
ATOM     73   O  IDS C   4      26.347  15.236  33.0970  0.00  0.00     0.000 OA
ENDBRANCH 62 71
BRANCH 58 74
ATOM     74  O4  SGN C   5      24.576  19.602  31.5880  0.00  0.00     0.000 O
BRANCH 74 78
ATOM     75  C1  SGN C   5      20.623  20.041  32.8620  0.00  0.00     0.000 C
ATOM     76  C2  SGN C   5      21.486  19.049  33.6660  0.00  0.00     0.000 C
ATOM     77  C3  SGN C   5      22.972  19.229  33.3310  0.00  0.00     0.000 C
ATOM     78  C4  SGN C   5      23.206  19.278  31.8270  0.00  0.00     0.000 C
ATOM     79  C5  SGN C   5      22.292  20.324  31.2050  0.00  0.00     0.000 C
ATOM     80  O5  SGN C   5      20.907  19.977  31.4710  0.00  0.00     0.000 O
ATOM     81   O  SGN C   5      23.710  18.162  33.9170  0.00  0.00     0.000 O
ATOM     83  HD  SGN C   5      23.500  17.836  34.6910  0.00  0.00     0.000 HD
BRANCH 76 85
ATOM     83   N  SGN C   5      20.315  19.079  34.5510  0.00  0.00     0.000 N
ATOM     85  HD  SGN C   5      19.935  19.223  35.3160  0.00  0.00     0.000 HD
ATOM     85   S  SGN C   5      20.187  18.630  36.0920  0.00  0.00     0.000 S
ATOM     86   O  SGN C   5      18.871  18.874  36.5740  0.00  0.00     0.000 OA
ATOM     87   O  SGN C   5      20.671  17.299  36.1830  0.00  0.00     0.000 OA
ATOM     88   O  SGN C   5      21.163  19.664  36.6480  0.00  0.00     0.000 OA
ENDBRANCH 76 85
BRANCH 79 89
ATOM     89   C  SGN C   5      22.469  20.465  29.7070  0.00  0.00     0.000 C
ATOM     90   O  SGN C   5      21.205  20.825  29.0970  0.00  0.00     0.000 O
ATOM     91   S  SGN C   5      21.275  21.738  27.7780  0.00  0.00     0.000 S
ATOM     92   O  SGN C   5      22.088  22.877  28.1160  0.00  0.00     0.000 OA
ATOM     93   O  SGN C   5      21.860  20.933  26.7370  0.00  0.00     0.000 OA
ATOM     94   O  SGN C   5      19.898  22.070  27.5330  0.00  0.00     0.000 OA
ENDBRANCH 79 89
BRANCH 75 95
ATOM     95  O4  BDP C   6      20.940  21.281  33.3390  0.00  0.00     0.000 O
BRANCH 95 99
ATOM     96  C1  BDP C   6      18.472  24.795  33.4540  0.00  0.00     0.000 C
ATOM     97  C2  BDP C   6      17.809  23.450  33.3500  0.00  0.00     0.000 C
ATOM     98  C3  BDP C   6      18.722  22.265  33.6990  0.00  0.00     0.000 C
ATOM     99  C4  BDP C   6      20.057  22.364  32.9750  0.00  0.00     0.000 C
ATOM    100  C5  BDP C   6      20.621  23.786  33.2070  0.00  0.00     0.000 C
ATOM    101  O5  BDP C   6      19.619  24.643  32.6370  0.00  0.00     0.000 O
BRANCH 100 102
ATOM    102   C  BDP C   6      21.913  24.026  32.4680  0.00  0.00     0.000 C
ATOM    103   O  BDP C   6      22.962  24.333  33.0510  0.00  0.00     0.000 OA
ATOM    104   O  BDP C   6      21.887  23.892  31.2390  0.00  0.00     0.000 OA
ENDBRANCH 100 102
ENDBRANCH 95 99
ENDBRANCH 75 95
ENDBRANCH 74 78
ENDBRANCH 58 74
ENDBRANCH 57 61
ENDBRANCH 37 57
ENDBRANCH 36 40
ENDBRANCH 23 36
ENDBRANCH 22 26
ENDBRANCH 1 22
TORSDOF 20
ENDMDL
MODEL 36
REMARK VINA RESULT:      -6.2     31.260     38.913
ROOT
ATOM      1  C1  NGY C   1      28.127   9.745  55.8560  0.00  0.00     0.000 C
ATOM      2  C2  NGY C   1      28.355  10.442  54.5220  0.00  0.00     0.000 C
ATOM      3  C3  NGY C   1      27.923   9.538  53.3730  0.00  0.00     0.000 C
ATOM      4  C4  NGY C   1      28.649   8.213  53.5110  0.00  0.00     0.000 C
ATOM      5  C5  NGY C   1      28.271   7.584  54.8490  0.00  0.00     0.000 C
ATOM      6  O5  NGY C   1      28.722   8.466  55.9090  0.00  0.00     0.000 O
ATOM      7   O  NGY C   1      28.212  10.180  52.1390  0.00  0.00     0.000 O
ATOM      9  HD  NGY C   1      28.832  10.692  51.8180  0.00  0.00     0.000 HD
ATOM      9   O  NGY C   1      28.313   7.336  52.4460  0.00  0.00     0.000 O
ATOM     11  HD  NGY C   1      28.933   7.848  52.1240  0.00  0.00     0.000 HD
ENDROOT
BRANCH 2 13
ATOM     11   N  NGY C   1      27.626  11.688  54.4970  0.00  0.00     0.000 N
ATOM     13  HD  NGY C   1      28.256  12.207  54.2070  0.00  0.00     0.000 HD
ATOM     13   C  NGY C   1      28.200  12.825  54.1060  0.00  0.00     0.000 C
ATOM     14   O  NGY C   1      29.411  12.885  53.8880  0.00  0.00     0.000 OA
ATOM     15   C  NGY C   1      27.296  14.006  53.9210  0.00  0.00     0.000 C
ENDBRANCH 2 13
BRANCH 5 16
ATOM     16   C  NGY C   1      28.905   6.259  55.1290  0.00  0.00     0.000 C
ATOM     17   O  NGY C   1      30.652   5.441  58.2490  0.00  0.00     0.000 OA
ATOM     18   O  NGY C   1      29.673   6.362  56.3310  0.00  0.00     0.000 O
ATOM     19   S  NGY C   1      30.038   4.999  57.0230  0.00  0.00     0.000 S
ATOM     20   O  NGY C   1      30.967   4.319  56.1590  0.00  0.00     0.000 OA
ATOM     21   O  NGY C   1      28.766   4.309  57.1660  0.00  0.00     0.000 OA
ENDBRANCH 5 16
BRANCH 1 22
ATOM     22  O4  BDP C   2      26.801   9.712  56.1080  0.00  0.00     0.000 O
BRANCH 22 26
ATOM     23  C1  BDP C   2      23.625   9.893  58.7250  0.00  0.00     0.000 C
ATOM     24  C2  BDP C   2      24.607  11.038  58.8140  0.00  0.00     0.000 C
ATOM     25  C3  BDP C   2      25.487  11.045  57.5920  0.00  0.00     0.000 C
ATOM     26  C4  BDP C   2      26.131   9.677  57.3960  0.00  0.00     0.000 C
ATOM     27  C5  BDP C   2      25.072   8.588  57.4990  0.00  0.00     0.000 C
ATOM     28  O5  BDP C   2      24.346   8.629  58.7550  0.00  0.00     0.000 O
ATOM     29   O  BDP C   2      23.963  12.311  58.7720  0.00  0.00     0.000 O
ATOM     31  HD  BDP C   2      24.383  12.945  58.3580  0.00  0.00     0.000 HD
ATOM     31   O  BDP C   2      26.489  12.031  57.8100  0.00  0.00     0.000 O
ATOM     33  HD  BDP C   2      26.910  12.664  57.3950  0.00  0.00     0.000 HD
BRANCH 27 33
ATOM     33   C  BDP C   2      25.660   7.200  57.4120  0.00  0.00     0.000 C
ATOM     34   O  BDP C   2      25.299   6.377  56.5360  0.00  0.00     0.000 OA
ATOM     35   O  BDP C   2      26.487   6.866  58.2450  0.00  0.00     0.000 OA
ENDBRANCH 27 33
BRANCH 23 36
ATOM     36  O4  SGN C   3      22.690   9.855  59.7020  0.00  0.00     0.000 O
BRANCH 36 40
ATOM     37  C1  SGN C   3      18.660   9.239  60.6000  0.00  0.00     0.000 C
ATOM     38  C2  SGN C   3      19.505   8.010  60.2310  0.00  0.00     0.000 C
ATOM     39  C3  SGN C   3      20.988   8.323  60.3650  0.00  0.00     0.000 C
ATOM     40  C4  SGN C   3      21.312   9.526  59.5050  0.00  0.00     0.000 C
ATOM     41  C5  SGN C   3      20.422  10.676  59.9210  0.00  0.00     0.000 C
ATOM     42  O5  SGN C   3      19.044  10.309  59.7510  0.00  0.00     0.000 O
ATOM     43   O  SGN C   3      21.745   7.189  59.9600  0.00  0.00     0.000 O
ATOM     45  HD  SGN C   3      22.204   7.912  59.8300  0.00  0.00     0.000 HD
BRANCH 38 47
ATOM     45   N  SGN C   3      18.172   7.478  59.8930  0.00  0.00     0.000 N
ATOM     47  HD  SGN C   3      18.819   8.023  59.7070  0.00  0.00     0.000 HD
ATOM     47   S  SGN C   3      17.855   6.127  60.6680  0.00  0.00     0.000 S
ATOM     48   O  SGN C   3      18.711   5.075  60.2480  0.00  0.00     0.000 OA
ATOM     49   O  SGN C   3      17.862   6.443  62.0590  0.00  0.00     0.000 OA
ATOM     50   O  SGN C   3      16.507   5.821  60.1920  0.00  0.00     0.000 OA
ENDBRANCH 38 47
BRANCH 41 51
ATOM     51   C  SGN C   3      20.649  11.943  59.1410  0.00  0.00     0.000 C
ATOM     52   O  SGN C   3      20.379  15.441  60.3930  0.00  0.00     0.000 OA
ATOM     53   O  SGN C   3      21.858  14.520  58.7520  0.00  0.00     0.000 OA
ATOM     54   O  SGN C   3      19.490  14.578  58.3590  0.00  0.00     0.000 OA
ATOM     55   O  SGN C   3      20.493  13.045  60.0070  0.00  0.00     0.000 O
ATOM     56   S  SGN C   3      20.560  14.535  59.3110  0.00  0.00     0.000 S
ENDBRANCH 41 51
BRANCH 37 57
ATOM     57  O4  IDS C   4      18.791   9.650  61.8860  0.00  0.00     0.000 O
BRANCH 57 61
ATOM     58  C1  IDS C   4      16.352  10.760  64.5860  0.00  0.00     0.000 C
ATOM     59  C2  IDS C   4      15.807  10.169  63.3250  0.00  0.00     0.000 C
ATOM     60  C3  IDS C   4      16.562  10.636  62.0770  0.00  0.00     0.000 C
ATOM     61  C4  IDS C   4      18.062  10.845  62.2280  0.00  0.00     0.000 C
ATOM     62  C5  IDS C   4      18.406  11.308  63.6490  0.00  0.00     0.000 C
ATOM     63  O5  IDS C   4      17.749  10.523  64.6330  0.00  0.00     0.000 O
ATOM     64   O  IDS C   4      15.972  11.874  61.7260  0.00  0.00     0.000 O
ATOM     66  HD  IDS C   4      16.537  12.521  61.8380  0.00  0.00     0.000 HD
BRANCH 59 66
ATOM     66   O  IDS C   4      15.889   8.696  63.3360  0.00  0.00     0.000 O
ATOM     67   S  IDS C   4      14.570   7.908  62.9220  0.00  0.00     0.000 S
ATOM     68   O  IDS C   4      14.389   8.274  61.5380  0.00  0.00     0.000 OA
ATOM     69   O  IDS C   4      14.883   6.511  63.1480  0.00  0.00     0.000 OA
ATOM     70   O  IDS C   4      13.488   8.410  63.7550  0.00  0.00     0.000 OA
ENDBRANCH 59 66
BRANCH 62 71
ATOM     71   C  IDS C   4      19.886  11.205  63.9660  0.00  0.00     0.000 C
ATOM     72   O  IDS C   4      20.254  10.684  65.0010  0.00  0.00     0.000 OA
ATOM     73   O  IDS C   4      20.698  11.756  63.1960  0.00  0.00     0.000 OA
ENDBRANCH 62 71
BRANCH 58 74
ATOM     74  O4  SGN C   5      15.877  12.001  64.8910  0.00  0.00     0.000 O
BRANCH 74 78
ATOM     75  C1  SGN C   5      15.107  14.738  67.9510  0.00  0.00     0.000 C
ATOM     76  C2  SGN C   5      16.508  14.099  67.9530  0.00  0.00     0.000 C
ATOM     77  C3  SGN C   5      16.785  13.394  66.6180  0.00  0.00     0.000 C
ATOM     78  C4  SGN C   5      15.625  12.499  66.2050  0.00  0.00     0.000 C
ATOM     79  C5  SGN C   5      14.331  13.299  66.2360  0.00  0.00     0.000 C
ATOM     80  O5  SGN C   5      14.104  13.802  67.5790  0.00  0.00     0.000 O
ATOM     81   O  SGN C   5      17.985  12.636  66.7370  0.00  0.00     0.000 O
ATOM     83  HD  SGN C   5      18.660  12.922  67.1980  0.00  0.00     0.000 HD
BRANCH 76 85
ATOM     83   N  SGN C   5      17.214  15.345  68.2760  0.00  0.00     0.000 N
ATOM     85  HD  SGN C   5      17.899  15.783  68.5750  0.00  0.00     0.000 HD
ATOM     85   S  SGN C   5      18.126  15.702  69.5550  0.00  0.00     0.000 S
ATOM     86   O  SGN C   5      18.654  17.017  69.4370  0.00  0.00     0.000 OA
ATOM     87   O  SGN C   5      17.355  15.417  70.7120  0.00  0.00     0.000 OA
ATOM     88   O  SGN C   5      19.209  14.661  69.2820  0.00  0.00     0.000 OA
ENDBRANCH 76 85
BRANCH 79 89
ATOM     89   C  SGN C   5      13.116  12.498  65.8150  0.00  0.00     0.000 C
ATOM     90   O  SGN C   5      13.260  11.124  66.2510  0.00  0.00     0.000 O
ATOM     91   S  SGN C   5      11.910  10.338  66.6180  0.00  0.00     0.000 S
ATOM     92   O  SGN C   5      11.204  11.163  67.5630  0.00  0.00     0.000 OA
ATOM     93   O  SGN C   5      11.178  10.158  65.3900  0.00  0.00     0.000 OA
ATOM     94   O  SGN C   5      12.388   9.104  67.1790  0.00  0.00     0.000 OA
ENDBRANCH 79 89
BRANCH 75 95
ATOM     95  O4  BDP C   6      15.159  15.746  67.0290  0.00  0.00     0.000 O
BRANCH 95 99
ATOM     96  C1  BDP C   6      13.007  19.455  66.8000  0.00  0.00     0.000 C
ATOM     97  C2  BDP C   6      13.417  18.941  68.1520  0.00  0.00     0.000 C
ATOM     98  C3  BDP C   6      14.488  17.841  68.1130  0.00  0.00     0.000 C
ATOM     99  C4  BDP C   6      14.130  16.755  67.1090  0.00  0.00     0.000 C
ATOM    100  C5  BDP C   6      13.770  17.442  65.7710  0.00  0.00     0.000 C
ATOM    101  O5  BDP C   6      12.649  18.273  66.1100  0.00  0.00     0.000 O
BRANCH 100 102
ATOM    102   C  BDP C   6      13.321  16.462  64.7170  0.00  0.00     0.000 C
ATOM    103   O  BDP C   6      14.109  15.953  63.9070  0.00  0.00     0.000 OA
ATOM    104   O  BDP C   6      12.119  16.172  64.7000  0.00  0.00     0.000 OA
ENDBRANCH 100 102
ENDBRANCH 95 99
ENDBRANCH 75 95
ENDBRANCH 74 78
ENDBRANCH 58 74
ENDBRANCH 57 61
ENDBRANCH 37 57
ENDBRANCH 36 40
ENDBRANCH 23 36
ENDBRANCH 22 26
ENDBRANCH 1 22
TORSDOF 20
ENDMDL
MODEL 37
REMARK VINA RESULT:      -6.2     20.653     32.794
ROOT
ATOM      1  C1  NGY C   1      31.247   5.348  58.1430  0.00  0.00     0.000 C
ATOM      2  C2  NGY C   1      31.705   6.032  59.4240  0.00  0.00     0.000 C
ATOM      3  C3  NGY C   1      33.225   5.987  59.5330  0.00  0.00     0.000 C
ATOM      4  C4  NGY C   1      33.668   4.541  59.4120  0.00  0.00     0.000 C
ATOM      5  C5  NGY C   1      33.220   4.004  58.0560  0.00  0.00     0.000 C
ATOM      6  O5  NGY C   1      31.770   4.044  58.0070  0.00  0.00     0.000 O
ATOM      7   O  NGY C   1      33.622   6.565  60.7680  0.00  0.00     0.000 O
ATOM      9  HD  NGY C   1      33.327   6.595  61.5810  0.00  0.00     0.000 HD
ATOM      9   O  NGY C   1      35.078   4.429  59.5400  0.00  0.00     0.000 O
ATOM     11  HD  NGY C   1      34.783   4.459  60.3530  0.00  0.00     0.000 HD
ENDROOT
BRANCH 2 13
ATOM     11   N  NGY C   1      31.651   7.066  60.4300  0.00  0.00     0.000 N
ATOM     13  HD  NGY C   1      30.890   7.420  60.2180  0.00  0.00     0.000 HD
ATOM     13   C  NGY C   1      30.624   7.910  60.5090  0.00  0.00     0.000 C
ATOM     14   O  NGY C   1      29.750   7.935  59.6410  0.00  0.00     0.000 OA
ATOM     15   C  NGY C   1      30.576   8.800  61.7140  0.00  0.00     0.000 C
ENDBRANCH 2 13
BRANCH 5 16
ATOM     16   C  NGY C   1      33.594   2.582  57.7810  0.00  0.00     0.000 C
ATOM     17   O  NGY C   1      36.518   1.577  55.8050  0.00  0.00     0.000 OA
ATOM     18   O  NGY C   1      34.646   2.563  56.8120  0.00  0.00     0.000 O
ATOM     19   S  NGY C   1      35.468   1.226  56.7270  0.00  0.00     0.000 S
ATOM     20   O  NGY C   1      34.587   0.218  56.1970  0.00  0.00     0.000 OA
ATOM     21   O  NGY C   1      35.889   0.967  58.0950  0.00  0.00     0.000 OA
ENDBRANCH 5 16
BRANCH 1 22
ATOM     22  O4  BDP C   2      31.552   6.141  57.0940  0.00  0.00     0.000 O
BRANCH 22 26
ATOM     23  C1  BDP C   2      30.460   7.820  53.4950  0.00  0.00     0.000 C
ATOM     24  C2  BDP C   2      29.345   7.656  54.5010  0.00  0.00     0.000 C
ATOM     25  C3  BDP C   2      29.928   7.387  55.8630  0.00  0.00     0.000 C
ATOM     26  C4  BDP C   2      30.897   6.211  55.8000  0.00  0.00     0.000 C
ATOM     27  C5  BDP C   2      31.866   6.402  54.6400  0.00  0.00     0.000 C
ATOM     28  O5  BDP C   2      31.190   6.568  53.3670  0.00  0.00     0.000 O
ATOM     29   O  BDP C   2      28.598   8.859  54.6860  0.00  0.00     0.000 O
ATOM     31  HD  BDP C   2      28.310   9.016  55.4880  0.00  0.00     0.000 HD
ATOM     31   O  BDP C   2      28.840   7.077  56.7250  0.00  0.00     0.000 O
ATOM     33  HD  BDP C   2      28.552   7.234  57.5260  0.00  0.00     0.000 HD
BRANCH 27 33
ATOM     33   C  BDP C   2      32.792   5.223  54.4610  0.00  0.00     0.000 C
ATOM     34   O  BDP C   2      33.996   5.365  54.1400  0.00  0.00     0.000 OA
ATOM     35   O  BDP C   2      32.336   4.100  54.6020  0.00  0.00     0.000 OA
ENDBRANCH 27 33
BRANCH 23 36
ATOM     36  O4  SGN C   3      30.071   8.196  52.2550  0.00  0.00     0.000 O
BRANCH 36 40
ATOM     37  C1  SGN C   3      30.904  10.632  48.9680  0.00  0.00     0.000 C
ATOM     38  C2  SGN C   3      31.971   9.607  49.3870  0.00  0.00     0.000 C
ATOM     39  C3  SGN C   3      31.360   8.537  50.2790  0.00  0.00     0.000 C
ATOM     40  C4  SGN C   3      30.706   9.207  51.4680  0.00  0.00     0.000 C
ATOM     41  C5  SGN C   3      29.692  10.211  50.9650  0.00  0.00     0.000 C
ATOM     42  O5  SGN C   3      30.346  11.193  50.1460  0.00  0.00     0.000 O
ATOM     43   O  SGN C   3      32.380   7.639  50.6990  0.00  0.00     0.000 O
ATOM     45  HD  SGN C   3      31.746   7.661  51.2880  0.00  0.00     0.000 HD
BRANCH 38 47
ATOM     45   N  SGN C   3      32.951  10.516  48.7640  0.00  0.00     0.000 N
ATOM     47  HD  SGN C   3      32.447  10.325  49.4430  0.00  0.00     0.000 HD
ATOM     47   S  SGN C   3      33.660   9.857  47.5040  0.00  0.00     0.000 S
ATOM     48   O  SGN C   3      34.473   8.756  47.8840  0.00  0.00     0.000 OA
ATOM     49   O  SGN C   3      32.635   9.595  46.5480  0.00  0.00     0.000 OA
ATOM     50   O  SGN C   3      34.545  10.934  47.0640  0.00  0.00     0.000 OA
ENDBRANCH 38 47
BRANCH 41 51
ATOM     51   C  SGN C   3      28.962  10.948  52.0550  0.00  0.00     0.000 C
ATOM     52   O  SGN C   3      30.351  13.535  54.3480  0.00  0.00     0.000 OA
ATOM     53   O  SGN C   3      28.153  13.344  53.4180  0.00  0.00     0.000 OA
ATOM     54   O  SGN C   3      28.976  11.685  54.9460  0.00  0.00     0.000 OA
ATOM     55   O  SGN C   3      29.845  11.874  52.6480  0.00  0.00     0.000 O
ATOM     56   S  SGN C   3      29.277  12.684  53.9630  0.00  0.00     0.000 S
ENDBRANCH 41 51
BRANCH 37 57
ATOM     57  O4  IDS C   4      29.893  10.123  48.2210  0.00  0.00     0.000 O
BRANCH 57 61
ATOM     58  C1  IDS C   4      27.462  10.394  45.3090  0.00  0.00     0.000 C
ATOM     59  C2  IDS C   4      28.862  10.885  45.1230  0.00  0.00     0.000 C
ATOM     60  C3  IDS C   4      29.399  11.621  46.3530  0.00  0.00     0.000 C
ATOM     61  C4  IDS C   4      28.957  11.091  47.7100  0.00  0.00     0.000 C
ATOM     62  C5  IDS C   4      27.546  10.497  47.6280  0.00  0.00     0.000 C
ATOM     63  O5  IDS C   4      27.400   9.638  46.5060  0.00  0.00     0.000 O
ATOM     64   O  IDS C   4      28.938  12.952  46.2220  0.00  0.00     0.000 O
ATOM     66  HD  IDS C   4      28.362  13.136  46.8430  0.00  0.00     0.000 HD
BRANCH 59 66
ATOM     66   O  IDS C   4      29.796   9.774  44.8590  0.00  0.00     0.000 O
ATOM     67   S  IDS C   4      30.350   9.649  43.3720  0.00  0.00     0.000 S
ATOM     68   O  IDS C   4      31.126  10.855  43.2080  0.00  0.00     0.000 OA
ATOM     69   O  IDS C   4      31.119   8.421  43.3620  0.00  0.00     0.000 OA
ATOM     70   O  IDS C   4      29.198   9.629  42.4840  0.00  0.00     0.000 OA
ENDBRANCH 59 66
BRANCH 62 71
ATOM     71   C  IDS C   4      27.183   9.656  48.8370  0.00  0.00     0.000 C
ATOM     72   O  IDS C   4      27.195   8.443  48.7620  0.00  0.00     0.000 OA
ATOM     73   O  IDS C   4      26.777  10.237  49.8640  0.00  0.00     0.000 OA
ENDBRANCH 62 71
BRANCH 58 74
ATOM     74  O4  SGN C   5      26.490  11.315  45.0510  0.00  0.00     0.000 O
BRANCH 74 78
ATOM     75  C1  SGN C   5      22.426  11.796  44.2140  0.00  0.00     0.000 C
ATOM     76  C2  SGN C   5      22.785  10.662  45.1930  0.00  0.00     0.000 C
ATOM     77  C3  SGN C   5      24.234  10.804  45.6800  0.00  0.00     0.000 C
ATOM     78  C4  SGN C   5      25.194  11.037  44.5220  0.00  0.00     0.000 C
ATOM     79  C5  SGN C   5      24.698  12.203  43.6790  0.00  0.00     0.000 C
ATOM     80  O5  SGN C   5      23.376  11.900  43.1610  0.00  0.00     0.000 O
ATOM     81   O  SGN C   5      24.595   9.630  46.4010  0.00  0.00     0.000 O
ATOM     83  HD  SGN C   5      24.030   9.217  46.9100  0.00  0.00     0.000 HD
BRANCH 76 85
ATOM     83   N  SGN C   5      21.914  10.639  46.3750  0.00  0.00     0.000 N
ATOM     85  HD  SGN C   5      21.357  10.247  46.9100  0.00  0.00     0.000 HD
ATOM     85   S  SGN C   5      20.447   9.998  46.5520  0.00  0.00     0.000 S
ATOM     86   O  SGN C   5      19.988  10.169  47.8860  0.00  0.00     0.000 OA
ATOM     87   O  SGN C   5      19.632  10.523  45.5160  0.00  0.00     0.000 OA
ATOM     88   O  SGN C   5      20.869   8.550  46.3100  0.00  0.00     0.000 OA
ENDBRANCH 76 85
BRANCH 79 89
ATOM     89   C  SGN C   5      25.604  12.530  42.5090  0.00  0.00     0.000 C
ATOM     90   O  SGN C   5      26.226  13.822  42.7180  0.00  0.00     0.000 O
ATOM     91   S  SGN C   5      27.694  14.024  42.1020  0.00  0.00     0.000 S
ATOM     92   O  SGN C   5      28.491  12.925  42.5830  0.00  0.00     0.000 OA
ATOM     93   O  SGN C   5      27.557  14.017  40.6680  0.00  0.00     0.000 OA
ATOM     94   O  SGN C   5      28.101  15.299  42.6270  0.00  0.00     0.000 OA
ENDBRANCH 79 89
BRANCH 75 95
ATOM     95  O4  BDP C   6      22.435  12.944  44.9550  0.00  0.00     0.000 O
BRANCH 95 99
ATOM     96  C1  BDP C   6      20.011  16.476  44.6470  0.00  0.00     0.000 C
ATOM     97  C2  BDP C   6      19.394  15.147  44.3170  0.00  0.00     0.000 C
ATOM     98  C3  BDP C   6      20.195  13.934  44.8150  0.00  0.00     0.000 C
ATOM     99  C4  BDP C   6      21.666  14.054  44.4440  0.00  0.00     0.000 C
ATOM    100  C5  BDP C   6      22.156  15.455  44.8790  0.00  0.00     0.000 C
ATOM    101  O5  BDP C   6      21.322  16.352  44.1270  0.00  0.00     0.000 O
BRANCH 100 102
ATOM    102   C  BDP C   6      23.589  15.717  44.4880  0.00  0.00     0.000 C
ATOM    103   O  BDP C   6      23.896  16.234  43.4040  0.00  0.00     0.000 OA
ATOM    104   O  BDP C   6      24.458  15.403  45.3100  0.00  0.00     0.000 OA
ENDBRANCH 100 102
ENDBRANCH 95 99
ENDBRANCH 75 95
ENDBRANCH 74 78
ENDBRANCH 58 74
ENDBRANCH 57 61
ENDBRANCH 37 57
ENDBRANCH 36 40
ENDBRANCH 23 36
ENDBRANCH 22 26
ENDBRANCH 1 22
TORSDOF 20
ENDMDL
MODEL 38
REMARK VINA RESULT:      -6.2     26.716     36.608
ROOT
ATOM      1  C1  NGY C   1      18.999   5.467  61.7460  0.00  0.00     0.000 C
ATOM      2  C2  NGY C   1      17.995   6.521  62.1910  0.00  0.00     0.000 C
ATOM      3  C3  NGY C   1      18.289   6.958  63.6230  0.00  0.00     0.000 C
ATOM      4  C4  NGY C   1      18.318   5.722  64.5010  0.00  0.00     0.000 C
ATOM      5  C5  NGY C   1      19.417   4.790  63.9980  0.00  0.00     0.000 C
ATOM      6  O5  NGY C   1      19.084   4.383  62.6460  0.00  0.00     0.000 O
ATOM      7   O  NGY C   1      17.297   7.886  64.0400  0.00  0.00     0.000 O
ATOM      9  HD  NGY C   1      16.447   8.005  63.9250  0.00  0.00     0.000 HD
ATOM      9   O  NGY C   1      18.554   6.068  65.8580  0.00  0.00     0.000 O
ATOM     11  HD  NGY C   1      17.704   6.187  65.7440  0.00  0.00     0.000 HD
ENDROOT
BRANCH 2 13
ATOM     11   N  NGY C   1      16.962   6.947  61.2770  0.00  0.00     0.000 N
ATOM     13  HD  NGY C   1      17.226   7.761  61.1460  0.00  0.00     0.000 HD
ATOM     13   C  NGY C   1      16.938   8.181  60.7770  0.00  0.00     0.000 C
ATOM     14   O  NGY C   1      17.711   9.049  61.1850  0.00  0.00     0.000 OA
ATOM     15   C  NGY C   1      15.947   8.444  59.6840  0.00  0.00     0.000 C
ENDBRANCH 2 13
BRANCH 5 16
ATOM     16   C  NGY C   1      19.578   3.521  64.7740  0.00  0.00     0.000 C
ATOM     17   O  NGY C   1      20.502   0.304  63.2720  0.00  0.00     0.000 OA
ATOM     18   O  NGY C   1      19.725   2.436  63.8540  0.00  0.00     0.000 O
ATOM     19   S  NGY C   1      20.343   1.120  64.4500  0.00  0.00     0.000 S
ATOM     20   O  NGY C   1      19.377   0.574  65.3680  0.00  0.00     0.000 OA
ATOM     21   O  NGY C   1      21.574   1.550  65.0900  0.00  0.00     0.000 OA
ENDBRANCH 5 16
BRANCH 1 22
ATOM     22  O4  BDP C   2      20.192   6.063  61.5380  0.00  0.00     0.000 O
BRANCH 22 26
ATOM     23  C1  BDP C   2      23.734   6.362  59.4570  0.00  0.00     0.000 C
ATOM     24  C2  BDP C   2      22.495   6.193  58.6100  0.00  0.00     0.000 C
ATOM     25  C3  BDP C   2      21.271   6.463  59.4450  0.00  0.00     0.000 C
ATOM     26  C4  BDP C   2      21.293   5.608  60.7080  0.00  0.00     0.000 C
ATOM     27  C5  BDP C   2      22.652   5.722  61.3860  0.00  0.00     0.000 C
ATOM     28  O5  BDP C   2      23.748   5.355  60.5090  0.00  0.00     0.000 O
ATOM     29   O  BDP C   2      22.413   7.164  57.5670  0.00  0.00     0.000 O
ATOM     31  HD  BDP C   2      21.621   7.452  57.3680  0.00  0.00     0.000 HD
ATOM     31   O  BDP C   2      20.143   6.127  58.6470  0.00  0.00     0.000 O
ATOM     33  HD  BDP C   2      19.351   6.416  58.4480  0.00  0.00     0.000 HD
BRANCH 27 33
ATOM     33   C  BDP C   2      22.773   4.821  62.5910  0.00  0.00     0.000 C
ATOM     34   O  BDP C   2      23.237   5.228  63.6830  0.00  0.00     0.000 OA
ATOM     35   O  BDP C   2      22.438   3.653  62.4790  0.00  0.00     0.000 OA
ENDBRANCH 27 33
BRANCH 23 36
ATOM     36  O4  SGN C   3      24.909   6.273  58.7910  0.00  0.00     0.000 O
BRANCH 36 40
ATOM     37  C1  SGN C   3      28.615   8.093  58.1750  0.00  0.00     0.000 C
ATOM     38  C2  SGN C   3      28.519   7.022  59.2740  0.00  0.00     0.000 C
ATOM     39  C3  SGN C   3      27.273   6.171  59.0800  0.00  0.00     0.000 C
ATOM     40  C4  SGN C   3      26.061   7.078  59.0510  0.00  0.00     0.000 C
ATOM     41  C5  SGN C   3      26.252   8.110  57.9610  0.00  0.00     0.000 C
ATOM     42  O5  SGN C   3      27.435   8.880  58.2230  0.00  0.00     0.000 O
ATOM     43   O  SGN C   3      27.178   5.229  60.1420  0.00  0.00     0.000 O
ATOM     45  HD  SGN C   3      26.388   5.411  59.8370  0.00  0.00     0.000 HD
BRANCH 38 47
ATOM     45   N  SGN C   3      29.767   7.762  59.5320  0.00  0.00     0.000 N
ATOM     47  HD  SGN C   3      28.909   7.779  59.4140  0.00  0.00     0.000 HD
ATOM     47   S  SGN C   3      30.956   6.797  59.9580  0.00  0.00     0.000 S
ATOM     48   O  SGN C   3      30.704   6.188  61.2160  0.00  0.00     0.000 OA
ATOM     49   O  SGN C   3      31.185   5.920  58.8570  0.00  0.00     0.000 OA
ATOM     50   O  SGN C   3      32.058   7.742  60.1320  0.00  0.00     0.000 OA
ENDBRANCH 38 47
BRANCH 41 51
ATOM     51   C  SGN C   3      25.107   9.078  57.8230  0.00  0.00     0.000 C
ATOM     52   O  SGN C   3      23.386  10.938  60.5540  0.00  0.00     0.000 OA
ATOM     53   O  SGN C   3      23.831  11.607  58.2980  0.00  0.00     0.000 OA
ATOM     54   O  SGN C   3      22.358   9.766  58.7530  0.00  0.00     0.000 OA
ATOM     55   O  SGN C   3      24.791   9.594  59.0970  0.00  0.00     0.000 O
ATOM     56   S  SGN C   3      23.467  10.567  59.1820  0.00  0.00     0.000 S
ENDBRANCH 41 51
BRANCH 37 57
ATOM     57  O4  IDS C   4      28.747   7.603  56.9180  0.00  0.00     0.000 O
BRANCH 57 61
ATOM     58  C1  IDS C   4      30.666   7.413  53.6390  0.00  0.00     0.000 C
ATOM     59  C2  IDS C   4      31.437   7.501  54.9180  0.00  0.00     0.000 C
ATOM     60  C3  IDS C   4      30.806   8.468  55.9230  0.00  0.00     0.000 C
ATOM     61  C4  IDS C   4      29.285   8.525  55.9500  0.00  0.00     0.000 C
ATOM     62  C5  IDS C   4      28.706   8.257  54.5560  0.00  0.00     0.000 C
ATOM     63  O5  IDS C   4      29.312   7.128  53.9430  0.00  0.00     0.000 O
ATOM     64   O  IDS C   4      31.294   9.747  55.5660  0.00  0.00     0.000 O
ATOM     66  HD  IDS C   4      30.651  10.246  55.2700  0.00  0.00     0.000 HD
BRANCH 59 66
ATOM     66   O  IDS C   4      31.520   6.192  55.5920  0.00  0.00     0.000 O
ATOM     67   S  IDS C   4      32.962   5.524  55.6720  0.00  0.00     0.000 S
ATOM     68   O  IDS C   4      33.702   6.438  56.5090  0.00  0.00     0.000 OA
ATOM     69   O  IDS C   4      32.736   4.214  56.2500  0.00  0.00     0.000 OA
ATOM     70   O  IDS C   4      33.494   5.486  54.3180  0.00  0.00     0.000 OA
ENDBRANCH 59 66
BRANCH 62 71
ATOM     71   C  IDS C   4      27.218   7.962  54.5770  0.00  0.00     0.000 C
ATOM     72   O  IDS C   4      26.415   8.875  54.5710  0.00  0.00     0.000 OA
ATOM     73   O  IDS C   4      26.850   6.778  54.7070  0.00  0.00     0.000 OA
ENDBRANCH 62 71
BRANCH 58 74
ATOM     74  O4  SGN C   5      30.954   8.384  52.7260  0.00  0.00     0.000 O
BRANCH 74 78
ATOM     75  C1  SGN C   5      31.008   9.407  48.6770  0.00  0.00     0.000 C
ATOM     76  C2  SGN C   5      29.686   8.823  49.2090  0.00  0.00     0.000 C
ATOM     77  C3  SGN C   5      29.676   8.812  50.7430  0.00  0.00     0.000 C
ATOM     78  C4  SGN C   5      30.961   8.221  51.3070  0.00  0.00     0.000 C
ATOM     79  C5  SGN C   5      32.158   8.932  50.6930  0.00  0.00     0.000 C
ATOM     80  O5  SGN C   5      32.136   8.760  49.2510  0.00  0.00     0.000 O
ATOM     81   O  SGN C   5      28.546   8.070  51.1920  0.00  0.00     0.000 O
ATOM     83  HD  SGN C   5      27.787   8.103  50.7770  0.00  0.00     0.000 HD
BRANCH 76 85
ATOM     83   N  SGN C   5      28.785   9.763  48.5290  0.00  0.00     0.000 N
ATOM     85  HD  SGN C   5      28.020   9.980  48.1870  0.00  0.00     0.000 HD
ATOM     85   S  SGN C   5      27.709   9.487  47.3640  0.00  0.00     0.000 S
ATOM     86   O  SGN C   5      27.019  10.685  47.0310  0.00  0.00     0.000 OA
ATOM     87   O  SGN C   5      28.390   8.821  46.3120  0.00  0.00     0.000 OA
ATOM     88   O  SGN C   5      26.813   8.560  48.1820  0.00  0.00     0.000 OA
ENDBRANCH 76 85
BRANCH 79 89
ATOM     89   C  SGN C   5      33.490   8.429  51.2120  0.00  0.00     0.000 C
ATOM     90   O  SGN C   5      34.425   8.295  50.1130  0.00  0.00     0.000 O
ATOM     91   S  SGN C   5      35.975   8.540  50.4520  0.00  0.00     0.000 S
ATOM     92   O  SGN C   5      36.050   9.819  51.1090  0.00  0.00     0.000 OA
ATOM     93   O  SGN C   5      36.399   7.458  51.3020  0.00  0.00     0.000 OA
ATOM     94   O  SGN C   5      36.601   8.524  49.1580  0.00  0.00     0.000 OA
ENDBRANCH 79 89
BRANCH 75 95
ATOM     95  O4  BDP C   6      31.003  10.725  49.0350  0.00  0.00     0.000 O
BRANCH 95 99
ATOM     96  C1  BDP C   6      32.530  14.123  46.8970  0.00  0.00     0.000 C
ATOM     97  C2  BDP C   6      32.104  12.911  46.1170  0.00  0.00     0.000 C
ATOM     98  C3  BDP C   6      31.233  11.922  46.9070  0.00  0.00     0.000 C
ATOM     99  C4  BDP C   6      31.843  11.613  48.2660  0.00  0.00     0.000 C
ATOM    100  C5  BDP C   6      32.191  12.955  48.9510  0.00  0.00     0.000 C
ATOM    101  O5  BDP C   6      33.131  13.560  48.0480  0.00  0.00     0.000 O
BRANCH 100 102
ATOM    102   C  BDP C   6      32.877  12.769  50.2800  0.00  0.00     0.000 C
ATOM    103   O  BDP C   6      34.020  12.299  50.3750  0.00  0.00     0.000 OA
ATOM    104   O  BDP C   6      32.251  13.121  51.2860  0.00  0.00     0.000 OA
ENDBRANCH 100 102
ENDBRANCH 95 99
ENDBRANCH 75 95
ENDBRANCH 74 78
ENDBRANCH 58 74
ENDBRANCH 57 61
ENDBRANCH 37 57
ENDBRANCH 36 40
ENDBRANCH 23 36
ENDBRANCH 22 26
ENDBRANCH 1 22
TORSDOF 20
ENDMDL
MODEL 39
REMARK VINA RESULT:      -6.1     15.374     19.406
ROOT
ATOM      1  C1  NGY C   1      27.210  42.984  11.5520  0.00  0.00     0.000 C
ATOM      2  C2  NGY C   1      26.056  43.870  12.0000  0.00  0.00     0.000 C
ATOM      3  C3  NGY C   1      24.788  43.515  11.2290  0.00  0.00     0.000 C
ATOM      4  C4  NGY C   1      25.093  43.600   9.7460  0.00  0.00     0.000 C
ATOM      5  C5  NGY C   1      26.205  42.608   9.4170  0.00  0.00     0.000 C
ATOM      6  O5  NGY C   1      27.394  42.998  10.1520  0.00  0.00     0.000 O
ATOM      7   O  NGY C   1      23.746  44.401  11.6120  0.00  0.00     0.000 O
ATOM      9  HD  NGY C   1      23.667  45.236  11.8270  0.00  0.00     0.000 HD
ATOM      9   O  NGY C   1      23.937  43.311   8.9720  0.00  0.00     0.000 O
ATOM     11  HD  NGY C   1      23.858  44.147   9.1870  0.00  0.00     0.000 HD
ENDROOT
BRANCH 2 13
ATOM     11   N  NGY C   1      26.161  43.791  13.4380  0.00  0.00     0.000 N
ATOM     13  HD  NGY C   1      25.799  44.551  13.6410  0.00  0.00     0.000 HD
ATOM     13   C  NGY C   1      25.721  44.772  14.2250  0.00  0.00     0.000 C
ATOM     14   O  NGY C   1      25.338  45.844  13.7530  0.00  0.00     0.000 OA
ATOM     15   C  NGY C   1      25.692  44.491  15.6960  0.00  0.00     0.000 C
ENDBRANCH 2 13
BRANCH 5 16
ATOM     16   C  NGY C   1      26.615  42.566   7.9800  0.00  0.00     0.000 C
ATOM     17   O  NGY C   1      26.247  45.385   5.6610  0.00  0.00     0.000 OA
ATOM     18   O  NGY C   1      26.133  43.746   7.3300  0.00  0.00     0.000 O
ATOM     19   S  NGY C   1      26.826  44.101   5.9650  0.00  0.00     0.000 S
ATOM     20   O  NGY C   1      26.442  43.089   5.0170  0.00  0.00     0.000 OA
ATOM     21   O  NGY C   1      28.248  44.105   6.2670  0.00  0.00     0.000 OA
ENDBRANCH 5 16
BRANCH 1 22
ATOM     22  O4  BDP C   2      27.017  41.739  12.0370  0.00  0.00     0.000 O
BRANCH 22 26
ATOM     23  C1  BDP C   2      28.455  38.130  13.4050  0.00  0.00     0.000 C
ATOM     24  C2  BDP C   2      28.950  39.350  14.1460  0.00  0.00     0.000 C
ATOM     25  C3  BDP C   2      28.088  40.536  13.8000  0.00  0.00     0.000 C
ATOM     26  C4  BDP C   2      28.007  40.707  12.2870  0.00  0.00     0.000 C
ATOM     27  C5  BDP C   2      27.672  39.373  11.6330  0.00  0.00     0.000 C
ATOM     28  O5  BDP C   2      28.619  38.329  11.9730  0.00  0.00     0.000 O
ATOM     29   O  BDP C   2      28.801  39.226  15.5600  0.00  0.00     0.000 O
ATOM     31  HD  BDP C   2      28.598  39.948  15.9930  0.00  0.00     0.000 HD
ATOM     31   O  BDP C   2      28.699  41.677  14.3890  0.00  0.00     0.000 O
ATOM     33  HD  BDP C   2      28.497  42.399  14.8220  0.00  0.00     0.000 HD
BRANCH 27 33
ATOM     33   C  BDP C   2      27.672  39.453  10.1250  0.00  0.00     0.000 C
ATOM     34   O  BDP C   2      26.739  38.981   9.4330  0.00  0.00     0.000 OA
ATOM     35   O  BDP C   2      28.632  39.964   9.5710  0.00  0.00     0.000 OA
ENDBRANCH 27 33
BRANCH 23 36
ATOM     36  O4  SGN C   3      29.066  36.967  13.7300  0.00  0.00     0.000 O
BRANCH 36 40
ATOM     37  C1  SGN C   3      28.541  32.914  14.5780  0.00  0.00     0.000 C
ATOM     38  C2  SGN C   3      28.091  33.418  13.1980  0.00  0.00     0.000 C
ATOM     39  C3  SGN C   3      28.733  34.763  12.8870  0.00  0.00     0.000 C
ATOM     40  C4  SGN C   3      28.392  35.734  13.9970  0.00  0.00     0.000 C
ATOM     41  C5  SGN C   3      28.848  35.149  15.3150  0.00  0.00     0.000 C
ATOM     42  O5  SGN C   3      28.188  33.894  15.5420  0.00  0.00     0.000 O
ATOM     43   O  SGN C   3      28.254  35.233  11.6330  0.00  0.00     0.000 O
ATOM     45  HD  SGN C   3      28.478  35.903  12.1340  0.00  0.00     0.000 HD
BRANCH 38 47
ATOM     45   N  SGN C   3      27.092  32.755  12.3410  0.00  0.00     0.000 N
ATOM     47  HD  SGN C   3      27.418  33.490  12.6620  0.00  0.00     0.000 HD
ATOM     47   S  SGN C   3      27.466  31.237  12.0540  0.00  0.00     0.000 S
ATOM     48   O  SGN C   3      28.646  31.133  11.2700  0.00  0.00     0.000 OA
ATOM     49   O  SGN C   3      27.475  30.572  13.3160  0.00  0.00     0.000 OA
ATOM     50   O  SGN C   3      26.341  30.805  11.2250  0.00  0.00     0.000 OA
ENDBRANCH 38 47
BRANCH 41 51
ATOM     51   C  SGN C   3      28.570  36.025  16.5060  0.00  0.00     0.000 C
ATOM     52   O  SGN C   3      26.384  35.243  19.4200  0.00  0.00     0.000 OA
ATOM     53   O  SGN C   3      28.409  36.517  19.3320  0.00  0.00     0.000 OA
ATOM     54   O  SGN C   3      26.443  37.276  18.1820  0.00  0.00     0.000 OA
ATOM     55   O  SGN C   3      27.730  35.327  17.3990  0.00  0.00     0.000 O
ATOM     56   S  SGN C   3      27.191  36.172  18.7050  0.00  0.00     0.000 S
ENDBRANCH 41 51
BRANCH 37 57
ATOM     57  O4  IDS C   4      29.870  32.672  14.6870  0.00  0.00     0.000 O
BRANCH 57 61
ATOM     58  C1  IDS C   4      32.377  29.879  15.3060  0.00  0.00     0.000 C
ATOM     59  C2  IDS C   4      31.006  29.520  14.8290  0.00  0.00     0.000 C
ATOM     60  C3  IDS C   4      29.911  30.363  15.4880  0.00  0.00     0.000 C
ATOM     61  C4  IDS C   4      30.254  31.817  15.7810  0.00  0.00     0.000 C
ATOM     62  C5  IDS C   4      31.747  31.970  16.0980  0.00  0.00     0.000 C
ATOM     63  O5  IDS C   4      32.558  31.277  15.1600  0.00  0.00     0.000 O
ATOM     64   O  IDS C   4      29.631  29.716  16.7160  0.00  0.00     0.000 O
ATOM     66  HD  IDS C   4      29.875  30.212  17.3820  0.00  0.00     0.000 HD
BRANCH 59 66
ATOM     66   O  IDS C   4      30.868  29.719  13.3740  0.00  0.00     0.000 O
ATOM     67   S  IDS C   4      30.693  28.407  12.4910  0.00  0.00     0.000 S
ATOM     68   O  IDS C   4      29.423  27.881  12.9320  0.00  0.00     0.000 OA
ATOM     69   O  IDS C   4      30.717  28.874  11.1190  0.00  0.00     0.000 OA
ATOM     70   O  IDS C   4      31.790  27.512  12.8270  0.00  0.00     0.000 OA
ENDBRANCH 59 66
BRANCH 62 71
ATOM     71   C  IDS C   4      32.218  33.411  16.0600  0.00  0.00     0.000 C
ATOM     72   O  IDS C   4      31.848  34.197  16.9110  0.00  0.00     0.000 OA
ATOM     73   O  IDS C   4      32.901  33.787  15.0860  0.00  0.00     0.000 OA
ENDBRANCH 62 71
BRANCH 58 74
ATOM     74  O4  SGN C   5      32.759  29.275  16.4670  0.00  0.00     0.000 O
BRANCH 74 78
ATOM     75  C1  SGN C   5      35.899  27.477  18.5540  0.00  0.00     0.000 C
ATOM     76  C2  SGN C   5      35.751  29.000  18.7350  0.00  0.00     0.000 C
ATOM     77  C3  SGN C   5      34.390  29.479  18.2120  0.00  0.00     0.000 C
ATOM     78  C4  SGN C   5      34.095  28.923  16.8260  0.00  0.00     0.000 C
ATOM     79  C5  SGN C   5      34.265  27.411  16.8390  0.00  0.00     0.000 C
ATOM     80  O5  SGN C   5      35.627  27.079  17.2160  0.00  0.00     0.000 O
ATOM     81   O  SGN C   5      34.379  30.903  18.1930  0.00  0.00     0.000 O
ATOM     83  HD  SGN C   5      34.769  31.369  18.8100  0.00  0.00     0.000 HD
BRANCH 76 85
ATOM     83   N  SGN C   5      35.881  29.269  20.1730  0.00  0.00     0.000 N
ATOM     85  HD  SGN C   5      36.193  29.720  20.8430  0.00  0.00     0.000 HD
ATOM     85   S  SGN C   5      37.186  29.684  21.0220  0.00  0.00     0.000 S
ATOM     86   O  SGN C   5      36.845  29.892  22.3860  0.00  0.00     0.000 OA
ATOM     87   O  SGN C   5      38.189  28.720  20.7460  0.00  0.00     0.000 OA
ATOM     88   O  SGN C   5      37.423  31.019  20.3180  0.00  0.00     0.000 OA
ENDBRANCH 76 85
BRANCH 79 89
ATOM     89   C  SGN C   5      33.968  26.759  15.5040  0.00  0.00     0.000 C
ATOM     90   O  SGN C   5      34.021  25.317  15.6410  0.00  0.00     0.000 O
ATOM     91   S  SGN C   5      33.050  24.467  14.6870  0.00  0.00     0.000 S
ATOM     92   O  SGN C   5      31.728  25.007  14.8680  0.00  0.00     0.000 OA
ATOM     93   O  SGN C   5      33.531  24.629  13.3390  0.00  0.00     0.000 OA
ATOM     94   O  SGN C   5      33.193  23.125  15.1830  0.00  0.00     0.000 OA
ENDBRANCH 79 89
BRANCH 75 95
ATOM     95  O4  BDP C   6      34.983  26.912  19.3960  0.00  0.00     0.000 O
BRANCH 95 99
ATOM     96  C1  BDP C   6      35.279  23.286  21.6790  0.00  0.00     0.000 C
ATOM     97  C2  BDP C   6      36.543  24.010  21.3070  0.00  0.00     0.000 C
ATOM     98  C3  BDP C   6      36.330  25.459  20.8410  0.00  0.00     0.000 C
ATOM     99  C4  BDP C   6      35.225  25.547  19.7990  0.00  0.00     0.000 C
ATOM    100  C5  BDP C   6      33.992  24.789  20.3440  0.00  0.00     0.000 C
ATOM    101  O5  BDP C   6      34.474  23.448  20.5260  0.00  0.00     0.000 O
BRANCH 100 102
ATOM    102   C  BDP C   6      32.854  24.743  19.3560  0.00  0.00     0.000 C
ATOM    103   O  BDP C   6      32.828  23.940  18.4130  0.00  0.00     0.000 OA
ATOM    104   O  BDP C   6      31.927  25.542  19.5350  0.00  0.00     0.000 OA
ENDBRANCH 100 102
ENDBRANCH 95 99
ENDBRANCH 75 95
ENDBRANCH 74 78
ENDBRANCH 58 74
ENDBRANCH 57 61
ENDBRANCH 37 57
ENDBRANCH 36 40
ENDBRANCH 23 36
ENDBRANCH 22 26
ENDBRANCH 1 22
TORSDOF 20
ENDMDL
MODEL 40
REMARK VINA RESULT:      -6.1     28.338     36.703
ROOT
ATOM      1  C1  NGY C   1      31.160   7.692  51.1570  0.00  0.00     0.000 C
ATOM      2  C2  NGY C   1      32.531   7.063  51.3650  0.00  0.00     0.000 C
ATOM      3  C3  NGY C   1      33.629   8.078  51.0620  0.00  0.00     0.000 C
ATOM      4  C4  NGY C   1      33.403   8.620  49.6640  0.00  0.00     0.000 C
ATOM      5  C5  NGY C   1      32.034   9.292  49.6140  0.00  0.00     0.000 C
ATOM      6  O5  NGY C   1      31.023   8.286  49.8840  0.00  0.00     0.000 O
ATOM      7   O  NGY C   1      34.895   7.448  51.1930  0.00  0.00     0.000 O
ATOM      9  HD  NGY C   1      35.240   6.671  51.0310  0.00  0.00     0.000 HD
ATOM      9   O  NGY C   1      34.417   9.549  49.3080  0.00  0.00     0.000 O
ATOM     11  HD  NGY C   1      34.761   8.771  49.1460  0.00  0.00     0.000 HD
ENDROOT
BRANCH 2 13
ATOM     11   N  NGY C   1      32.254   6.295  52.5560  0.00  0.00     0.000 N
ATOM     13  HD  NGY C   1      32.962   5.797  52.5620  0.00  0.00     0.000 HD
ATOM     13   C  NGY C   1      33.092   5.355  52.9910  0.00  0.00     0.000 C
ATOM     14   O  NGY C   1      34.063   5.007  52.3180  0.00  0.00     0.000 OA
ATOM     15   C  NGY C   1      32.807   4.773  54.3420  0.00  0.00     0.000 C
ENDBRANCH 2 13
BRANCH 5 16
ATOM     16   C  NGY C   1      31.667   9.889  48.2930  0.00  0.00     0.000 C
ATOM     17   O  NGY C   1      28.786   8.819  46.2890  0.00  0.00     0.000 OA
ATOM     18   O  NGY C   1      30.635   9.095  47.7000  0.00  0.00     0.000 O
ATOM     19   S  NGY C   1      29.817   9.790  46.5530  0.00  0.00     0.000 S
ATOM     20   O  NGY C   1      30.710   9.959  45.4360  0.00  0.00     0.000 OA
ATOM     21   O  NGY C   1      29.368  11.046  47.1320  0.00  0.00     0.000 OA
ENDBRANCH 5 16
BRANCH 1 22
ATOM     22  O4  BDP C   2      30.922   8.559  52.1630  0.00  0.00     0.000 O
BRANCH 22 26
ATOM     23  C1  BDP C   2      27.847   9.862  54.5750  0.00  0.00     0.000 C
ATOM     24  C2  BDP C   2      27.474   8.810  53.5570  0.00  0.00     0.000 C
ATOM     25  C3  BDP C   2      28.722   8.170  53.0100  0.00  0.00     0.000 C
ATOM     26  C4  BDP C   2      29.680   9.237  52.4910  0.00  0.00     0.000 C
ATOM     27  C5  BDP C   2      29.845  10.334  53.5350  0.00  0.00     0.000 C
ATOM     28  O5  BDP C   2      28.582  10.934  53.9220  0.00  0.00     0.000 O
ATOM     29   O  BDP C   2      26.762   7.718  54.1380  0.00  0.00     0.000 O
ATOM     31  HD  BDP C   2      26.921   6.933  53.8090  0.00  0.00     0.000 HD
ATOM     31   O  BDP C   2      28.318   7.317  51.9460  0.00  0.00     0.000 O
ATOM     33  HD  BDP C   2      28.477   6.532  51.6170  0.00  0.00     0.000 HD
BRANCH 27 33
ATOM     33   C  BDP C   2      30.707  11.473  53.0440  0.00  0.00     0.000 C
ATOM     34   O  BDP C   2      31.960  11.427  53.0870  0.00  0.00     0.000 OA
ATOM     35   O  BDP C   2      30.157  12.478  52.6250  0.00  0.00     0.000 OA
ENDBRANCH 27 33
BRANCH 23 36
ATOM     36  O4  SGN C   3      26.808  10.422  55.2370  0.00  0.00     0.000 O
BRANCH 36 40
ATOM     37  C1  SGN C   3      25.532  10.946  59.1770  0.00  0.00     0.000 C
ATOM     38  C2  SGN C   3      25.667  12.200  58.2970  0.00  0.00     0.000 C
ATOM     39  C3  SGN C   3      25.706  11.815  56.8260  0.00  0.00     0.000 C
ATOM     40  C4  SGN C   3      26.835  10.832  56.6070  0.00  0.00     0.000 C
ATOM     41  C5  SGN C   3      26.634   9.647  57.5250  0.00  0.00     0.000 C
ATOM     42  O5  SGN C   3      26.626  10.088  58.8920  0.00  0.00     0.000 O
ATOM     43   O  SGN C   3      25.890  12.986  56.0400  0.00  0.00     0.000 O
ATOM     45  HD  SGN C   3      26.211  12.298  55.6240  0.00  0.00     0.000 HD
BRANCH 38 47
ATOM     45   N  SGN C   3      24.457  12.972  58.6310  0.00  0.00     0.000 N
ATOM     47  HD  SGN C   3      24.813  12.298  58.2210  0.00  0.00     0.000 HD
ATOM     47   S  SGN C   3      24.707  13.985  59.8310  0.00  0.00     0.000 S
ATOM     48   O  SGN C   3      24.966  13.296  61.0450  0.00  0.00     0.000 OA
ATOM     49   O  SGN C   3      25.706  14.902  59.3890  0.00  0.00     0.000 OA
ATOM     50   O  SGN C   3      23.401  14.629  59.9530  0.00  0.00     0.000 OA
ENDBRANCH 38 47
BRANCH 41 51
ATOM     51   C  SGN C   3      27.695   8.586  57.4020  0.00  0.00     0.000 C
ATOM     52   O  SGN C   3      27.185   4.902  57.1930  0.00  0.00     0.000 OA
ATOM     53   O  SGN C   3      28.857   6.270  56.1620  0.00  0.00     0.000 OA
ATOM     54   O  SGN C   3      28.768   6.051  58.5510  0.00  0.00     0.000 OA
ATOM     55   O  SGN C   3      27.069   7.326  57.3030  0.00  0.00     0.000 O
ATOM     56   S  SGN C   3      28.064   6.015  57.3040  0.00  0.00     0.000 S
ENDBRANCH 41 51
BRANCH 37 57
ATOM     57  O4  IDS C   4      24.386  10.247  58.9940  0.00  0.00     0.000 O
BRANCH 57 61
ATOM     58  C1  IDS C   4      20.982   9.117  60.2620  0.00  0.00     0.000 C
ATOM     59  C2  IDS C   4      21.443  10.503  60.5820  0.00  0.00     0.000 C
ATOM     60  C3  IDS C   4      22.932  10.566  60.9330  0.00  0.00     0.000 C
ATOM     61  C4  IDS C   4      23.851   9.619  60.1740  0.00  0.00     0.000 C
ATOM     62  C5  IDS C   4      23.119   8.319  59.8200  0.00  0.00     0.000 C
ATOM     63  O5  IDS C   4      21.834   8.571  59.2690  0.00  0.00     0.000 O
ATOM     64   O  IDS C   4      23.003  10.248  62.3100  0.00  0.00     0.000 O
ATOM     66  HD  IDS C   4      23.403   9.489  62.4260  0.00  0.00     0.000 HD
BRANCH 59 66
ATOM     66   O  IDS C   4      21.244  11.417  59.4410  0.00  0.00     0.000 O
ATOM     67   S  IDS C   4      20.152  12.560  59.6270  0.00  0.00     0.000 S
ATOM     68   O  IDS C   4      20.705  13.374  60.6830  0.00  0.00     0.000 OA
ATOM     69   O  IDS C   4      20.067  13.210  58.3350  0.00  0.00     0.000 OA
ATOM     70   O  IDS C   4      18.917  11.911  60.0410  0.00  0.00     0.000 OA
ENDBRANCH 59 66
BRANCH 62 71
ATOM     71   C  IDS C   4      23.851   7.488  58.7840  0.00  0.00     0.000 C
ATOM     72   O  IDS C   4      23.404   7.383  57.6580  0.00  0.00     0.000 OA
ATOM     73   O  IDS C   4      24.854   6.839  59.1440  0.00  0.00     0.000 OA
ENDBRANCH 62 71
BRANCH 58 74
ATOM     74  O4  SGN C   5      20.650   8.357  61.3450  0.00  0.00     0.000 O
BRANCH 74 78
ATOM     75  C1  SGN C   5      18.985   4.757  62.6530  0.00  0.00     0.000 C
ATOM     76  C2  SGN C   5      20.509   4.756  62.4330  0.00  0.00     0.000 C
ATOM     77  C3  SGN C   5      21.038   6.190  62.2930  0.00  0.00     0.000 C
ATOM     78  C4  SGN C   5      20.206   7.001  61.3100  0.00  0.00     0.000 C
ATOM     79  C5  SGN C   5      18.736   6.910  61.6930  0.00  0.00     0.000 C
ATOM     80  O5  SGN C   5      18.312   5.521  61.6600  0.00  0.00     0.000 O
ATOM     81   O  SGN C   5      22.399   6.141  61.8750  0.00  0.00     0.000 O
ATOM     83  HD  SGN C   5      22.941   5.530  62.1620  0.00  0.00     0.000 HD
BRANCH 76 85
ATOM     83   N  SGN C   5      21.588   3.851  62.8510  0.00  0.00     0.000 N
ATOM     85  HD  SGN C   5      21.906   3.063  63.0180  0.00  0.00     0.000 HD
ATOM     85   S  SGN C   5      21.521   2.549  63.7970  0.00  0.00     0.000 S
ATOM     86   O  SGN C   5      22.803   1.943  63.8990  0.00  0.00     0.000 OA
ATOM     87   O  SGN C   5      20.894   2.943  65.0080  0.00  0.00     0.000 OA
ATOM     88   O  SGN C   5      20.610   1.729  62.8860  0.00  0.00     0.000 OA
ENDBRANCH 76 85
BRANCH 79 89
ATOM     89   C  SGN C   5      17.824   7.708  60.7840  0.00  0.00     0.000 C
ATOM     90   O  SGN C   5      16.441   7.399  61.0840  0.00  0.00     0.000 O
ATOM     91   S  SGN C   5      15.374   8.577  60.8610  0.00  0.00     0.000 S
ATOM     92   O  SGN C   5      15.871   9.717  61.5850  0.00  0.00     0.000 OA
ATOM     93   O  SGN C   5      15.298   8.816  59.4420  0.00  0.00     0.000 OA
ATOM     94   O  SGN C   5      14.162   8.034  61.4100  0.00  0.00     0.000 OA
ENDBRANCH 79 89
BRANCH 75 95
ATOM     95  O4  BDP C   6      18.786   5.323  63.8800  0.00  0.00     0.000 O
BRANCH 95 99
ATOM     96  C1  BDP C   6      15.710   4.652  66.8010  0.00  0.00     0.000 C
ATOM     97  C2  BDP C   6      16.185   3.491  65.9740  0.00  0.00     0.000 C
ATOM     98  C3  BDP C   6      17.519   3.732  65.2500  0.00  0.00     0.000 C
ATOM     99  C4  BDP C   6      17.517   5.066  64.5180  0.00  0.00     0.000 C
ATOM    100  C5  BDP C   6      17.041   6.154  65.5100  0.00  0.00     0.000 C
ATOM    101  O5  BDP C   6      15.720   5.722  65.8750  0.00  0.00     0.000 O
BRANCH 100 102
ATOM    102   C  BDP C   6      16.925   7.514  64.8690  0.00  0.00     0.000 C
ATOM    103   O  BDP C   6      17.871   8.313  64.8360  0.00  0.00     0.000 OA
ATOM    104   O  BDP C   6      15.835   7.800  64.3580  0.00  0.00     0.000 OA
ENDBRANCH 100 102
ENDBRANCH 95 99
ENDBRANCH 75 95
ENDBRANCH 74 78
ENDBRANCH 58 74
ENDBRANCH 57 61
ENDBRANCH 37 57
ENDBRANCH 36 40
ENDBRANCH 23 36
ENDBRANCH 22 26
ENDBRANCH 1 22
TORSDOF 20
ENDMDL
MODEL 41
REMARK VINA RESULT:      -6.0     13.004     16.048
ROOT
ATOM      1  C1  NGY C   1      26.497  32.518  10.5290  0.00  0.00     0.000 C
ATOM      2  C2  NGY C   1      26.532  32.056   9.0780  0.00  0.00     0.000 C
ATOM      3  C3  NGY C   1      27.628  32.794   8.3150  0.00  0.00     0.000 C
ATOM      4  C4  NGY C   1      27.405  34.284   8.4850  0.00  0.00     0.000 C
ATOM      5  C5  NGY C   1      27.476  34.624   9.9710  0.00  0.00     0.000 C
ATOM      6  O5  NGY C   1      26.403  33.921  10.6500  0.00  0.00     0.000 O
ATOM      7   O  NGY C   1      27.593  32.400   6.9510  0.00  0.00     0.000 O
ATOM      9  HD  NGY C   1      26.992  32.194   6.3630  0.00  0.00     0.000 HD
ATOM      9   O  NGY C   1      28.378  35.029   7.7670  0.00  0.00     0.000 O
ATOM     11  HD  NGY C   1      27.777  34.823   7.1780  0.00  0.00     0.000 HD
ENDROOT
BRANCH 2 13
ATOM     11   N  NGY C   1      26.285  30.648   9.2820  0.00  0.00     0.000 N
ATOM     13  HD  NGY C   1      26.134  30.418   8.4610  0.00  0.00     0.000 HD
ATOM     13   C  NGY C   1      25.992  29.837   8.2670  0.00  0.00     0.000 C
ATOM     14   O  NGY C   1      25.781  30.280   7.1370  0.00  0.00     0.000 OA
ATOM     15   C  NGY C   1      25.963  28.369   8.5660  0.00  0.00     0.000 C
ENDBRANCH 2 13
BRANCH 5 16
ATOM     16   C  NGY C   1      27.283  36.070  10.3020  0.00  0.00     0.000 C
ATOM     17   O  NGY C   1      29.963  38.275  11.4910  0.00  0.00     0.000 OA
ATOM     18   O  NGY C   1      28.469  36.559  10.9330  0.00  0.00     0.000 O
ATOM     19   S  NGY C   1      28.637  38.121  10.9480  0.00  0.00     0.000 S
ATOM     20   O  NGY C   1      27.622  38.650  11.8210  0.00  0.00     0.000 OA
ATOM     21   O  NGY C   1      28.473  38.520   9.5590  0.00  0.00     0.000 OA
ENDBRANCH 5 16
BRANCH 1 22
ATOM     22  O4  BDP C   2      27.570  32.012  11.1710  0.00  0.00     0.000 O
BRANCH 22 26
ATOM     23  C1  BDP C   2      29.356  30.475  14.5500  0.00  0.00     0.000 C
ATOM     24  C2  BDP C   2      28.075  29.796  14.1260  0.00  0.00     0.000 C
ATOM     25  C3  BDP C   2      27.734  30.196  12.7140  0.00  0.00     0.000 C
ATOM     26  C4  BDP C   2      27.715  31.715  12.5860  0.00  0.00     0.000 C
ATOM     27  C5  BDP C   2      28.977  32.303  13.2030  0.00  0.00     0.000 C
ATOM     28  O5  BDP C   2      29.155  31.916  14.5900  0.00  0.00     0.000 O
ATOM     29   O  BDP C   2      28.211  28.377  14.0510  0.00  0.00     0.000 O
ATOM     31  HD  BDP C   2      27.771  27.979  13.4200  0.00  0.00     0.000 HD
ATOM     31   O  BDP C   2      26.445  29.665  12.4340  0.00  0.00     0.000 O
ATOM     33  HD  BDP C   2      26.006  29.267  11.8030  0.00  0.00     0.000 HD
BRANCH 27 33
ATOM     33   C  BDP C   2      28.974  33.813  13.1960  0.00  0.00     0.000 C
ATOM     34   O  BDP C   2      29.998  34.479  12.9090  0.00  0.00     0.000 OA
ATOM     35   O  BDP C   2      27.950  34.393  13.5140  0.00  0.00     0.000 OA
ENDBRANCH 27 33
BRANCH 23 36
ATOM     36  O4  SGN C   3      29.841  30.096  15.7560  0.00  0.00     0.000 O
BRANCH 36 40
ATOM     37  C1  SGN C   3      33.276  29.207  17.9550  0.00  0.00     0.000 C
ATOM     38  C2  SGN C   3      32.914  30.688  17.7650  0.00  0.00     0.000 C
ATOM     39  C3  SGN C   3      31.458  30.831  17.3450  0.00  0.00     0.000 C
ATOM     40  C4  SGN C   3      31.229  30.015  16.0920  0.00  0.00     0.000 C
ATOM     41  C5  SGN C   3      31.631  28.582  16.3620  0.00  0.00     0.000 C
ATOM     42  O5  SGN C   3      33.017  28.530  16.7350  0.00  0.00     0.000 O
ATOM     43   O  SGN C   3      31.168  32.205  17.1190  0.00  0.00     0.000 O
ATOM     45  HD  SGN C   3      30.648  31.710  16.6350  0.00  0.00     0.000 HD
BRANCH 38 47
ATOM     45   N  SGN C   3      34.349  30.768  18.0890  0.00  0.00     0.000 N
ATOM     47  HD  SGN C   3      33.728  30.507  17.5440  0.00  0.00     0.000 HD
ATOM     47   S  SGN C   3      34.643  31.814  19.2490  0.00  0.00     0.000 S
ATOM     48   O  SGN C   3      34.357  33.142  18.8330  0.00  0.00     0.000 OA
ATOM     49   O  SGN C   3      33.956  31.343  20.4070  0.00  0.00     0.000 OA
ATOM     50   O  SGN C   3      36.092  31.695  19.3960  0.00  0.00     0.000 OA
ENDBRANCH 38 47
BRANCH 41 51
ATOM     51   C  SGN C   3      31.446  27.659  15.1880  0.00  0.00     0.000 C
ATOM     52   O  SGN C   3      32.474  28.265  11.6590  0.00  0.00     0.000 OA
ATOM     53   O  SGN C   3      32.408  26.217  12.8970  0.00  0.00     0.000 OA
ATOM     54   O  SGN C   3      30.382  27.411  12.4120  0.00  0.00     0.000 OA
ATOM     55   O  SGN C   3      32.023  28.253  14.0460  0.00  0.00     0.000 O
ATOM     56   S  SGN C   3      31.799  27.462  12.6210  0.00  0.00     0.000 S
ENDBRANCH 41 51
BRANCH 37 57
ATOM     57  O4  IDS C   4      32.590  28.579  18.9420  0.00  0.00     0.000 O
BRANCH 57 61
ATOM     58  C1  IDS C   4      32.154  26.555  22.1330  0.00  0.00     0.000 C
ATOM     59  C2  IDS C   4      32.833  27.885  22.2140  0.00  0.00     0.000 C
ATOM     60  C3  IDS C   4      33.775  28.141  21.0340  0.00  0.00     0.000 C
ATOM     61  C4  IDS C   4      33.338  27.595  19.6820  0.00  0.00     0.000 C
ATOM     62  C5  IDS C   4      32.527  26.305  19.8540  0.00  0.00     0.000 C
ATOM     63  O5  IDS C   4      31.536  26.436  20.8630  0.00  0.00     0.000 O
ATOM     64   O  IDS C   4      34.996  27.520  21.3920  0.00  0.00     0.000 O
ATOM     66  HD  IDS C   4      35.156  26.845  20.8730  0.00  0.00     0.000 HD
BRANCH 59 66
ATOM     66   O  IDS C   4      31.859  28.993  22.2180  0.00  0.00     0.000 O
ATOM     67   S  IDS C   4      31.615  29.720  23.6120  0.00  0.00     0.000 S
ATOM     68   O  IDS C   4      32.893  30.329  23.8920  0.00  0.00     0.000 OA
ATOM     69   O  IDS C   4      30.535  30.654  23.3620  0.00  0.00     0.000 OA
ATOM     70   O  IDS C   4      31.287  28.689  24.5840  0.00  0.00     0.000 OA
ENDBRANCH 59 66
BRANCH 62 71
ATOM     71   C  IDS C   4      31.779  25.902  18.5970  0.00  0.00     0.000 C
ATOM     72   O  IDS C   4      30.567  25.990  18.5530  0.00  0.00     0.000 OA
ATOM     73   O  IDS C   4      32.424  25.385  17.6620  0.00  0.00     0.000 OA
ENDBRANCH 62 71
BRANCH 58 74
ATOM     74  O4  SGN C   5      32.878  25.509  22.6220  0.00  0.00     0.000 O
BRANCH 74 78
ATOM     75  C1  SGN C   5      32.756  21.762  24.4630  0.00  0.00     0.000 C
ATOM     76  C2  SGN C   5      32.568  21.770  22.9340  0.00  0.00     0.000 C
ATOM     77  C3  SGN C   5      32.970  23.129  22.3450  0.00  0.00     0.000 C
ATOM     78  C4  SGN C   5      32.344  24.282  23.1180  0.00  0.00     0.000 C
ATOM     79  C5  SGN C   5      32.651  24.125  24.6000  0.00  0.00     0.000 C
ATOM     80  O5  SGN C   5      32.106  22.866  25.0780  0.00  0.00     0.000 O
ATOM     81   O  SGN C   5      32.578  23.173  20.9770  0.00  0.00     0.000 O
ATOM     83  HD  SGN C   5      32.626  22.475  20.4670  0.00  0.00     0.000 HD
BRANCH 76 85
ATOM     83   N  SGN C   5      32.573  20.709  21.9190  0.00  0.00     0.000 N
ATOM     85  HD  SGN C   5      32.444  19.892  21.6630  0.00  0.00     0.000 HD
ATOM     85   S  SGN C   5      33.038  19.173  22.0470  0.00  0.00     0.000 S
ATOM     86   O  SGN C   5      32.828  18.485  20.8210  0.00  0.00     0.000 OA
ATOM     87   O  SGN C   5      34.358  19.177  22.5670  0.00  0.00     0.000 OA
ATOM     88   O  SGN C   5      31.987  18.767  23.0780  0.00  0.00     0.000 OA
ENDBRANCH 76 85
BRANCH 79 89
ATOM     89   C  SGN C   5      32.088  25.242  25.4550  0.00  0.00     0.000 C
ATOM     90   O  SGN C   5      32.125  24.857  26.8510  0.00  0.00     0.000 O
ATOM     91   S  SGN C   5      32.330  26.037  27.9190  0.00  0.00     0.000 S
ATOM     92   O  SGN C   5      33.498  26.766  27.5000  0.00  0.00     0.000 OA
ATOM     93   O  SGN C   5      31.138  26.845  27.8920  0.00  0.00     0.000 OA
ATOM     94   O  SGN C   5      32.510  25.332  29.1600  0.00  0.00     0.000 OA
ENDBRANCH 79 89
BRANCH 75 95
ATOM     95  O4  BDP C   6      34.104  21.848  24.6720  0.00  0.00     0.000 O
BRANCH 95 99
ATOM     96  C1  BDP C   6      36.572  20.159  27.7540  0.00  0.00     0.000 C
ATOM     97  C2  BDP C   6      35.397  19.365  27.2550  0.00  0.00     0.000 C
ATOM     98  C3  BDP C   6      34.818  19.862  25.9210  0.00  0.00     0.000 C
ATOM     99  C4  BDP C   6      34.598  21.367  25.9410  0.00  0.00     0.000 C
ATOM    100  C5  BDP C   6      35.901  22.035  26.4400  0.00  0.00     0.000 C
ATOM    101  O5  BDP C   6      36.078  21.485  27.7560  0.00  0.00     0.000 O
BRANCH 100 102
ATOM    102   C  BDP C   6      35.773  23.531  26.5750  0.00  0.00     0.000 C
ATOM    103   O  BDP C   6      36.152  24.310  25.6890  0.00  0.00     0.000 OA
ATOM    104   O  BDP C   6      35.256  23.956  27.6150  0.00  0.00     0.000 OA
ENDBRANCH 100 102
ENDBRANCH 95 99
ENDBRANCH 75 95
ENDBRANCH 74 78
ENDBRANCH 58 74
ENDBRANCH 57 61
ENDBRANCH 37 57
ENDBRANCH 36 40
ENDBRANCH 23 36
ENDBRANCH 22 26
ENDBRANCH 1 22
TORSDOF 20
ENDMDL
MODEL 42
REMARK VINA RESULT:      -6.0     14.667     19.238
ROOT
ATOM      1  C1  NGY C   1      27.000  43.661  11.3010  0.00  0.00     0.000 C
ATOM      2  C2  NGY C   1      25.796  44.522  11.6550  0.00  0.00     0.000 C
ATOM      3  C3  NGY C   1      24.568  44.058  10.8790  0.00  0.00     0.000 C
ATOM      4  C4  NGY C   1      24.912  44.054   9.4020  0.00  0.00     0.000 C
ATOM      5  C5  NGY C   1      26.076  43.093   9.1730  0.00  0.00     0.000 C
ATOM      6  O5  NGY C   1      27.225  43.587   9.9090  0.00  0.00     0.000 O
ATOM      7   O  NGY C   1      23.478  44.920  11.1700  0.00  0.00     0.000 O
ATOM      9  HD  NGY C   1      23.356  45.764  11.3240  0.00  0.00     0.000 HD
ATOM      9   O  NGY C   1      23.794  43.661   8.6200  0.00  0.00     0.000 O
ATOM     11  HD  NGY C   1      23.672  44.504   8.7730  0.00  0.00     0.000 HD
ENDROOT
BRANCH 2 13
ATOM     11   N  NGY C   1      25.865  44.550  13.0970  0.00  0.00     0.000 N
ATOM     13  HD  NGY C   1      25.461  45.303  13.2370  0.00  0.00     0.000 HD
ATOM     13   C  NGY C   1      25.357  45.560  13.8020  0.00  0.00     0.000 C
ATOM     14   O  NGY C   1      24.937  46.576  13.2460  0.00  0.00     0.000 OA
ATOM     15   C  NGY C   1      25.300  45.382  15.2880  0.00  0.00     0.000 C
ENDBRANCH 2 13
BRANCH 5 16
ATOM     16   C  NGY C   1      26.529  42.971   7.7530  0.00  0.00     0.000 C
ATOM     17   O  NGY C   1      26.213  45.646   5.2630  0.00  0.00     0.000 OA
ATOM     18   O  NGY C   1      26.060  44.106   7.0210  0.00  0.00     0.000 O
ATOM     19   S  NGY C   1      26.791  44.387   5.6590  0.00  0.00     0.000 S
ATOM     20   O  NGY C   1      26.443  43.317   4.7610  0.00  0.00     0.000 OA
ATOM     21   O  NGY C   1      28.203  44.421   6.0020  0.00  0.00     0.000 OA
ENDBRANCH 5 16
BRANCH 1 22
ATOM     22  O4  BDP C   2      26.847  42.446  11.8680  0.00  0.00     0.000 O
BRANCH 22 26
ATOM     23  C1  BDP C   2      28.406  38.993  13.4850  0.00  0.00     0.000 C
ATOM     24  C2  BDP C   2      28.873  40.279  14.1240  0.00  0.00     0.000 C
ATOM     25  C3  BDP C   2      27.973  41.411  13.7020  0.00  0.00     0.000 C
ATOM     26  C4  BDP C   2      27.870  41.464  12.1810  0.00  0.00     0.000 C
ATOM     27  C5  BDP C   2      27.566  40.075  11.6350  0.00  0.00     0.000 C
ATOM     28  O5  BDP C   2      28.548  39.086  12.0400  0.00  0.00     0.000 O
ATOM     29   O  BDP C   2      28.744  40.259  15.5460  0.00  0.00     0.000 O
ATOM     31  HD  BDP C   2      28.525  41.006  15.9260  0.00  0.00     0.000 HD
ATOM     31   O  BDP C   2      28.558  42.610  14.1950  0.00  0.00     0.000 O
ATOM     33  HD  BDP C   2      28.339  43.357  14.5740  0.00  0.00     0.000 HD
BRANCH 27 33
ATOM     33   C  BDP C   2      27.547  40.040  10.1250  0.00  0.00     0.000 C
ATOM     34   O  BDP C   2      28.497  40.485   9.4370  0.00  0.00     0.000 OA
ATOM     35   O  BDP C   2      26.558  39.595   9.5670  0.00  0.00     0.000 OA
ENDBRANCH 27 33
BRANCH 23 36
ATOM     36  O4  SGN C   3      29.054  37.876  13.8890  0.00  0.00     0.000 O
BRANCH 36 40
ATOM     37  C1  SGN C   3      28.674  33.858  14.9590  0.00  0.00     0.000 C
ATOM     38  C2  SGN C   3      28.317  34.250  13.5150  0.00  0.00     0.000 C
ATOM     39  C3  SGN C   3      28.911  35.608  13.1700  0.00  0.00     0.000 C
ATOM     40  C4  SGN C   3      28.426  36.625  14.1810  0.00  0.00     0.000 C
ATOM     41  C5  SGN C   3      28.798  36.149  15.5680  0.00  0.00     0.000 C
ATOM     42  O5  SGN C   3      28.189  34.874  15.8230  0.00  0.00     0.000 O
ATOM     43   O  SGN C   3      28.517  35.971  11.8530  0.00  0.00     0.000 O
ATOM     45  HD  SGN C   3      28.661  36.683  12.3240  0.00  0.00     0.000 HD
BRANCH 38 47
ATOM     45   N  SGN C   3      27.400  33.461  12.6740  0.00  0.00     0.000 N
ATOM     47  HD  SGN C   3      27.654  34.237  12.9630  0.00  0.00     0.000 HD
ATOM     47   S  SGN C   3      27.908  31.969  12.4720  0.00  0.00     0.000 S
ATOM     48   O  SGN C   3      29.112  31.930  11.7190  0.00  0.00     0.000 OA
ATOM     49   O  SGN C   3      27.943  31.370  13.7660  0.00  0.00     0.000 OA
ATOM     50   O  SGN C   3      26.845  31.402  11.6440  0.00  0.00     0.000 OA
ENDBRANCH 38 47
BRANCH 41 51
ATOM     51   C  SGN C   3      28.374  37.079  16.6720  0.00  0.00     0.000 C
ATOM     52   O  SGN C   3      26.442  36.210  19.7360  0.00  0.00     0.000 OA
ATOM     53   O  SGN C   3      28.171  37.838  19.4350  0.00  0.00     0.000 OA
ATOM     54   O  SGN C   3      26.072  38.067  18.2920  0.00  0.00     0.000 OA
ATOM     55   O  SGN C   3      27.707  36.333  17.6650  0.00  0.00     0.000 O
ATOM     56   S  SGN C   3      27.035  37.194  18.8960  0.00  0.00     0.000 S
ENDBRANCH 41 51
BRANCH 37 57
ATOM     57  O4  IDS C   4      30.000  33.702  15.1910  0.00  0.00     0.000 O
BRANCH 57 61
ATOM     58  C1  IDS C   4      32.225  31.074  16.8070  0.00  0.00     0.000 C
ATOM     59  C2  IDS C   4      30.801  30.726  16.5130  0.00  0.00     0.000 C
ATOM     60  C3  IDS C   4      29.837  31.878  16.8100  0.00  0.00     0.000 C
ATOM     61  C4  IDS C   4      30.348  33.283  16.5250  0.00  0.00     0.000 C
ATOM     62  C5  IDS C   4      31.862  33.367  16.7490  0.00  0.00     0.000 C
ATOM     63  O5  IDS C   4      32.546  32.282  16.1390  0.00  0.00     0.000 O
ATOM     64   O  IDS C   4      29.553  31.778  18.1930  0.00  0.00     0.000 O
ATOM     66  HD  IDS C   4      29.883  32.456  18.6190  0.00  0.00     0.000 HD
BRANCH 59 66
ATOM     66   O  IDS C   4      30.609  30.377  15.0920  0.00  0.00     0.000 O
ATOM     67   S  IDS C   4      30.211  28.868  14.7780  0.00  0.00     0.000 S
ATOM     68   O  IDS C   4      28.909  28.739  15.3870  0.00  0.00     0.000 OA
ATOM     69   O  IDS C   4      30.221  28.773  13.3320  0.00  0.00     0.000 OA
ATOM     70   O  IDS C   4      31.195  28.019  15.4310  0.00  0.00     0.000 OA
ENDBRANCH 59 66
BRANCH 62 71
ATOM     71   C  IDS C   4      32.481  34.622  16.1620  0.00  0.00     0.000 C
ATOM     72   O  IDS C   4      32.177  35.714  16.6000  0.00  0.00     0.000 OA
ATOM     73   O  IDS C   4      33.220  34.509  15.1640  0.00  0.00     0.000 OA
ENDBRANCH 62 71
BRANCH 58 74
ATOM     74  O4  SGN C   5      32.600  30.911  18.1070  0.00  0.00     0.000 O
BRANCH 74 78
ATOM     75  C1  SGN C   5      35.592  29.574  20.6970  0.00  0.00     0.000 C
ATOM     76  C2  SGN C   5      35.681  31.051  20.2670  0.00  0.00     0.000 C
ATOM     77  C3  SGN C   5      34.369  31.505  19.6140  0.00  0.00     0.000 C
ATOM     78  C4  SGN C   5      33.894  30.513  18.5610  0.00  0.00     0.000 C
ATOM     79  C5  SGN C   5      33.843  29.118  19.1650  0.00  0.00     0.000 C
ATOM     80  O5  SGN C   5      35.167  28.740  19.6270  0.00  0.00     0.000 O
ATOM     81   O  SGN C   5      34.562  32.792  19.0360  0.00  0.00     0.000 O
ATOM     83  HD  SGN C   5      35.061  33.390  19.4160  0.00  0.00     0.000 HD
BRANCH 76 85
ATOM     83   N  SGN C   5      36.052  31.519  21.6080  0.00  0.00     0.000 N
ATOM     85  HD  SGN C   5      36.381  32.109  22.1510  0.00  0.00     0.000 HD
ATOM     85   S  SGN C   5      37.365  32.322  22.0840  0.00  0.00     0.000 S
ATOM     86   O  SGN C   5      37.292  32.614  23.4740  0.00  0.00     0.000 OA
ATOM     87   O  SGN C   5      38.492  31.584  21.6380  0.00  0.00     0.000 OA
ATOM     88   O  SGN C   5      37.100  33.577  21.2560  0.00  0.00     0.000 OA
ENDBRANCH 76 85
BRANCH 79 89
ATOM     89   C  SGN C   5      33.356  28.058  18.1980  0.00  0.00     0.000 C
ATOM     90   O  SGN C   5      33.323  26.769  18.8590  0.00  0.00     0.000 O
ATOM     91   S  SGN C   5      32.196  25.737  18.3690  0.00  0.00     0.000 S
ATOM     92   O  SGN C   5      30.943  26.442  18.4340  0.00  0.00     0.000 OA
ATOM     93   O  SGN C   5      32.537  25.344  17.0250  0.00  0.00     0.000 OA
ATOM     94   O  SGN C   5      32.298  24.662  19.3180  0.00  0.00     0.000 OA
ENDBRANCH 79 89
BRANCH 75 95
ATOM     95  O4  BDP C   6      34.669  29.535  21.7040  0.00  0.00     0.000 O
BRANCH 95 99
ATOM     96  C1  BDP C   6      34.223  26.635  24.8400  0.00  0.00     0.000 C
ATOM     97  C2  BDP C   6      35.574  26.809  24.2060  0.00  0.00     0.000 C
ATOM     98  C3  BDP C   6      35.728  28.101  23.3880  0.00  0.00     0.000 C
ATOM     99  C4  BDP C   6      34.556  28.296  22.4370  0.00  0.00     0.000 C
ATOM    100  C5  BDP C   6      33.250  28.120  23.2450  0.00  0.00     0.000 C
ATOM    101  O5  BDP C   6      33.340  26.775  23.7420  0.00  0.00     0.000 O
BRANCH 100 102
ATOM    102   C  BDP C   6      32.016  28.215  22.3840  0.00  0.00     0.000 C
ATOM    103   O  BDP C   6      31.665  27.299  21.6260  0.00  0.00     0.000 OA
ATOM    104   O  BDP C   6      31.350  29.254  22.4740  0.00  0.00     0.000 OA
ENDBRANCH 100 102
ENDBRANCH 95 99
ENDBRANCH 75 95
ENDBRANCH 74 78
ENDBRANCH 58 74
ENDBRANCH 57 61
ENDBRANCH 37 57
ENDBRANCH 36 40
ENDBRANCH 23 36
ENDBRANCH 22 26
ENDBRANCH 1 22
TORSDOF 20
ENDMDL
MODEL 43
REMARK VINA RESULT:      -5.9     13.320     16.395
ROOT
ATOM      1  C1  NGY C   1      26.315  31.859  10.0770  0.00  0.00     0.000 C
ATOM      2  C2  NGY C   1      26.438  31.540   8.5940  0.00  0.00     0.000 C
ATOM      3  C3  NGY C   1      27.574  32.345   7.9730  0.00  0.00     0.000 C
ATOM      4  C4  NGY C   1      27.336  33.813   8.2720  0.00  0.00     0.000 C
ATOM      5  C5  NGY C   1      27.316  34.008   9.7850  0.00  0.00     0.000 C
ATOM      6  O5  NGY C   1      26.208  33.244  10.3280  0.00  0.00     0.000 O
ATOM      7   O  NGY C   1      27.622  32.086   6.5770  0.00  0.00     0.000 O
ATOM      9  HD  NGY C   1      27.058  31.939   5.9370  0.00  0.00     0.000 HD
ATOM      9   O  NGY C   1      28.347  34.622   7.6880  0.00  0.00     0.000 O
ATOM     11  HD  NGY C   1      27.783  34.475   7.0480  0.00  0.00     0.000 HD
ENDROOT
BRANCH 2 13
ATOM     11   N  NGY C   1      26.249  30.109   8.6370  0.00  0.00     0.000 N
ATOM     13  HD  NGY C   1      26.082  29.970   7.7990  0.00  0.00     0.000 HD
ATOM     13   C  NGY C   1      25.956  29.410   7.5420  0.00  0.00     0.000 C
ATOM     14   O  NGY C   1      25.693  29.973   6.4780  0.00  0.00     0.000 OA
ATOM     15   C  NGY C   1      25.991  27.917   7.6670  0.00  0.00     0.000 C
ENDBRANCH 2 13
BRANCH 5 16
ATOM     16   C  NGY C   1      27.099  35.415  10.2420  0.00  0.00     0.000 C
ATOM     17   O  NGY C   1      29.806  37.817  10.8410  0.00  0.00     0.000 OA
ATOM     18   O  NGY C   1      28.364  35.990  10.5790  0.00  0.00     0.000 O
ATOM     19   S  NGY C   1      28.402  37.559  10.6460  0.00  0.00     0.000 S
ATOM     20   O  NGY C   1      27.609  37.956  11.7800  0.00  0.00     0.000 OA
ATOM     21   O  NGY C   1      27.851  37.993   9.3720  0.00  0.00     0.000 OA
ENDBRANCH 5 16
BRANCH 1 22
ATOM     22  O4  BDP C   2      27.350  31.291  10.7310  0.00  0.00     0.000 O
BRANCH 22 26
ATOM     23  C1  BDP C   2      29.021  29.599  14.0940  0.00  0.00     0.000 C
ATOM     24  C2  BDP C   2      27.883  28.824  13.4740  0.00  0.00     0.000 C
ATOM     25  C3  BDP C   2      27.617  29.341  12.0840  0.00  0.00     0.000 C
ATOM     26  C4  BDP C   2      27.408  30.852  12.1140  0.00  0.00     0.000 C
ATOM     27  C5  BDP C   2      28.523  31.512  12.9150  0.00  0.00     0.000 C
ATOM     28  O5  BDP C   2      28.628  30.990  14.2640  0.00  0.00     0.000 O
ATOM     29   O  BDP C   2      28.210  27.450  13.2640  0.00  0.00     0.000 O
ATOM     31  HD  BDP C   2      27.884  27.078  12.5530  0.00  0.00     0.000 HD
ATOM     31   O  BDP C   2      26.438  28.694  11.6210  0.00  0.00     0.000 O
ATOM     33  HD  BDP C   2      26.112  28.322  10.9100  0.00  0.00     0.000 HD
BRANCH 27 33
ATOM     33   C  BDP C   2      28.322  33.001  13.0650  0.00  0.00     0.000 C
ATOM     34   O  BDP C   2      27.217  33.493  13.3980  0.00  0.00     0.000 OA
ATOM     35   O  BDP C   2      29.260  33.741  12.8200  0.00  0.00     0.000 OA
ENDBRANCH 27 33
BRANCH 23 36
ATOM     36  O4  SGN C   3      29.445  29.144  15.2960  0.00  0.00     0.000 O
BRANCH 36 40
ATOM     37  C1  SGN C   3      32.516  29.317  18.1180  0.00  0.00     0.000 C
ATOM     38  C2  SGN C   3      31.370  30.334  18.2470  0.00  0.00     0.000 C
ATOM     39  C3  SGN C   3      30.158  29.873  17.4510  0.00  0.00     0.000 C
ATOM     40  C4  SGN C   3      30.574  29.650  16.0120  0.00  0.00     0.000 C
ATOM     41  C5  SGN C   3      31.716  28.658  15.9830  0.00  0.00     0.000 C
ATOM     42  O5  SGN C   3      32.823  29.171  16.7410  0.00  0.00     0.000 O
ATOM     43   O  SGN C   3      29.137  30.859  17.5380  0.00  0.00     0.000 O
ATOM     45  HD  SGN C   3      29.058  30.417  16.7980  0.00  0.00     0.000 HD
BRANCH 38 47
ATOM     45   N  SGN C   3      32.437  31.016  19.0010  0.00  0.00     0.000 N
ATOM     47  HD  SGN C   3      32.141  30.723  18.2420  0.00  0.00     0.000 HD
ATOM     47   S  SGN C   3      31.954  31.460  20.4490  0.00  0.00     0.000 S
ATOM     48   O  SGN C   3      30.951  32.462  20.3760  0.00  0.00     0.000 OA
ATOM     49   O  SGN C   3      31.615  30.265  21.1500  0.00  0.00     0.000 OA
ATOM     50   O  SGN C   3      33.163  32.077  20.9900  0.00  0.00     0.000 OA
ENDBRANCH 38 47
BRANCH 41 51
ATOM     51   C  SGN C   3      32.223  28.344  14.6020  0.00  0.00     0.000 C
ATOM     52   O  SGN C   3      31.363  25.390  12.5020  0.00  0.00     0.000 OA
ATOM     53   O  SGN C   3      31.846  27.640  11.8420  0.00  0.00     0.000 OA
ATOM     54   O  SGN C   3      33.535  26.288  12.8840  0.00  0.00     0.000 OA
ATOM     55   O  SGN C   3      31.609  27.158  14.1500  0.00  0.00     0.000 O
ATOM     56   S  SGN C   3      32.140  26.564  12.7100  0.00  0.00     0.000 S
ENDBRANCH 41 51
BRANCH 37 57
ATOM     57  O4  IDS C   4      32.242  28.089  18.6240  0.00  0.00     0.000 O
BRANCH 57 61
ATOM     58  C1  IDS C   4      32.836  25.032  20.8080  0.00  0.00     0.000 C
ATOM     59  C2  IDS C   4      32.697  26.368  21.4660  0.00  0.00     0.000 C
ATOM     60  C3  IDS C   4      33.401  27.485  20.6900  0.00  0.00     0.000 C
ATOM     61  C4  IDS C   4      33.372  27.382  19.1720  0.00  0.00     0.000 C
ATOM     62  C5  IDS C   4      33.368  25.915  18.7260  0.00  0.00     0.000 C
ATOM     63  O5  IDS C   4      32.424  25.145  19.4570  0.00  0.00     0.000 O
ATOM     64   O  IDS C   4      34.750  27.440  21.1140  0.00  0.00     0.000 O
ATOM     66  HD  IDS C   4      35.264  27.192  20.4630  0.00  0.00     0.000 HD
BRANCH 59 66
ATOM     66   O  IDS C   4      31.283  26.770  21.5860  0.00  0.00     0.000 O
ATOM     67   S  IDS C   4      30.713  26.930  23.0640  0.00  0.00     0.000 S
ATOM     68   O  IDS C   4      31.475  28.036  23.5910  0.00  0.00     0.000 OA
ATOM     69   O  IDS C   4      29.297  27.191  22.8910  0.00  0.00     0.000 OA
ATOM     70   O  IDS C   4      31.001  25.693  23.7730  0.00  0.00     0.000 OA
ENDBRANCH 59 66
BRANCH 62 71
ATOM     71   C  IDS C   4      32.997  25.738  17.2660  0.00  0.00     0.000 C
ATOM     72   O  IDS C   4      31.864  25.426  16.9580  0.00  0.00     0.000 OA
ATOM     73   O  IDS C   4      33.902  25.816  16.4110  0.00  0.00     0.000 OA
ENDBRANCH 62 71
BRANCH 58 74
ATOM     74  O4  SGN C   5      33.988  24.364  21.1000  0.00  0.00     0.000 O
BRANCH 74 78
ATOM     75  C1  SGN C   5      35.803  20.655  21.7230  0.00  0.00     0.000 C
ATOM     76  C2  SGN C   5      35.363  20.957  20.2780  0.00  0.00     0.000 C
ATOM     77  C3  SGN C   5      35.035  22.447  20.1120  0.00  0.00     0.000 C
ATOM     78  C4  SGN C   5      34.125  22.949  21.2240  0.00  0.00     0.000 C
ATOM     79  C5  SGN C   5      34.726  22.585  22.5740  0.00  0.00     0.000 C
ATOM     80  O5  SGN C   5      34.864  21.143  22.6710  0.00  0.00     0.000 O
ATOM     81   O  SGN C   5      34.427  22.647  18.8400  0.00  0.00     0.000 O
ATOM     83  HD  SGN C   5      34.678  22.201  18.1410  0.00  0.00     0.000 HD
BRANCH 76 85
ATOM     83   N  SGN C   5      36.060  19.696  19.9970  0.00  0.00     0.000 N
ATOM     85  HD  SGN C   5      36.698  19.236  19.6340  0.00  0.00     0.000 HD
ATOM     85   S  SGN C   5      36.732  19.182  18.6270  0.00  0.00     0.000 S
ATOM     86   O  SGN C   5      37.341  17.911  18.8180  0.00  0.00     0.000 OA
ATOM     87   O  SGN C   5      35.743  19.278  17.6130  0.00  0.00     0.000 OA
ATOM     88   O  SGN C   5      37.791  20.278  18.5400  0.00  0.00     0.000 OA
ENDBRANCH 76 85
BRANCH 79 89
ATOM     89   C  SGN C   5      33.901  23.065  23.7510  0.00  0.00     0.000 C
ATOM     90   O  SGN C   5      32.769  22.183  23.9480  0.00  0.00     0.000 O
ATOM     91   S  SGN C   5      32.250  22.002  25.4560  0.00  0.00     0.000 S
ATOM     92   O  SGN C   5      33.400  21.636  26.2400  0.00  0.00     0.000 OA
ATOM     93   O  SGN C   5      31.685  23.263  25.8630  0.00  0.00     0.000 OA
ATOM     94   O  SGN C   5      31.274  20.952  25.3460  0.00  0.00     0.000 OA
ENDBRANCH 79 89
BRANCH 75 95
ATOM     95  O4  BDP C   6      36.999  21.295  21.8890  0.00  0.00     0.000 O
BRANCH 95 99
ATOM     96  C1  BDP C   6      40.427  20.169  24.2180  0.00  0.00     0.000 C
ATOM     97  C2  BDP C   6      39.563  19.086  23.6360  0.00  0.00     0.000 C
ATOM     98  C3  BDP C   6      38.613  19.562  22.5270  0.00  0.00     0.000 C
ATOM     99  C4  BDP C   6      37.855  20.813  22.9470  0.00  0.00     0.000 C
ATOM    100  C5  BDP C   6      38.882  21.835  23.4870  0.00  0.00     0.000 C
ATOM    101  O5  BDP C   6      39.483  21.153  24.5990  0.00  0.00     0.000 O
BRANCH 100 102
ATOM    102   C  BDP C   6      38.233  23.092  24.0080  0.00  0.00     0.000 C
ATOM    103   O  BDP C   6      38.530  24.217  23.5810  0.00  0.00     0.000 OA
ATOM    104   O  BDP C   6      37.369  22.953  24.8830  0.00  0.00     0.000 OA
ENDBRANCH 100 102
ENDBRANCH 95 99
ENDBRANCH 75 95
ENDBRANCH 74 78
ENDBRANCH 58 74
ENDBRANCH 57 61
ENDBRANCH 37 57
ENDBRANCH 36 40
ENDBRANCH 23 36
ENDBRANCH 22 26
ENDBRANCH 1 22
TORSDOF 20
ENDMDL
MODEL 44
REMARK VINA RESULT:      -5.9     25.615     30.633
ROOT
ATOM      1  C1  NGY C   1      18.246  19.053  52.7280  0.00  0.00     0.000 C
ATOM      2  C2  NGY C   1      18.119  20.566  52.8350  0.00  0.00     0.000 C
ATOM      3  C3  NGY C   1      17.398  20.946  54.1250  0.00  0.00     0.000 C
ATOM      4  C4  NGY C   1      16.072  20.210  54.1620  0.00  0.00     0.000 C
ATOM      5  C5  NGY C   1      16.344  18.709  54.1320  0.00  0.00     0.000 C
ATOM      6  O5  NGY C   1      17.008  18.392  52.8810  0.00  0.00     0.000 O
ATOM      7   O  NGY C   1      17.228  22.355  54.1670  0.00  0.00     0.000 O
ATOM      9  HD  NGY C   1      17.062  22.994  53.6060  0.00  0.00     0.000 HD
ATOM      9   O  NGY C   1      15.335  20.549  55.3280  0.00  0.00     0.000 O
ATOM     11  HD  NGY C   1      15.170  21.188  54.7670  0.00  0.00     0.000 HD
ENDROOT
BRANCH 2 13
ATOM     11   N  NGY C   1      19.072  21.635  53.0200  0.00  0.00     0.000 N
ATOM     13  HD  NGY C   1      19.283  21.772  52.1920  0.00  0.00     0.000 HD
ATOM     13   C  NGY C   1      19.697  22.200  51.9880  0.00  0.00     0.000 C
ATOM     14   O  NGY C   1      19.594  21.738  50.8510  0.00  0.00     0.000 OA
ATOM     15   C  NGY C   1      20.500  23.431  52.2800  0.00  0.00     0.000 C
ENDBRANCH 2 13
BRANCH 5 16
ATOM     16   C  NGY C   1      15.127  17.841  54.1740  0.00  0.00     0.000 C
ATOM     17   O  NGY C   1      12.613  17.707  51.5060  0.00  0.00     0.000 OA
ATOM     18   O  NGY C   1      14.269  18.199  53.0860  0.00  0.00     0.000 O
ATOM     19   S  NGY C   1      13.184  17.132  52.6970  0.00  0.00     0.000 S
ATOM     20   O  NGY C   1      12.240  17.070  53.7820  0.00  0.00     0.000 OA
ATOM     21   O  NGY C   1      13.932  15.901  52.5070  0.00  0.00     0.000 OA
ENDBRANCH 5 16
BRANCH 1 22
ATOM     22  O4  BDP C   2      19.173  18.631  53.6140  0.00  0.00     0.000 O
BRANCH 22 26
ATOM     23  C1  BDP C   2      22.127  15.835  54.2620  0.00  0.00     0.000 C
ATOM     24  C2  BDP C   2      21.585  15.892  52.8530  0.00  0.00     0.000 C
ATOM     25  C3  BDP C   2      20.803  17.166  52.6640  0.00  0.00     0.000 C
ATOM     26  C4  BDP C   2      19.745  17.303  53.7530  0.00  0.00     0.000 C
ATOM     27  C5  BDP C   2      20.372  17.053  55.1190  0.00  0.00     0.000 C
ATOM     28  O5  BDP C   2      21.023  15.759  55.2070  0.00  0.00     0.000 O
ATOM     29   O  BDP C   2      22.620  15.984  51.8750  0.00  0.00     0.000 O
ATOM     31  HD  BDP C   2      22.452  16.470  51.1780  0.00  0.00     0.000 HD
ATOM     31   O  BDP C   2      20.183  17.085  51.3870  0.00  0.00     0.000 O
ATOM     33  HD  BDP C   2      20.015  17.571  50.6900  0.00  0.00     0.000 HD
BRANCH 27 33
ATOM     33   C  BDP C   2      19.355  17.077  56.2350  0.00  0.00     0.000 C
ATOM     34   O  BDP C   2      18.173  16.692  56.0670  0.00  0.00     0.000 OA
ATOM     35   O  BDP C   2      19.695  17.519  57.3200  0.00  0.00     0.000 OA
ENDBRANCH 27 33
BRANCH 23 36
ATOM     36  O4  SGN C   3      22.958  14.799  54.5210  0.00  0.00     0.000 O
BRANCH 36 40
ATOM     37  C1  SGN C   3      26.344  13.538  56.6120  0.00  0.00     0.000 C
ATOM     38  C2  SGN C   3      25.026  13.658  57.3940  0.00  0.00     0.000 C
ATOM     39  C3  SGN C   3      23.842  13.692  56.4380  0.00  0.00     0.000 C
ATOM     40  C4  SGN C   3      24.038  14.829  55.4580  0.00  0.00     0.000 C
ATOM     41  C5  SGN C   3      25.364  14.642  54.7540  0.00  0.00     0.000 C
ATOM     42  O5  SGN C   3      26.428  14.637  55.7180  0.00  0.00     0.000 O
ATOM     43   O  SGN C   3      22.643  13.864  57.1840  0.00  0.00     0.000 O
ATOM     45  HD  SGN C   3      22.544  14.188  56.3870  0.00  0.00     0.000 HD
BRANCH 38 47
ATOM     45   N  SGN C   3      26.021  13.720  58.4790  0.00  0.00     0.000 N
ATOM     47  HD  SGN C   3      25.678  14.081  57.7710  0.00  0.00     0.000 HD
ATOM     47   S  SGN C   3      25.697  12.691  59.6460  0.00  0.00     0.000 S
ATOM     48   O  SGN C   3      24.496  13.036  60.3220  0.00  0.00     0.000 OA
ATOM     49   O  SGN C   3      25.755  11.388  59.0700  0.00  0.00     0.000 OA
ATOM     50   O  SGN C   3      26.809  12.924  60.5660  0.00  0.00     0.000 OA
ENDBRANCH 38 47
BRANCH 41 51
ATOM     51   C  SGN C   3      25.680  15.710  53.7420  0.00  0.00     0.000 C
ATOM     52   O  SGN C   3      25.910  15.317  50.0450  0.00  0.00     0.000 OA
ATOM     53   O  SGN C   3      25.147  17.184  51.3340  0.00  0.00     0.000 OA
ATOM     54   O  SGN C   3      27.438  16.476  51.4570  0.00  0.00     0.000 OA
ATOM     55   O  SGN C   3      25.617  15.147  52.4510  0.00  0.00     0.000 O
ATOM     56   S  SGN C   3      26.072  16.123  51.2060  0.00  0.00     0.000 S
ENDBRANCH 41 51
BRANCH 37 57
ATOM     57  O4  IDS C   4      26.473  12.396  55.8940  0.00  0.00     0.000 O
BRANCH 57 61
ATOM     58  C1  IDS C   4      28.162   9.114  54.9740  0.00  0.00     0.000 C
ATOM     59  C2  IDS C   4      27.847   9.381  56.4110  0.00  0.00     0.000 C
ATOM     60  C3  IDS C   4      28.112  10.833  56.8150  0.00  0.00     0.000 C
ATOM     61  C4  IDS C   4      27.819  11.896  55.7660  0.00  0.00     0.000 C
ATOM     62  C5  IDS C   4      28.069  11.351  54.3550  0.00  0.00     0.000 C
ATOM     63  O5  IDS C   4      27.485  10.069  54.1750  0.00  0.00     0.000 O
ATOM     64   O  IDS C   4      29.491  10.887  57.1300  0.00  0.00     0.000 O
ATOM     66  HD  IDS C   4      29.915  11.375  56.5540  0.00  0.00     0.000 HD
BRANCH 59 66
ATOM     66   O  IDS C   4      26.428   9.115  56.7140  0.00  0.00     0.000 O
ATOM     67   S  IDS C   4      26.119   7.830  57.6010  0.00  0.00     0.000 S
ATOM     68   O  IDS C   4      26.731   8.151  58.8680  0.00  0.00     0.000 OA
ATOM     69   O  IDS C   4      24.673   7.735  57.6280  0.00  0.00     0.000 OA
ATOM     70   O  IDS C   4      26.771   6.699  56.9610  0.00  0.00     0.000 OA
ENDBRANCH 59 66
BRANCH 62 71
ATOM     71   C  IDS C   4      27.478  12.226  53.2660  0.00  0.00     0.000 C
ATOM     72   O  IDS C   4      28.039  13.253  52.9370  0.00  0.00     0.000 OA
ATOM     73   O  IDS C   4      26.363  11.920  52.7980  0.00  0.00     0.000 OA
ENDBRANCH 62 71
BRANCH 58 74
ATOM     74  O4  SGN C   5      29.472   8.836  54.7140  0.00  0.00     0.000 O
BRANCH 74 78
ATOM     75  C1  SGN C   5      32.191   6.894  52.2090  0.00  0.00     0.000 C
ATOM     76  C2  SGN C   5      31.520   8.153  51.6300  0.00  0.00     0.000 C
ATOM     77  C3  SGN C   5      30.824   8.955  52.7380  0.00  0.00     0.000 C
ATOM     78  C4  SGN C   5      29.961   8.063  53.6180  0.00  0.00     0.000 C
ATOM     79  C5  SGN C   5      30.790   6.889  54.1190  0.00  0.00     0.000 C
ATOM     80  O5  SGN C   5      31.283   6.125  52.9870  0.00  0.00     0.000 O
ATOM     81   O  SGN C   5      30.037   9.981  52.1410  0.00  0.00     0.000 O
ATOM     83  HD  SGN C   5      30.302  10.403  51.4330  0.00  0.00     0.000 HD
BRANCH 76 85
ATOM     83   N  SGN C   5      32.628   8.008  50.6780  0.00  0.00     0.000 N
ATOM     85  HD  SGN C   5      33.283   8.326  50.2090  0.00  0.00     0.000 HD
ATOM     85   S  SGN C   5      33.067   8.972  49.4650  0.00  0.00     0.000 S
ATOM     86   O  SGN C   5      34.233   8.467  48.8270  0.00  0.00     0.000 OA
ATOM     87   O  SGN C   5      31.921   9.171  48.6520  0.00  0.00     0.000 OA
ATOM     88   O  SGN C   5      33.410  10.182  50.3300  0.00  0.00     0.000 OA
ENDBRANCH 76 85
BRANCH 79 89
ATOM     89   C  SGN C   5      30.021   5.951  55.0280  0.00  0.00     0.000 C
ATOM     90   O  SGN C   5      30.943   5.067  55.7120  0.00  0.00     0.000 O
ATOM     91   S  SGN C   5      30.520   4.582  57.1820  0.00  0.00     0.000 S
ATOM     92   O  SGN C   5      30.214   5.773  57.9310  0.00  0.00     0.000 OA
ATOM     93   O  SGN C   5      29.378   3.718  57.0300  0.00  0.00     0.000 OA
ATOM     94   O  SGN C   5      31.692   3.895  57.6530  0.00  0.00     0.000 OA
ENDBRANCH 79 89
BRANCH 75 95
ATOM     95  O4  BDP C   6      33.207   7.345  53.0030  0.00  0.00     0.000 O
BRANCH 95 99
ATOM     96  C1  BDP C   6      36.742   5.185  54.1370  0.00  0.00     0.000 C
ATOM     97  C2  BDP C   6      35.908   4.660  53.0020  0.00  0.00     0.000 C
ATOM     98  C3  BDP C   6      34.909   5.675  52.4270  0.00  0.00     0.000 C
ATOM     99  C4  BDP C   6      34.111   6.352  53.5320  0.00  0.00     0.000 C
ATOM    100  C5  BDP C   6      35.109   6.864  54.5970  0.00  0.00     0.000 C
ATOM    101  O5  BDP C   6      35.768   5.668  55.0440  0.00  0.00     0.000 O
BRANCH 100 102
ATOM    102   C  BDP C   6      34.422   7.487  55.7860  0.00  0.00     0.000 C
ATOM    103   O  BDP C   6      34.611   8.667  56.1160  0.00  0.00     0.000 OA
ATOM    104   O  BDP C   6      33.641   6.768  56.4200  0.00  0.00     0.000 OA
ENDBRANCH 100 102
ENDBRANCH 95 99
ENDBRANCH 75 95
ENDBRANCH 74 78
ENDBRANCH 58 74
ENDBRANCH 57 61
ENDBRANCH 37 57
ENDBRANCH 36 40
ENDBRANCH 23 36
ENDBRANCH 22 26
ENDBRANCH 1 22
TORSDOF 20
ENDMDL
MODEL 45
REMARK VINA RESULT:      -5.9     11.183     18.832
ROOT
ATOM      1  C1  NGY C   1      29.041  21.166  29.2450  0.00  0.00     0.000 C
ATOM      2  C2  NGY C   1      29.305  22.445  30.0260  0.00  0.00     0.000 C
ATOM      3  C3  NGY C   1      28.198  22.677  31.0500  0.00  0.00     0.000 C
ATOM      4  C4  NGY C   1      26.867  22.659  30.3230  0.00  0.00     0.000 C
ATOM      5  C5  NGY C   1      26.692  21.298  29.6550  0.00  0.00     0.000 C
ATOM      6  O5  NGY C   1      27.750  21.133  28.6760  0.00  0.00     0.000 O
ATOM      7   O  NGY C   1      28.427  23.911  31.7140  0.00  0.00     0.000 O
ATOM      9  HD  NGY C   1      28.731  24.697  31.5130  0.00  0.00     0.000 HD
ATOM      9   O  NGY C   1      25.794  22.904  31.2210  0.00  0.00     0.000 O
ATOM     11  HD  NGY C   1      26.098  23.689  31.0200  0.00  0.00     0.000 HD
ENDROOT
BRANCH 2 13
ATOM     11   N  NGY C   1      30.694  22.297  30.3900  0.00  0.00     0.000 N
ATOM     13  HD  NGY C   1      30.907  23.134  30.4510  0.00  0.00     0.000 HD
ATOM     13   C  NGY C   1      31.478  23.353  30.5990  0.00  0.00     0.000 C
ATOM     14   O  NGY C   1      31.088  24.495  30.3510  0.00  0.00     0.000 OA
ATOM     15   C  NGY C   1      32.835  23.081  31.1730  0.00  0.00     0.000 C
ENDBRANCH 2 13
BRANCH 5 16
ATOM     16   C  NGY C   1      25.413  21.121  28.9010  0.00  0.00     0.000 C
ATOM     17   O  NGY C   1      25.193  20.983  25.2410  0.00  0.00     0.000 OA
ATOM     18   O  NGY C   1      25.667  21.330  27.5090  0.00  0.00     0.000 O
ATOM     19   S  NGY C   1      24.581  20.760  26.5270  0.00  0.00     0.000 S
ATOM     20   O  NGY C   1      23.388  21.545  26.7100  0.00  0.00     0.000 OA
ATOM     21   O  NGY C   1      24.426  19.369  26.9190  0.00  0.00     0.000 OA
ENDBRANCH 5 16
BRANCH 1 22
ATOM     22  O4  BDP C   2      29.281  20.109  30.0490  0.00  0.00     0.000 O
BRANCH 22 26
ATOM     23  C1  BDP C   2      30.195  16.101  30.3160  0.00  0.00     0.000 C
ATOM     24  C2  BDP C   2      30.608  16.778  29.0300  0.00  0.00     0.000 C
ATOM     25  C3  BDP C   2      30.555  18.273  29.2060  0.00  0.00     0.000 C
ATOM     26  C4  BDP C   2      29.186  18.695  29.7290  0.00  0.00     0.000 C
ATOM     27  C5  BDP C   2      28.798  17.828  30.9200  0.00  0.00     0.000 C
ATOM     28  O5  BDP C   2      28.803  16.412  30.6070  0.00  0.00     0.000 O
ATOM     29   O  BDP C   2      31.973  16.526  28.6960  0.00  0.00     0.000 O
ATOM     31  HD  BDP C   2      32.406  17.175  28.3200  0.00  0.00     0.000 HD
ATOM     31   O  BDP C   2      30.787  18.848  27.9260  0.00  0.00     0.000 O
ATOM     33  HD  BDP C   2      31.220  19.497  27.5500  0.00  0.00     0.000 HD
BRANCH 27 33
ATOM     33   C  BDP C   2      27.408  18.131  31.4260  0.00  0.00     0.000 C
ATOM     34   O  BDP C   2      27.197  18.979  32.3250  0.00  0.00     0.000 OA
ATOM     35   O  BDP C   2      26.471  17.501  30.9620  0.00  0.00     0.000 OA
ENDBRANCH 27 33
BRANCH 23 36
ATOM     36  O4  SGN C   3      30.326  14.754  30.3300  0.00  0.00     0.000 O
BRANCH 36 40
ATOM     37  C1  SGN C   3      30.995  11.381  32.6970  0.00  0.00     0.000 C
ATOM     38  C2  SGN C   3      29.594  12.012  32.7320  0.00  0.00     0.000 C
ATOM     39  C3  SGN C   3      29.388  12.920  31.5290  0.00  0.00     0.000 C
ATOM     40  C4  SGN C   3      30.488  13.959  31.5080  0.00  0.00     0.000 C
ATOM     41  C5  SGN C   3      31.826  13.253  31.4970  0.00  0.00     0.000 C
ATOM     42  O5  SGN C   3      31.950  12.431  32.6680  0.00  0.00     0.000 O
ATOM     43   O  SGN C   3      28.108  13.534  31.6190  0.00  0.00     0.000 O
ATOM     45  HD  SGN C   3      28.648  14.041  31.1700  0.00  0.00     0.000 HD
BRANCH 38 47
ATOM     45   N  SGN C   3      29.646  11.191  33.9560  0.00  0.00     0.000 N
ATOM     47  HD  SGN C   3      29.972  11.845  33.4900  0.00  0.00     0.000 HD
ATOM     47   S  SGN C   3      28.329  10.324  34.1500  0.00  0.00     0.000 S
ATOM     48   O  SGN C   3      27.197  11.147  34.3920  0.00  0.00     0.000 OA
ATOM     49   O  SGN C   3      28.251   9.441  33.0320  0.00  0.00     0.000 OA
ATOM     50   O  SGN C   3      28.628   9.602  35.3860  0.00  0.00     0.000 OA
ENDBRANCH 38 47
BRANCH 41 51
ATOM     51   C  SGN C   3      33.011  14.180  31.4710  0.00  0.00     0.000 C
ATOM     52   O  SGN C   3      36.452  13.407  30.2700  0.00  0.00     0.000 OA
ATOM     53   O  SGN C   3      35.224  15.459  30.1590  0.00  0.00     0.000 OA
ATOM     54   O  SGN C   3      35.859  14.536  32.2820  0.00  0.00     0.000 OA
ATOM     55   O  SGN C   3      34.105  13.503  30.8940  0.00  0.00     0.000 O
ATOM     56   S  SGN C   3      35.544  14.302  30.9040  0.00  0.00     0.000 S
ENDBRANCH 41 51
BRANCH 37 57
ATOM     57  O4  IDS C   4      31.224  10.571  31.6350  0.00  0.00     0.000 O
BRANCH 57 61
ATOM     58  C1  IDS C   4      32.544   7.015  31.3340  0.00  0.00     0.000 C
ATOM     59  C2  IDS C   4      32.255   7.562  32.6970  0.00  0.00     0.000 C
ATOM     60  C3  IDS C   4      32.678   9.025  32.8490  0.00  0.00     0.000 C
ATOM     61  C4  IDS C   4      32.507   9.914  31.6250  0.00  0.00     0.000 C
ATOM     62  C5  IDS C   4      32.700   9.107  30.3360  0.00  0.00     0.000 C
ATOM     63  O5  IDS C   4      31.979   7.884  30.3670  0.00  0.00     0.000 O
ATOM     64   O  IDS C   4      34.053   8.983  33.1810  0.00  0.00     0.000 O
ATOM     66  HD  IDS C   4      34.530   9.315  32.5390  0.00  0.00     0.000 HD
BRANCH 59 66
ATOM     66   O  IDS C   4      30.814   7.508  33.0090  0.00  0.00     0.000 O
ATOM     67   S  IDS C   4      30.382   6.557  34.2100  0.00  0.00     0.000 S
ATOM     68   O  IDS C   4      31.004   7.174  35.3570  0.00  0.00     0.000 OA
ATOM     69   O  IDS C   4      28.933   6.589  34.2090  0.00  0.00     0.000 OA
ATOM     70   O  IDS C   4      30.941   5.241  33.9390  0.00  0.00     0.000 OA
ENDBRANCH 59 66
BRANCH 62 71
ATOM     71   C  IDS C   4      32.212   9.838  29.0990  0.00  0.00     0.000 C
ATOM     72   O  IDS C   4      31.613   9.234  28.2310  0.00  0.00     0.000 OA
ATOM     73   O  IDS C   4      32.532  11.034  28.9510  0.00  0.00     0.000 OA
ENDBRANCH 62 71
BRANCH 58 74
ATOM     74  O4  SGN C   5      33.815   6.557  31.1560  0.00  0.00     0.000 O
BRANCH 74 78
ATOM     75  C1  SGN C   5      36.226   3.479  29.6870  0.00  0.00     0.000 C
ATOM     76  C2  SGN C   5      35.704   4.485  28.6430  0.00  0.00     0.000 C
ATOM     77  C3  SGN C   5      35.134   5.733  29.3310  0.00  0.00     0.000 C
ATOM     78  C4  SGN C   5      34.184   5.365  30.4630  0.00  0.00     0.000 C
ATOM     79  C5  SGN C   5      34.872   4.388  31.4050  0.00  0.00     0.000 C
ATOM     80  O5  SGN C   5      35.245   3.190  30.6750  0.00  0.00     0.000 O
ATOM     81   O  SGN C   5      34.467   6.532  28.3590  0.00  0.00     0.000 O
ATOM     83  HD  SGN C   5      34.769   6.610  27.5510  0.00  0.00     0.000 HD
BRANCH 76 85
ATOM     83   N  SGN C   5      36.326   3.708  27.5640  0.00  0.00     0.000 N
ATOM     85  HD  SGN C   5      36.992   3.510  27.0470  0.00  0.00     0.000 HD
ATOM     85   S  SGN C   5      37.298   4.202  26.3790  0.00  0.00     0.000 S
ATOM     86   O  SGN C   5      37.705   3.099  25.5780  0.00  0.00     0.000 OA
ATOM     87   O  SGN C   5      36.643   5.273  25.7180  0.00  0.00     0.000 OA
ATOM     88   O  SGN C   5      38.441   4.660  27.2820  0.00  0.00     0.000 OA
ENDBRANCH 76 85
BRANCH 79 89
ATOM     89   C  SGN C   5      34.012   3.979  32.5830  0.00  0.00     0.000 C
ATOM     90   O  SGN C   5      34.841   3.387  33.6130  0.00  0.00     0.000 O
ATOM     91   S  SGN C   5      34.362   3.593  35.1310  0.00  0.00     0.000 S
ATOM     92   O  SGN C   5      34.161   5.008  35.3060  0.00  0.00     0.000 OA
ATOM     93   O  SGN C   5      33.145   2.840  35.2970  0.00  0.00     0.000 OA
ATOM     94   O  SGN C   5      35.461   3.072  35.8980  0.00  0.00     0.000 OA
ENDBRANCH 79 89
BRANCH 75 95
ATOM     95  O4  BDP C   6      37.305   4.078  30.2730  0.00  0.00     0.000 O
BRANCH 95 99
ATOM     96  C1  BDP C   6      40.938   2.047  31.3340  0.00  0.00     0.000 C
ATOM     97  C2  BDP C   6      39.879   1.288  30.5850  0.00  0.00     0.000 C
ATOM     98  C3  BDP C   6      38.811   2.173  29.9260  0.00  0.00     0.000 C
ATOM     99  C4  BDP C   6      38.271   3.208  30.9020  0.00  0.00     0.000 C
ATOM    100  C5  BDP C   6      39.477   3.921  31.5580  0.00  0.00     0.000 C
ATOM    101  O5  BDP C   6      40.181   2.855  32.2160  0.00  0.00     0.000 O
BRANCH 100 102
ATOM    102   C  BDP C   6      39.061   4.920  32.6070  0.00  0.00     0.000 C
ATOM    103   O  BDP C   6      37.894   5.000  33.0200  0.00  0.00     0.000 OA
ATOM    104   O  BDP C   6      39.944   5.659  33.0570  0.00  0.00     0.000 OA
ENDBRANCH 100 102
ENDBRANCH 95 99
ENDBRANCH 75 95
ENDBRANCH 74 78
ENDBRANCH 58 74
ENDBRANCH 57 61
ENDBRANCH 37 57
ENDBRANCH 36 40
ENDBRANCH 23 36
ENDBRANCH 22 26
ENDBRANCH 1 22
TORSDOF 20
ENDMDL
MODEL 46
REMARK VINA RESULT:      -5.9     10.166     17.451
ROOT
ATOM      1  C1  NGY C   1      28.713  22.376  27.2960  0.00  0.00     0.000 C
ATOM      2  C2  NGY C   1      29.076  23.781  27.7560  0.00  0.00     0.000 C
ATOM      3  C3  NGY C   1      28.169  24.212  28.9030  0.00  0.00     0.000 C
ATOM      4  C4  NGY C   1      26.728  24.063  28.4520  0.00  0.00     0.000 C
ATOM      5  C5  NGY C   1      26.474  22.600  28.1000  0.00  0.00     0.000 C
ATOM      6  O5  NGY C   1      27.341  22.242  26.9920  0.00  0.00     0.000 O
ATOM      7   O  NGY C   1      28.479  25.550  29.2660  0.00  0.00     0.000 O
ATOM      9  HD  NGY C   1      28.718  26.280  28.8650  0.00  0.00     0.000 HD
ATOM      9   O  NGY C   1      25.831  24.483  29.4700  0.00  0.00     0.000 O
ATOM     11  HD  NGY C   1      26.070  25.213  29.0690  0.00  0.00     0.000 HD
ENDROOT
BRANCH 2 13
ATOM     11   N  NGY C   1      30.516  23.687  27.8180  0.00  0.00     0.000 N
ATOM     13  HD  NGY C   1      30.709  24.528  27.7400  0.00  0.00     0.000 HD
ATOM     13   C  NGY C   1      31.290  24.768  27.7330  0.00  0.00     0.000 C
ATOM     14   O  NGY C   1      30.816  25.870  27.4550  0.00  0.00     0.000 OA
ATOM     15   C  NGY C   1      32.748  24.575  28.0190  0.00  0.00     0.000 C
ENDBRANCH 2 13
BRANCH 5 16
ATOM     16   C  NGY C   1      25.085  22.288  27.6440  0.00  0.00     0.000 C
ATOM     17   O  NGY C   1      23.585  18.943  27.7790  0.00  0.00     0.000 OA
ATOM     18   O  NGY C   1      24.911  20.869  27.6370  0.00  0.00     0.000 O
ATOM     19   S  NGY C   1      23.422  20.367  27.6240  0.00  0.00     0.000 S
ATOM     20   O  NGY C   1      22.865  20.718  26.3440  0.00  0.00     0.000 OA
ATOM     21   O  NGY C   1      22.794  21.055  28.7400  0.00  0.00     0.000 OA
ENDBRANCH 5 16
BRANCH 1 22
ATOM     22  O4  BDP C   2      29.126  21.492  28.2290  0.00  0.00     0.000 O
BRANCH 22 26
ATOM     23  C1  BDP C   2      30.198  17.618  29.1280  0.00  0.00     0.000 C
ATOM     24  C2  BDP C   2      30.424  18.039  27.6950  0.00  0.00     0.000 C
ATOM     25  C3  BDP C   2      30.345  19.540  27.5900  0.00  0.00     0.000 C
ATOM     26  C4  BDP C   2      29.039  20.043  28.1960  0.00  0.00     0.000 C
ATOM     27  C5  BDP C   2      28.831  19.417  29.5690  0.00  0.00     0.000 C
ATOM     28  O5  BDP C   2      28.844  17.966  29.5310  0.00  0.00     0.000 O
ATOM     29   O  BDP C   2      31.745  17.740  27.2420  0.00  0.00     0.000 O
ATOM     31  HD  BDP C   2      32.106  18.309  26.6970  0.00  0.00     0.000 HD
ATOM     31   O  BDP C   2      30.397  19.861  26.2060  0.00  0.00     0.000 O
ATOM     33  HD  BDP C   2      30.758  20.430  25.6620  0.00  0.00     0.000 HD
BRANCH 27 33
ATOM     33   C  BDP C   2      27.506  19.799  30.1830  0.00  0.00     0.000 C
ATOM     34   O  BDP C   2      27.407  20.711  31.0390  0.00  0.00     0.000 OA
ATOM     35   O  BDP C   2      26.512  19.172  29.8560  0.00  0.00     0.000 OA
ENDBRANCH 27 33
BRANCH 23 36
ATOM     36  O4  SGN C   3      30.374  16.300  29.3790  0.00  0.00     0.000 O
BRANCH 36 40
ATOM     37  C1  SGN C   3      31.634  13.458  32.1650  0.00  0.00     0.000 C
ATOM     38  C2  SGN C   3      30.271  14.129  32.3960  0.00  0.00     0.000 C
ATOM     39  C3  SGN C   3      29.773  14.780  31.1140  0.00  0.00     0.000 C
ATOM     40  C4  SGN C   3      30.821  15.756  30.6230  0.00  0.00     0.000 C
ATOM     41  C5  SGN C   3      32.130  15.017  30.4460  0.00  0.00     0.000 C
ATOM     42  O5  SGN C   3      32.539  14.447  31.6990  0.00  0.00     0.000 O
ATOM     43   O  SGN C   3      28.542  15.442  31.3720  0.00  0.00     0.000 O
ATOM     45  HD  SGN C   3      28.953  15.829  30.7150  0.00  0.00     0.000 HD
BRANCH 38 47
ATOM     45   N  SGN C   3      30.634  13.536  33.6960  0.00  0.00     0.000 N
ATOM     47  HD  SGN C   3      30.835  14.074  33.0470  0.00  0.00     0.000 HD
ATOM     47   S  SGN C   3      29.402  12.808  34.3860  0.00  0.00     0.000 S
ATOM     48   O  SGN C   3      28.391  13.735  34.7530  0.00  0.00     0.000 OA
ATOM     49   O  SGN C   3      29.013  11.748  33.5140  0.00  0.00     0.000 OA
ATOM     50   O  SGN C   3      30.008  12.298  35.6150  0.00  0.00     0.000 OA
ENDBRANCH 38 47
BRANCH 41 51
ATOM     51   C  SGN C   3      33.261  15.879  29.9540  0.00  0.00     0.000 C
ATOM     52   O  SGN C   3      35.433  15.273  26.9890  0.00  0.00     0.000 OA
ATOM     53   O  SGN C   3      34.656  17.341  27.9110  0.00  0.00     0.000 OA
ATOM     54   O  SGN C   3      36.138  15.930  29.1670  0.00  0.00     0.000 OA
ATOM     55   O  SGN C   3      33.785  15.313  28.7740  0.00  0.00     0.000 O
ATOM     56   S  SGN C   3      35.129  16.032  28.1540  0.00  0.00     0.000 S
ENDBRANCH 41 51
BRANCH 37 57
ATOM     57  O4  IDS C   4      31.620  12.441  31.2680  0.00  0.00     0.000 O
BRANCH 57 61
ATOM     58  C1  IDS C   4      32.231   8.726  30.7210  0.00  0.00     0.000 C
ATOM     59  C2  IDS C   4      31.844   9.197  32.0870  0.00  0.00     0.000 C
ATOM     60  C3  IDS C   4      32.521  10.514  32.4730  0.00  0.00     0.000 C
ATOM     61  C4  IDS C   4      32.729  11.526  31.3550  0.00  0.00     0.000 C
ATOM     62  C5  IDS C   4      32.960  10.816  30.0150  0.00  0.00     0.000 C
ATOM     63  O5  IDS C   4      32.013   9.780  29.7980  0.00  0.00     0.000 O
ATOM     64   O  IDS C   4      33.789  10.146  32.9820  0.00  0.00     0.000 O
ATOM     66  HD  IDS C   4      34.419  10.424  32.4570  0.00  0.00     0.000 HD
BRANCH 59 66
ATOM     66   O  IDS C   4      30.390   9.428  32.1900  0.00  0.00     0.000 O
ATOM     67   S  IDS C   4      29.541   8.299  32.9220  0.00  0.00     0.000 S
ATOM     68   O  IDS C   4      30.036   8.342  34.2770  0.00  0.00     0.000 OA
ATOM     69   O  IDS C   4      28.160   8.708  32.7630  0.00  0.00     0.000 OA
ATOM     70   O  IDS C   4      29.858   7.035  32.2740  0.00  0.00     0.000 OA
ENDBRANCH 59 66
BRANCH 62 71
ATOM     71   C  IDS C   4      32.833  11.743  28.8210  0.00  0.00     0.000 C
ATOM     72   O  IDS C   4      33.804  12.351  28.4140  0.00  0.00     0.000 OA
ATOM     73   O  IDS C   4      31.698  11.943  28.3430  0.00  0.00     0.000 OA
ENDBRANCH 62 71
BRANCH 58 74
ATOM     74  O4  SGN C   5      33.396   8.021  30.6640  0.00  0.00     0.000 O
BRANCH 74 78
ATOM     75  C1  SGN C   5      35.404   4.731  29.0550  0.00  0.00     0.000 C
ATOM     76  C2  SGN C   5      35.105   5.884  28.0780  0.00  0.00     0.000 C
ATOM     77  C3  SGN C   5      34.687   7.148  28.8420  0.00  0.00     0.000 C
ATOM     78  C4  SGN C   5      33.624   6.844  29.8890  0.00  0.00     0.000 C
ATOM     79  C5  SGN C   5      34.097   5.703  30.7770  0.00  0.00     0.000 C
ATOM     80  O5  SGN C   5      34.331   4.522  29.9640  0.00  0.00     0.000 O
ATOM     81   O  SGN C   5      34.211   8.114  27.9110  0.00  0.00     0.000 O
ATOM     83  HD  SGN C   5      34.571   8.207  27.1290  0.00  0.00     0.000 HD
BRANCH 76 85
ATOM     83   N  SGN C   5      35.380   5.792  26.6390  0.00  0.00     0.000 N
ATOM     85  HD  SGN C   5      35.776   5.437  25.9550  0.00  0.00     0.000 HD
ATOM     85   S  SGN C   5      36.777   5.534  25.8800  0.00  0.00     0.000 S
ATOM     86   O  SGN C   5      36.575   5.476  24.4740  0.00  0.00     0.000 OA
ATOM     87   O  SGN C   5      37.699   6.500  26.3600  0.00  0.00     0.000 OA
ATOM     88   O  SGN C   5      37.019   4.138  26.4470  0.00  0.00     0.000 OA
ENDBRANCH 76 85
BRANCH 79 89
ATOM     89   C  SGN C   5      33.113   5.341  31.8710  0.00  0.00     0.000 C
ATOM     90   O  SGN C   5      33.589   4.179  32.5930  0.00  0.00     0.000 O
ATOM     91   S  SGN C   5      33.200   4.088  34.1480  0.00  0.00     0.000 S
ATOM     92   O  SGN C   5      33.608   5.334  34.7430  0.00  0.00     0.000 OA
ATOM     93   O  SGN C   5      31.776   3.885  34.2160  0.00  0.00     0.000 OA
ATOM     94   O  SGN C   5      33.957   2.957  34.6120  0.00  0.00     0.000 OA
ENDBRANCH 79 89
BRANCH 75 95
ATOM     95  O4  BDP C   6      36.522   5.108  29.7440  0.00  0.00     0.000 O
BRANCH 95 99
ATOM     96  C1  BDP C   6      39.441   2.587  31.6340  0.00  0.00     0.000 C
ATOM     97  C2  BDP C   6      38.570   2.001  30.5580  0.00  0.00     0.000 C
ATOM     98  C3  BDP C   6      37.845   3.043  29.6930  0.00  0.00     0.000 C
ATOM     99  C4  BDP C   6      37.161   4.096  30.5520  0.00  0.00     0.000 C
ATOM    100  C5  BDP C   6      38.193   4.621  31.5770  0.00  0.00     0.000 C
ATOM    101  O5  BDP C   6      38.553   3.447  32.3230  0.00  0.00     0.000 O
BRANCH 100 102
ATOM    102   C  BDP C   6      37.602   5.619  32.5390  0.00  0.00     0.000 C
ATOM    103   O  BDP C   6      36.638   5.345  33.2690  0.00  0.00     0.000 OA
ATOM    104   O  BDP C   6      38.131   6.736  32.5810  0.00  0.00     0.000 OA
ENDBRANCH 100 102
ENDBRANCH 95 99
ENDBRANCH 75 95
ENDBRANCH 74 78
ENDBRANCH 58 74
ENDBRANCH 57 61
ENDBRANCH 37 57
ENDBRANCH 36 40
ENDBRANCH 23 36
ENDBRANCH 22 26
ENDBRANCH 1 22
TORSDOF 20
ENDMDL
MODEL 47
REMARK VINA RESULT:      -5.9     27.982     34.780
ROOT
ATOM      1  C1  NGY C   1      18.323  12.751  60.9010  0.00  0.00     0.000 C
ATOM      2  C2  NGY C   1      18.020  13.808  61.9540  0.00  0.00     0.000 C
ATOM      3  C3  NGY C   1      18.143  13.211  63.3520  0.00  0.00     0.000 C
ATOM      4  C4  NGY C   1      17.249  11.989  63.4280  0.00  0.00     0.000 C
ATOM      5  C5  NGY C   1      17.709  10.979  62.3810  0.00  0.00     0.000 C
ATOM      6  O5  NGY C   1      17.552  11.581  61.0690  0.00  0.00     0.000 O
ATOM      7   O  NGY C   1      17.786  14.195  64.3120  0.00  0.00     0.000 O
ATOM      9  HD  NGY C   1      17.214  14.841  64.3800  0.00  0.00     0.000 HD
ATOM      9   O  NGY C   1      17.294  11.406  64.7220  0.00  0.00     0.000 O
ATOM     11  HD  NGY C   1      16.722  12.052  64.7900  0.00  0.00     0.000 HD
ENDROOT
BRANCH 2 13
ATOM     11   N  NGY C   1      18.664  14.940  61.3290  0.00  0.00     0.000 N
ATOM     13  HD  NGY C   1      18.352  15.568  61.8360  0.00  0.00     0.000 HD
ATOM     13   C  NGY C   1      18.480  16.181  61.7750  0.00  0.00     0.000 C
ATOM     14   O  NGY C   1      17.644  16.428  62.6460  0.00  0.00     0.000 OA
ATOM     15   C  NGY C   1      19.356  17.245  61.1860  0.00  0.00     0.000 C
ENDBRANCH 2 13
BRANCH 5 16
ATOM     16   C  NGY C   1      16.925   9.706  62.3380  0.00  0.00     0.000 C
ATOM     17   O  NGY C   1      14.014   9.164  60.1730  0.00  0.00     0.000 OA
ATOM     18   O  NGY C   1      15.746   9.919  61.5570  0.00  0.00     0.000 O
ATOM     19   S  NGY C   1      15.038   8.620  61.0280  0.00  0.00     0.000 S
ATOM     20   O  NGY C   1      14.492   7.937  62.1710  0.00  0.00     0.000 OA
ATOM     21   O  NGY C   1      16.091   7.877  60.3560  0.00  0.00     0.000 OA
ENDBRANCH 5 16
BRANCH 1 22
ATOM     22  O4  BDP C   2      19.650  12.504  60.9020  0.00  0.00     0.000 O
BRANCH 22 26
ATOM     23  C1  BDP C   2      23.134  11.437  58.9830  0.00  0.00     0.000 C
ATOM     24  C2  BDP C   2      22.461  12.684  58.4620  0.00  0.00     0.000 C
ATOM     25  C3  BDP C   2      21.435  13.159  59.4570  0.00  0.00     0.000 C
ATOM     26  C4  BDP C   2      20.477  12.025  59.8090  0.00  0.00     0.000 C
ATOM     27  C5  BDP C   2      21.266  10.768  60.1490  0.00  0.00     0.000 C
ATOM     28  O5  BDP C   2      22.159  10.360  59.0810  0.00  0.00     0.000 O
ATOM     29   O  BDP C   2      23.363  13.786  58.3580  0.00  0.00     0.000 O
ATOM     31  HD  BDP C   2      23.040  14.569  58.5370  0.00  0.00     0.000 HD
ATOM     31   O  BDP C   2      20.725  14.226  58.8420  0.00  0.00     0.000 O
ATOM     33  HD  BDP C   2      20.402  15.009  59.0220  0.00  0.00     0.000 HD
BRANCH 27 33
ATOM     33   C  BDP C   2      20.373   9.579  60.4120  0.00  0.00     0.000 C
ATOM     34   O  BDP C   2      20.508   8.857  61.4290  0.00  0.00     0.000 OA
ATOM     35   O  BDP C   2      19.519   9.301  59.5870  0.00  0.00     0.000 OA
ENDBRANCH 27 33
BRANCH 23 36
ATOM     36  O4  SGN C   3      24.170  10.983  58.2390  0.00  0.00     0.000 O
BRANCH 36 40
ATOM     37  C1  SGN C   3      28.012   9.352  58.3490  0.00  0.00     0.000 C
ATOM     38  C2  SGN C   3      26.934   8.702  59.2320  0.00  0.00     0.000 C
ATOM     39  C3  SGN C   3      25.545   9.107  58.7620  0.00  0.00     0.000 C
ATOM     40  C4  SGN C   3      25.452  10.618  58.7570  0.00  0.00     0.000 C
ATOM     41  C5  SGN C   3      26.559  11.171  57.8860  0.00  0.00     0.000 C
ATOM     42  O5  SGN C   3      27.834  10.759  58.4030  0.00  0.00     0.000 O
ATOM     43   O  SGN C   3      24.572   8.540  59.6300  0.00  0.00     0.000 O
ATOM     45  HD  SGN C   3      24.264   9.269  59.2770  0.00  0.00     0.000 HD
BRANCH 38 47
ATOM     45   N  SGN C   3      27.763   8.197  60.3410  0.00  0.00     0.000 N
ATOM     47  HD  SGN C   3      27.230   8.807  60.0360  0.00  0.00     0.000 HD
ATOM     47   S  SGN C   3      28.185   6.679  60.1280  0.00  0.00     0.000 S
ATOM     48   O  SGN C   3      27.058   5.816  60.1800  0.00  0.00     0.000 OA
ATOM     49   O  SGN C   3      28.970   6.636  58.9380  0.00  0.00     0.000 OA
ATOM     50   O  SGN C   3      28.996   6.426  61.3180  0.00  0.00     0.000 OA
ENDBRANCH 38 47
BRANCH 41 51
ATOM     51   C  SGN C   3      26.576  12.673  57.7930  0.00  0.00     0.000 C
ATOM     52   O  SGN C   3      27.657  15.084  60.4180  0.00  0.00     0.000 OA
ATOM     53   O  SGN C   3      27.857  15.233  58.0370  0.00  0.00     0.000 OA
ATOM     54   O  SGN C   3      25.693  15.216  59.0780  0.00  0.00     0.000 OA
ATOM     55   O  SGN C   3      27.104  13.198  58.9900  0.00  0.00     0.000 O
ATOM     56   S  SGN C   3      27.073  14.837  59.1440  0.00  0.00     0.000 S
ENDBRANCH 41 51
BRANCH 37 57
ATOM     57  O4  IDS C   4      27.984   8.971  57.0490  0.00  0.00     0.000 O
BRANCH 57 61
ATOM     58  C1  IDS C   4      30.149   7.704  54.1890  0.00  0.00     0.000 C
ATOM     59  C2  IDS C   4      30.618   7.491  55.5930  0.00  0.00     0.000 C
ATOM     60  C3  IDS C   4      30.350   8.698  56.4960  0.00  0.00     0.000 C
ATOM     61  C4  IDS C   4      29.064   9.470  56.2370  0.00  0.00     0.000 C
ATOM     62  C5  IDS C   4      28.695   9.428  54.7490  0.00  0.00     0.000 C
ATOM     63  O5  IDS C   4      28.792   8.113  54.2190  0.00  0.00     0.000 O
ATOM     64   O  IDS C   4      31.444   9.570  56.2870  0.00  0.00     0.000 O
ATOM     66  HD  IDS C   4      31.182  10.296  55.8920  0.00  0.00     0.000 HD
BRANCH 59 66
ATOM     66   O  IDS C   4      29.942   6.340  56.2220  0.00  0.00     0.000 O
ATOM     67   S  IDS C   4      30.829   5.041  56.4650  0.00  0.00     0.000 S
ATOM     68   O  IDS C   4      31.808   5.488  57.4270  0.00  0.00     0.000 OA
ATOM     69   O  IDS C   4      29.901   4.042  56.9570  0.00  0.00     0.000 OA
ATOM     70   O  IDS C   4      31.445   4.697  55.1930  0.00  0.00     0.000 OA
ENDBRANCH 59 66
BRANCH 62 71
ATOM     71   C  IDS C   4      27.272   9.874  54.4760  0.00  0.00     0.000 C
ATOM     72   O  IDS C   4      26.925  11.007  54.7480  0.00  0.00     0.000 OA
ATOM     73   O  IDS C   4      26.452   9.027  54.0680  0.00  0.00     0.000 OA
ENDBRANCH 62 71
BRANCH 58 74
ATOM     74  O4  SGN C   5      31.027   8.368  53.3840  0.00  0.00     0.000 O
BRANCH 74 78
ATOM     75  C1  SGN C   5      31.922   9.003  49.3540  0.00  0.00     0.000 C
ATOM     76  C2  SGN C   5      30.483   8.548  49.6630  0.00  0.00     0.000 C
ATOM     77  C3  SGN C   5      30.183   8.681  51.1620  0.00  0.00     0.000 C
ATOM     78  C4  SGN C   5      31.290   8.074  52.0120  0.00  0.00     0.000 C
ATOM     79  C5  SGN C   5      32.631   8.654  51.5880  0.00  0.00     0.000 C
ATOM     80  O5  SGN C   5      32.870   8.350  50.1880  0.00  0.00     0.000 O
ATOM     81   O  SGN C   5      28.936   8.051  51.4410  0.00  0.00     0.000 O
ATOM     83  HD  SGN C   5      28.274   8.088  50.8840  0.00  0.00     0.000 HD
BRANCH 76 85
ATOM     83   N  SGN C   5      29.459   8.249  48.6550  0.00  0.00     0.000 N
ATOM     85  HD  SGN C   5      29.157   8.256  47.8430  0.00  0.00     0.000 HD
ATOM     85   S  SGN C   5      28.946   9.148  47.4210  0.00  0.00     0.000 S
ATOM     86   O  SGN C   5      27.967   8.445  46.6670  0.00  0.00     0.000 OA
ATOM     87   O  SGN C   5      28.571  10.410  47.9490  0.00  0.00     0.000 OA
ATOM     88   O  SGN C   5      30.278   9.179  46.6740  0.00  0.00     0.000 OA
ENDBRANCH 76 85
BRANCH 79 89
ATOM     89   C  SGN C   5      33.800   8.127  52.3960  0.00  0.00     0.000 C
ATOM     90   O  SGN C   5      33.942   8.900  53.6130  0.00  0.00     0.000 O
ATOM     91   S  SGN C   5      34.517   8.125  54.8960  0.00  0.00     0.000 S
ATOM     92   O  SGN C   5      33.702   6.950  55.0600  0.00  0.00     0.000 OA
ATOM     93   O  SGN C   5      35.893   7.805  54.6150  0.00  0.00     0.000 OA
ATOM     94   O  SGN C   5      34.362   9.083  55.9570  0.00  0.00     0.000 OA
ENDBRANCH 79 89
BRANCH 75 95
ATOM     95  O4  BDP C   6      31.947  10.347  49.5970  0.00  0.00     0.000 O
BRANCH 95 99
ATOM     96  C1  BDP C   6      34.255  13.525  47.8580  0.00  0.00     0.000 C
ATOM     97  C2  BDP C   6      33.661  12.485  46.9510  0.00  0.00     0.000 C
ATOM     98  C3  BDP C   6      32.560  11.632  47.6000  0.00  0.00     0.000 C
ATOM     99  C4  BDP C   6      32.997  11.105  48.9580  0.00  0.00     0.000 C
ATOM    100  C5  BDP C   6      33.548  12.296  49.7780  0.00  0.00     0.000 C
ATOM    101  O5  BDP C   6      34.650  12.768  48.9870  0.00  0.00     0.000 O
BRANCH 100 102
ATOM    102   C  BDP C   6      34.086  11.877  51.1230  0.00  0.00     0.000 C
ATOM    103   O  BDP C   6      33.447  12.040  52.1720  0.00  0.00     0.000 OA
ATOM    104   O  BDP C   6      35.202  11.343  51.1360  0.00  0.00     0.000 OA
ENDBRANCH 100 102
ENDBRANCH 95 99
ENDBRANCH 75 95
ENDBRANCH 74 78
ENDBRANCH 58 74
ENDBRANCH 57 61
ENDBRANCH 37 57
ENDBRANCH 36 40
ENDBRANCH 23 36
ENDBRANCH 22 26
ENDBRANCH 1 22
TORSDOF 20
ENDMDL
MODEL 48
REMARK VINA RESULT:      -5.8     33.263     40.623
ROOT
ATOM      1  C1  NGY C   1      23.024  13.518  57.5980  0.00  0.00     0.000 C
ATOM      2  C2  NGY C   1      24.482  13.833  57.9000  0.00  0.00     0.000 C
ATOM      3  C3  NGY C   1      24.637  15.300  58.2870  0.00  0.00     0.000 C
ATOM      4  C4  NGY C   1      24.036  16.149  57.1830  0.00  0.00     0.000 C
ATOM      5  C5  NGY C   1      22.559  15.794  57.0400  0.00  0.00     0.000 C
ATOM      6  O5  NGY C   1      22.463  14.400  56.6490  0.00  0.00     0.000 O
ATOM      7   O  NGY C   1      26.012  15.586  58.4920  0.00  0.00     0.000 O
ATOM      9  HD  NGY C   1      26.771  15.352  58.1460  0.00  0.00     0.000 HD
ATOM      9   O  NGY C   1      24.180  17.533  57.4710  0.00  0.00     0.000 O
ATOM     11  HD  NGY C   1      24.938  17.298  57.1250  0.00  0.00     0.000 HD
ENDROOT
BRANCH 2 13
ATOM     11   N  NGY C   1      25.469  12.785  57.7890  0.00  0.00     0.000 N
ATOM     13  HD  NGY C   1      25.681  12.711  58.6250  0.00  0.00     0.000 HD
ATOM     13   C  NGY C   1      26.108  12.312  58.8580  0.00  0.00     0.000 C
ATOM     14   O  NGY C   1      25.987  12.847  59.9610  0.00  0.00     0.000 OA
ATOM     15   C  NGY C   1      26.951  11.090  58.6510  0.00  0.00     0.000 C
ENDBRANCH 2 13
BRANCH 5 16
ATOM     16   C  NGY C   1      21.820  16.560  55.9900  0.00  0.00     0.000 C
ATOM     17   O  NGY C   1      20.827  15.159  52.7480  0.00  0.00     0.000 OA
ATOM     18   O  NGY C   1      21.792  15.784  54.7890  0.00  0.00     0.000 O
ATOM     19   S  NGY C   1      20.704  16.201  53.7350  0.00  0.00     0.000 S
ATOM     20   O  NGY C   1      21.083  17.491  53.2210  0.00  0.00     0.000 OA
ATOM     21   O  NGY C   1      19.457  16.218  54.4830  0.00  0.00     0.000 OA
ENDBRANCH 5 16
BRANCH 1 22
ATOM     22  O4  BDP C   2      22.335  13.497  58.7580  0.00  0.00     0.000 O
BRANCH 22 26
ATOM     23  C1  BDP C   2      19.264  11.981  61.0470  0.00  0.00     0.000 C
ATOM     24  C2  BDP C   2      19.998  10.973  60.1940  0.00  0.00     0.000 C
ATOM     25  C3  BDP C   2      21.293  11.569  59.7090  0.00  0.00     0.000 C
ATOM     26  C4  BDP C   2      21.035  12.906  59.0220  0.00  0.00     0.000 C
ATOM     27  C5  BDP C   2      20.140  13.773  59.8990  0.00  0.00     0.000 C
ATOM     28  O5  BDP C   2      18.885  13.126  60.2330  0.00  0.00     0.000 O
ATOM     29   O  BDP C   2      20.413   9.829  60.9400  0.00  0.00     0.000 O
ATOM     31  HD  BDP C   2      21.173   9.477  60.7190  0.00  0.00     0.000 HD
ATOM     31   O  BDP C   2      21.853  10.645  58.7840  0.00  0.00     0.000 O
ATOM     33  HD  BDP C   2      22.612  10.293  58.5630  0.00  0.00     0.000 HD
BRANCH 27 33
ATOM     33   C  BDP C   2      19.766  15.075  59.2320  0.00  0.00     0.000 C
ATOM     34   O  BDP C   2      19.715  16.157  59.8660  0.00  0.00     0.000 OA
ATOM     35   O  BDP C   2      19.472  15.058  58.0480  0.00  0.00     0.000 OA
ENDBRANCH 27 33
BRANCH 23 36
ATOM     36  O4  SGN C   3      18.144  11.522  61.6530  0.00  0.00     0.000 O
BRANCH 36 40
ATOM     37  C1  SGN C   3      15.800  11.613  65.1060  0.00  0.00     0.000 C
ATOM     38  C2  SGN C   3      15.845  12.882  64.2400  0.00  0.00     0.000 C
ATOM     39  C3  SGN C   3      16.358  12.556  62.8450  0.00  0.00     0.000 C
ATOM     40  C4  SGN C   3      17.712  11.891  62.9650  0.00  0.00     0.000 C
ATOM     41  C5  SGN C   3      17.579  10.671  63.8490  0.00  0.00     0.000 C
ATOM     42  O5  SGN C   3      17.107  11.062  65.1480  0.00  0.00     0.000 O
ATOM     43   O  SGN C   3      16.445  13.755  62.0850  0.00  0.00     0.000 O
ATOM     45  HD  SGN C   3      17.023  13.180  61.7950  0.00  0.00     0.000 HD
BRANCH 38 47
ATOM     45   N  SGN C   3      15.599  13.779  65.3830  0.00  0.00     0.000 N
ATOM     47  HD  SGN C   3      16.168  13.361  64.8810  0.00  0.00     0.000 HD
ATOM     47   S  SGN C   3      14.109  14.332  65.3980  0.00  0.00     0.000 S
ATOM     48   O  SGN C   3      13.862  15.186  64.2910  0.00  0.00     0.000 OA
ATOM     49   O  SGN C   3      13.254  13.199  65.5370  0.00  0.00     0.000 OA
ATOM     50   O  SGN C   3      14.111  15.157  66.6050  0.00  0.00     0.000 OA
ENDBRANCH 38 47
BRANCH 41 51
ATOM     51   C  SGN C   3      18.863   9.912  64.0470  0.00  0.00     0.000 C
ATOM     52   O  SGN C   3      22.108  11.253  65.2930  0.00  0.00     0.000 OA
ATOM     53   O  SGN C   3      21.130   9.091  65.6100  0.00  0.00     0.000 OA
ATOM     54   O  SGN C   3      21.778   9.824  63.4170  0.00  0.00     0.000 OA
ATOM     55   O  SGN C   3      19.832  10.786  64.5820  0.00  0.00     0.000 O
ATOM     56   S  SGN C   3      21.354  10.181  64.7390  0.00  0.00     0.000 S
ENDBRANCH 41 51
BRANCH 37 57
ATOM     57  O4  IDS C   4      14.950  10.655  64.6630  0.00  0.00     0.000 O
BRANCH 57 61
ATOM     58  C1  IDS C   4      12.300   8.231  65.9160  0.00  0.00     0.000 C
ATOM     59  C2  IDS C   4      12.664   9.402  66.7720  0.00  0.00     0.000 C
ATOM     60  C3  IDS C   4      14.167   9.693  66.7690  0.00  0.00     0.000 C
ATOM     61  C4  IDS C   4      14.904   9.455  65.4580  0.00  0.00     0.000 C
ATOM     62  C5  IDS C   4      14.263   8.302  64.6760  0.00  0.00     0.000 C
ATOM     63  O5  IDS C   4      12.849   8.424  64.6230  0.00  0.00     0.000 O
ATOM     64   O  IDS C   4      14.714   8.833  67.7510  0.00  0.00     0.000 O
ATOM     66  HD  IDS C   4      15.221   8.236  67.3820  0.00  0.00     0.000 HD
BRANCH 59 66
ATOM     66   O  IDS C   4      11.998  10.636  66.3130  0.00  0.00     0.000 O
ATOM     67   S  IDS C   4      10.912  11.264  67.2920  0.00  0.00     0.000 S
ATOM     68   O  IDS C   4      11.691  11.649  68.4440  0.00  0.00     0.000 OA
ATOM     69   O  IDS C   4      10.332  12.366  66.5500  0.00  0.00     0.000 OA
ATOM     70   O  IDS C   4       9.963  10.209  67.6140  0.00  0.00     0.000 OA
ENDBRANCH 59 66
BRANCH 62 71
ATOM     71   C  IDS C   4      14.722   8.237  63.2310  0.00  0.00     0.000 C
ATOM     72   O  IDS C   4      15.891   8.030  62.9710  0.00  0.00     0.000 OA
ATOM     73   O  IDS C   4      13.897   8.503  62.3340  0.00  0.00     0.000 OA
ENDBRANCH 62 71
BRANCH 58 74
ATOM     74  O4  SGN C   5      12.429   7.015  66.5200  0.00  0.00     0.000 O
BRANCH 74 78
ATOM     75  C1  SGN C   5      11.024   3.088  66.2940  0.00  0.00     0.000 C
ATOM     76  C2  SGN C   5      12.539   3.277  66.0910  0.00  0.00     0.000 C
ATOM     77  C3  SGN C   5      12.975   4.681  66.5310  0.00  0.00     0.000 C
ATOM     78  C4  SGN C   5      12.068   5.757  65.9500  0.00  0.00     0.000 C
ATOM     79  C5  SGN C   5      10.618   5.422  66.2660  0.00  0.00     0.000 C
ATOM     80  O5  SGN C   5      10.279   4.135  65.6850  0.00  0.00     0.000 O
ATOM     81   O  SGN C   5      14.324   4.893  66.1280  0.00  0.00     0.000 O
ATOM     83  HD  SGN C   5      14.910   4.256  66.1490  0.00  0.00     0.000 HD
BRANCH 76 85
ATOM     83   N  SGN C   5      13.004   2.155  66.9170  0.00  0.00     0.000 N
ATOM     85  HD  SGN C   5      13.579   1.540  67.1210  0.00  0.00     0.000 HD
ATOM     85   S  SGN C   5      13.721   0.784  66.4690  0.00  0.00     0.000 S
ATOM     86   O  SGN C   5      14.042  -0.004  67.6080  0.00  0.00     0.000 OA
ATOM     87   O  SGN C   5      12.898   0.184  65.4800  0.00  0.00     0.000 OA
ATOM     88   O  SGN C   5      14.977   1.434  65.8930  0.00  0.00     0.000 OA
ENDBRANCH 76 85
BRANCH 79 89
ATOM     89   C  SGN C   5       9.634   6.452  65.7480  0.00  0.00     0.000 C
ATOM     90   O  SGN C   5       8.734   5.834  64.7960  0.00  0.00     0.000 O
ATOM     91   S  SGN C   5       7.246   6.430  64.7190  0.00  0.00     0.000 S
ATOM     92   O  SGN C   5       6.737   6.426  66.0660  0.00  0.00     0.000 OA
ATOM     93   O  SGN C   5       7.349   7.758  64.1730  0.00  0.00     0.000 OA
ATOM     94   O  SGN C   5       6.566   5.509  63.8490  0.00  0.00     0.000 OA
ENDBRANCH 79 89
BRANCH 75 95
ATOM     95  O4  BDP C   6      10.824   3.108  67.6450  0.00  0.00     0.000 O
BRANCH 95 99
ATOM     96  C1  BDP C   6       7.230   1.865  69.6410  0.00  0.00     0.000 C
ATOM     97  C2  BDP C   6       7.364   1.604  68.1670  0.00  0.00     0.000 C
ATOM     98  C3  BDP C   6       8.798   1.726  67.6290  0.00  0.00     0.000 C
ATOM     99  C4  BDP C   6       9.458   3.013  68.1030  0.00  0.00     0.000 C
ATOM    100  C5  BDP C   6       9.263   3.114  69.6340  0.00  0.00     0.000 C
ATOM    101  O5  BDP C   6       7.835   3.135  69.7910  0.00  0.00     0.000 O
BRANCH 100 102
ATOM    102   C  BDP C   6       9.813   4.396  70.2060  0.00  0.00     0.000 C
ATOM    103   O  BDP C   6       9.465   5.510  69.7890  0.00  0.00     0.000 OA
ATOM    104   O  BDP C   6      10.627   4.291  71.1310  0.00  0.00     0.000 OA
ENDBRANCH 100 102
ENDBRANCH 95 99
ENDBRANCH 75 95
ENDBRANCH 74 78
ENDBRANCH 58 74
ENDBRANCH 57 61
ENDBRANCH 37 57
ENDBRANCH 36 40
ENDBRANCH 23 36
ENDBRANCH 22 26
ENDBRANCH 1 22
TORSDOF 20
ENDMDL
MODEL 49
REMARK VINA RESULT:      -5.8      9.728     20.754
ROOT
ATOM      1  C1  NGY C   1      35.682   6.912  26.6300  0.00  0.00     0.000 C
ATOM      2  C2  NGY C   1      36.664   5.903  27.2090  0.00  0.00     0.000 C
ATOM      3  C3  NGY C   1      38.070   6.495  27.2470  0.00  0.00     0.000 C
ATOM      4  C4  NGY C   1      38.423   6.971  25.8510  0.00  0.00     0.000 C
ATOM      5  C5  NGY C   1      37.413   8.033  25.4250  0.00  0.00     0.000 C
ATOM      6  O5  NGY C   1      36.099   7.419  25.3810  0.00  0.00     0.000 O
ATOM      7   O  NGY C   1      38.978   5.512  27.7220  0.00  0.00     0.000 O
ATOM      9  HD  NGY C   1      39.084   4.655  27.6520  0.00  0.00     0.000 HD
ATOM      9   O  NGY C   1      39.739   7.504  25.8130  0.00  0.00     0.000 O
ATOM     11  HD  NGY C   1      39.844   6.648  25.7430  0.00  0.00     0.000 HD
ENDROOT
BRANCH 2 13
ATOM     11   N  NGY C   1      36.200   4.598  27.6180  0.00  0.00     0.000 N
ATOM     13  HD  NGY C   1      36.306   4.680  28.4740  0.00  0.00     0.000 HD
ATOM     13   C  NGY C   1      36.176   4.236  28.9000  0.00  0.00     0.000 C
ATOM     14   O  NGY C   1      36.683   4.944  29.7720  0.00  0.00     0.000 OA
ATOM     15   C  NGY C   1      35.483   2.947  29.2220  0.00  0.00     0.000 C
ENDBRANCH 2 13
BRANCH 5 16
ATOM     16   C  NGY C   1      37.635   8.611  24.0640  0.00  0.00     0.000 C
ATOM     17   O  NGY C   1      34.945   9.310  21.6700  0.00  0.00     0.000 OA
ATOM     18   O  NGY C   1      36.409   8.546  23.3310  0.00  0.00     0.000 O
ATOM     19   S  NGY C   1      36.315   9.488  22.0770  0.00  0.00     0.000 S
ATOM     20   O  NGY C   1      37.247   8.988  21.1000  0.00  0.00     0.000 OA
ATOM     21   O  NGY C   1      36.657  10.807  22.5830  0.00  0.00     0.000 OA
ENDBRANCH 5 16
BRANCH 1 22
ATOM     22  O4  BDP C   2      35.471   7.885  27.5420  0.00  0.00     0.000 O
BRANCH 22 26
ATOM     23  C1  BDP C   2      32.946  10.527  29.4410  0.00  0.00     0.000 C
ATOM     24  C2  BDP C   2      32.414   9.123  29.2790  0.00  0.00     0.000 C
ATOM     25  C3  BDP C   2      33.543   8.193  28.9180  0.00  0.00     0.000 C
ATOM     26  C4  BDP C   2      34.298   8.725  27.7040  0.00  0.00     0.000 C
ATOM     27  C5  BDP C   2      34.630  10.198  27.9070  0.00  0.00     0.000 C
ATOM     28  O5  BDP C   2      33.454  11.007  28.1640  0.00  0.00     0.000 O
ATOM     29   O  BDP C   2      31.915   8.585  30.5040  0.00  0.00     0.000 O
ATOM     31  HD  BDP C   2      32.041   7.739  30.6360  0.00  0.00     0.000 HD
ATOM     31   O  BDP C   2      32.960   6.932  28.6170  0.00  0.00     0.000 O
ATOM     33  HD  BDP C   2      33.086   6.085  28.7480  0.00  0.00     0.000 HD
BRANCH 27 33
ATOM     33   C  BDP C   2      35.293  10.812  26.6970  0.00  0.00     0.000 C
ATOM     34   O  BDP C   2      34.720  10.872  25.5830  0.00  0.00     0.000 OA
ATOM     35   O  BDP C   2      36.434  11.228  26.8090  0.00  0.00     0.000 OA
ENDBRANCH 27 33
BRANCH 23 36
ATOM     36  O4  SGN C   3      32.052  11.436  29.8940  0.00  0.00     0.000 O
BRANCH 36 40
ATOM     37  C1  SGN C   3      31.516  14.820  32.2800  0.00  0.00     0.000 C
ATOM     38  C2  SGN C   3      32.674  14.835  31.2690  0.00  0.00     0.000 C
ATOM     39  C3  SGN C   3      32.470  13.762  30.2100  0.00  0.00     0.000 C
ATOM     40  C4  SGN C   3      32.320  12.421  30.8960  0.00  0.00     0.000 C
ATOM     41  C5  SGN C   3      31.179  12.504  31.8850  0.00  0.00     0.000 C
ATOM     42  O5  SGN C   3      31.453  13.525  32.8570  0.00  0.00     0.000 O
ATOM     43   O  SGN C   3      33.582  13.760  29.3240  0.00  0.00     0.000 O
ATOM     45  HD  SGN C   3      33.226  12.971  29.3520  0.00  0.00     0.000 HD
BRANCH 38 47
ATOM     45   N  SGN C   3      33.065  15.885  32.2270  0.00  0.00     0.000 N
ATOM     47  HD  SGN C   3      32.893  15.049  32.0760  0.00  0.00     0.000 HD
ATOM     47   S  SGN C   3      33.497  17.229  31.4970  0.00  0.00     0.000 S
ATOM     48   O  SGN C   3      34.690  17.050  30.7470  0.00  0.00     0.000 OA
ATOM     49   O  SGN C   3      32.354  17.691  30.7820  0.00  0.00     0.000 OA
ATOM     50   O  SGN C   3      33.810  18.096  32.6320  0.00  0.00     0.000 OA
ENDBRANCH 38 47
BRANCH 41 51
ATOM     51   C  SGN C   3      30.921  11.226  32.6360  0.00  0.00     0.000 C
ATOM     52   O  SGN C   3      27.831   9.147  32.5540  0.00  0.00     0.000 OA
ATOM     53   O  SGN C   3      30.116   8.472  32.7890  0.00  0.00     0.000 OA
ATOM     54   O  SGN C   3      29.060   9.805  34.4840  0.00  0.00     0.000 OA
ATOM     55   O  SGN C   3      29.646  10.739  32.2810  0.00  0.00     0.000 O
ATOM     56   S  SGN C   3      29.114   9.417  33.1060  0.00  0.00     0.000 S
ENDBRANCH 41 51
BRANCH 37 57
ATOM     57  O4  IDS C   4      30.301  15.109  31.7540  0.00  0.00     0.000 O
BRANCH 57 61
ATOM     58  C1  IDS C   4      27.188  17.260  31.3570  0.00  0.00     0.000 C
ATOM     59  C2  IDS C   4      28.530  17.916  31.2770  0.00  0.00     0.000 C
ATOM     60  C3  IDS C   4      29.523  17.361  32.3010  0.00  0.00     0.000 C
ATOM     61  C4  IDS C   4      29.426  15.873  32.6060  0.00  0.00     0.000 C
ATOM     62  C5  IDS C   4      27.978  15.386  32.4810  0.00  0.00     0.000 C
ATOM     63  O5  IDS C   4      27.365  15.855  31.2890  0.00  0.00     0.000 O
ATOM     64   O  IDS C   4      29.267  18.078  33.4940  0.00  0.00     0.000 O
ATOM     66  HD  IDS C   4      28.942  17.552  34.1000  0.00  0.00     0.000 HD
BRANCH 59 66
ATOM     66   O  IDS C   4      29.148  17.728  29.9510  0.00  0.00     0.000 O
ATOM     67   S  IDS C   4      29.329  19.033  29.0590  0.00  0.00     0.000 S
ATOM     68   O  IDS C   4      30.273  19.820  29.8170  0.00  0.00     0.000 OA
ATOM     69   O  IDS C   4      29.822  18.550  27.7850  0.00  0.00     0.000 OA
ATOM     70   O  IDS C   4      28.031  19.684  28.9790  0.00  0.00     0.000 OA
ENDBRANCH 59 66
BRANCH 62 71
ATOM     71   C  IDS C   4      27.861  13.874  32.4330  0.00  0.00     0.000 C
ATOM     72   O  IDS C   4      27.853  13.230  33.4640  0.00  0.00     0.000 OA
ATOM     73   O  IDS C   4      27.879  13.312  31.3200  0.00  0.00     0.000 OA
ENDBRANCH 62 71
BRANCH 58 74
ATOM     74  O4  SGN C   5      26.348  17.780  32.2970  0.00  0.00     0.000 O
BRANCH 74 78
ATOM     75  C1  SGN C   5      22.433  18.989  33.1060  0.00  0.00     0.000 C
ATOM     76  C2  SGN C   5      22.798  17.553  33.5270  0.00  0.00     0.000 C
ATOM     77  C3  SGN C   5      24.318  17.348  33.4970  0.00  0.00     0.000 C
ATOM     78  C4  SGN C   5      24.926  17.855  32.1970  0.00  0.00     0.000 C
ATOM     79  C5  SGN C   5      24.482  19.290  31.9540  0.00  0.00     0.000 C
ATOM     80  O5  SGN C   5      23.033  19.340  31.8660  0.00  0.00     0.000 O
ATOM     81   O  SGN C   5      24.602  15.964  33.6750  0.00  0.00     0.000 O
ATOM     83  HD  SGN C   5      24.131  15.469  34.2070  0.00  0.00     0.000 HD
BRANCH 76 85
ATOM     83   N  SGN C   5      21.578  17.740  34.3220  0.00  0.00     0.000 N
ATOM     85  HD  SGN C   5      21.118  17.662  35.0520  0.00  0.00     0.000 HD
ATOM     85   S  SGN C   5      20.870  16.735  35.3630  0.00  0.00     0.000 S
ATOM     86   O  SGN C   5      19.726  17.346  35.9440  0.00  0.00     0.000 OA
ATOM     87   O  SGN C   5      20.671  15.503  34.6860  0.00  0.00     0.000 OA
ATOM     88   O  SGN C   5      22.024  16.693  36.3620  0.00  0.00     0.000 OA
ENDBRANCH 76 85
BRANCH 79 89
ATOM     89   C  SGN C   5      25.057  19.895  30.6900  0.00  0.00     0.000 C
ATOM     90   O  SGN C   5      24.194  20.959  30.2190  0.00  0.00     0.000 O
ATOM     91   S  SGN C   5      24.904  22.176  29.4500  0.00  0.00     0.000 S
ATOM     92   O  SGN C   5      25.960  22.640  30.3120  0.00  0.00     0.000 OA
ATOM     93   O  SGN C   5      25.400  21.657  28.2020  0.00  0.00     0.000 OA
ATOM     94   O  SGN C   5      23.840  23.129  29.2860  0.00  0.00     0.000 OA
ENDBRANCH 79 89
BRANCH 75 95
ATOM     95  O4  BDP C   6      22.914  19.800  34.0950  0.00  0.00     0.000 O
BRANCH 95 99
ATOM     96  C1  BDP C   6      21.287  23.602  35.2530  0.00  0.00     0.000 C
ATOM     97  C2  BDP C   6      20.491  22.729  34.3240  0.00  0.00     0.000 C
ATOM     98  C3  BDP C   6      20.956  21.266  34.2750  0.00  0.00     0.000 C
ATOM     99  C4  BDP C   6      22.464  21.172  34.0890  0.00  0.00     0.000 C
ATOM    100  C5  BDP C   6      23.133  22.094  35.1350  0.00  0.00     0.000 C
ATOM    101  O5  BDP C   6      22.617  23.396  34.8150  0.00  0.00     0.000 O
BRANCH 100 102
ATOM    102   C  BDP C   6      24.633  22.141  34.9940  0.00  0.00     0.000 C
ATOM    103   O  BDP C   6      25.373  21.285  35.5010  0.00  0.00     0.000 OA
ATOM    104   O  BDP C   6      25.103  23.074  34.3320  0.00  0.00     0.000 OA
ENDBRANCH 100 102
ENDBRANCH 95 99
ENDBRANCH 75 95
ENDBRANCH 74 78
ENDBRANCH 58 74
ENDBRANCH 57 61
ENDBRANCH 37 57
ENDBRANCH 36 40
ENDBRANCH 23 36
ENDBRANCH 22 26
ENDBRANCH 1 22
TORSDOF 20
ENDMDL
MODEL 50
REMARK VINA RESULT:      -5.8     24.498     30.332
ROOT
ATOM      1  C1  NGY C   1      14.255  11.908  48.9460  0.00  0.00     0.000 C
ATOM      2  C2  NGY C   1      15.156  11.342  47.8570  0.00  0.00     0.000 C
ATOM      3  C3  NGY C   1      14.821  11.977  46.5120  0.00  0.00     0.000 C
ATOM      4  C4  NGY C   1      13.340  11.784  46.2500  0.00  0.00     0.000 C
ATOM      5  C5  NGY C   1      12.553  12.465  47.3660  0.00  0.00     0.000 C
ATOM      6  O5  NGY C   1      12.885  11.814  48.6200  0.00  0.00     0.000 O
ATOM      7   O  NGY C   1      15.624  11.381  45.5020  0.00  0.00     0.000 O
ATOM      9  HD  NGY C   1      15.942  10.596  45.3210  0.00  0.00     0.000 HD
ATOM      9   O  NGY C   1      12.971  12.326  44.9910  0.00  0.00     0.000 O
ATOM     11  HD  NGY C   1      13.289  11.541  44.8100  0.00  0.00     0.000 HD
ENDROOT
BRANCH 2 13
ATOM     11   N  NGY C   1      16.583  11.550  47.7760  0.00  0.00     0.000 N
ATOM     13  HD  NGY C   1      16.848  10.779  48.0660  0.00  0.00     0.000 HD
ATOM     13   C  NGY C   1      17.449  10.603  48.1340  0.00  0.00     0.000 C
ATOM     14   O  NGY C   1      17.068   9.568  48.6840  0.00  0.00     0.000 OA
ATOM     15   C  NGY C   1      18.890  10.852  47.8110  0.00  0.00     0.000 C
ENDBRANCH 2 13
BRANCH 5 16
ATOM     16   C  NGY C   1      11.066  12.371  47.2440  0.00  0.00     0.000 C
ATOM     17   O  NGY C   1       8.869  11.088  49.8870  0.00  0.00     0.000 OA
ATOM     18   O  NGY C   1      10.558  11.633  48.3590  0.00  0.00     0.000 O
ATOM     19   S  NGY C   1       9.024  11.807  48.6480  0.00  0.00     0.000 S
ATOM     20   O  NGY C   1       8.314  11.185  47.5610  0.00  0.00     0.000 OA
ATOM     21   O  NGY C   1       8.826  13.245  48.7240  0.00  0.00     0.000 OA
ENDBRANCH 5 16
BRANCH 1 22
ATOM     22  O4  BDP C   2      14.640  13.173  49.2150  0.00  0.00     0.000 O
BRANCH 22 26
ATOM     23  C1  BDP C   2      15.133  16.300  51.8500  0.00  0.00     0.000 C
ATOM     24  C2  BDP C   2      15.682  14.970  52.3090  0.00  0.00     0.000 C
ATOM     25  C3  BDP C   2      15.769  14.027  51.1380  0.00  0.00     0.000 C
ATOM     26  C4  BDP C   2      14.423  13.941  50.4280  0.00  0.00     0.000 C
ATOM     27  C5  BDP C   2      13.883  15.342  50.1700  0.00  0.00     0.000 C
ATOM     28  O5  BDP C   2      13.764  16.129  51.3840  0.00  0.00     0.000 O
ATOM     29   O  BDP C   2      17.032  15.067  52.7650  0.00  0.00     0.000 O
ATOM     31  HD  BDP C   2      17.548  14.393  52.5930  0.00  0.00     0.000 HD
ATOM     31   O  BDP C   2      16.130  12.754  51.6590  0.00  0.00     0.000 O
ATOM     33  HD  BDP C   2      16.646  12.080  51.4870  0.00  0.00     0.000 HD
BRANCH 27 33
ATOM     33   C  BDP C   2      12.504  15.326  49.5560  0.00  0.00     0.000 C
ATOM     34   O  BDP C   2      11.555  14.686  50.0670  0.00  0.00     0.000 OA
ATOM     35   O  BDP C   2      12.328  15.930  48.5100  0.00  0.00     0.000 OA
ENDBRANCH 27 33
BRANCH 23 36
ATOM     36  O4  SGN C   3      15.127  17.279  52.7840  0.00  0.00     0.000 O
BRANCH 36 40
ATOM     37  C1  SGN C   3      15.811  21.328  53.5390  0.00  0.00     0.000 C
ATOM     38  C2  SGN C   3      14.501  20.944  52.8310  0.00  0.00     0.000 C
ATOM     39  C3  SGN C   3      14.206  19.464  53.0230  0.00  0.00     0.000 C
ATOM     40  C4  SGN C   3      15.388  18.661  52.5250  0.00  0.00     0.000 C
ATOM     41  C5  SGN C   3      16.631  19.118  53.2560  0.00  0.00     0.000 C
ATOM     42  O5  SGN C   3      16.850  20.516  53.0130  0.00  0.00     0.000 O
ATOM     43   O  SGN C   3      13.023  19.126  52.3100  0.00  0.00     0.000 O
ATOM     45  HD  SGN C   3      13.535  18.431  52.3770  0.00  0.00     0.000 HD
BRANCH 38 47
ATOM     45   N  SGN C   3      14.634  22.364  52.4560  0.00  0.00     0.000 N
ATOM     47  HD  SGN C   3      14.940  21.555  52.4070  0.00  0.00     0.000 HD
ATOM     47   S  SGN C   3      13.307  23.186  52.7560  0.00  0.00     0.000 S
ATOM     48   O  SGN C   3      12.234  22.758  51.9290  0.00  0.00     0.000 OA
ATOM     49   O  SGN C   3      13.095  23.122  54.1650  0.00  0.00     0.000 OA
ATOM     50   O  SGN C   3      13.689  24.532  52.3290  0.00  0.00     0.000 OA
ENDBRANCH 38 47
BRANCH 41 51
ATOM     51   C  SGN C   3      17.884  18.390  52.8540  0.00  0.00     0.000 C
ATOM     52   O  SGN C   3      19.110  17.753  49.3940  0.00  0.00     0.000 OA
ATOM     53   O  SGN C   3      20.351  18.164  51.3990  0.00  0.00     0.000 OA
ATOM     54   O  SGN C   3      19.007  16.186  51.1850  0.00  0.00     0.000 OA
ATOM     55   O  SGN C   3      17.996  18.418  51.4480  0.00  0.00     0.000 O
ATOM     56   S  SGN C   3      19.232  17.547  50.7970  0.00  0.00     0.000 S
ENDBRANCH 41 51
BRANCH 37 57
ATOM     57  O4  IDS C   4      15.793  21.172  54.8850  0.00  0.00     0.000 O
BRANCH 57 61
ATOM     58  C1  IDS C   4      16.106  22.563  58.4120  0.00  0.00     0.000 C
ATOM     59  C2  IDS C   4      15.377  23.369  57.3840  0.00  0.00     0.000 C
ATOM     60  C3  IDS C   4      16.052  23.326  56.0110  0.00  0.00     0.000 C
ATOM     61  C4  IDS C   4      16.708  22.011  55.6160  0.00  0.00     0.000 C
ATOM     62  C5  IDS C   4      17.253  21.283  56.8500  0.00  0.00     0.000 C
ATOM     63  O5  IDS C   4      16.305  21.254  57.9060  0.00  0.00     0.000 O
ATOM     64   O  IDS C   4      17.052  24.327  56.0560  0.00  0.00     0.000 O
ATOM     66  HD  IDS C   4      17.840  23.970  56.0260  0.00  0.00     0.000 HD
BRANCH 59 66
ATOM     66   O  IDS C   4      13.999  22.880  57.1880  0.00  0.00     0.000 O
ATOM     67   S  IDS C   4      12.828  23.838  57.6820  0.00  0.00     0.000 S
ATOM     68   O  IDS C   4      12.958  24.987  56.8180  0.00  0.00     0.000 OA
ATOM     69   O  IDS C   4      11.614  23.069  57.4970  0.00  0.00     0.000 OA
ATOM     70   O  IDS C   4      13.105  24.176  59.0700  0.00  0.00     0.000 OA
ENDBRANCH 59 66
BRANCH 62 71
ATOM     71   C  IDS C   4      17.606  19.833  56.5770  0.00  0.00     0.000 C
ATOM     72   O  IDS C   4      16.865  18.944  56.9510  0.00  0.00     0.000 OA
ATOM     73   O  IDS C   4      18.712  19.578  56.0600  0.00  0.00     0.000 OA
ENDBRANCH 62 71
BRANCH 58 74
ATOM     74  O4  SGN C   5      17.143  23.207  59.0190  0.00  0.00     0.000 O
BRANCH 74 78
ATOM     75  C1  SGN C   5      19.103  24.022  62.6160  0.00  0.00     0.000 C
ATOM     76  C2  SGN C   5      19.399  22.650  61.9810  0.00  0.00     0.000 C
ATOM     77  C3  SGN C   5      18.907  22.607  60.5290  0.00  0.00     0.000 C
ATOM     78  C4  SGN C   5      17.481  23.126  60.4040  0.00  0.00     0.000 C
ATOM     79  C5  SGN C   5      17.380  24.495  61.0600  0.00  0.00     0.000 C
ATOM     80  O5  SGN C   5      17.738  24.388  62.4630  0.00  0.00     0.000 O
ATOM     81   O  SGN C   5      18.995  21.269  60.0500  0.00  0.00     0.000 O
ATOM     83  HD  SGN C   5      19.648  20.747  60.2790  0.00  0.00     0.000 HD
BRANCH 76 85
ATOM     83   N  SGN C   5      20.854  22.624  62.1760  0.00  0.00     0.000 N
ATOM     85  HD  SGN C   5      21.604  22.208  62.2950  0.00  0.00     0.000 HD
ATOM     85   S  SGN C   5      21.738  21.702  63.1580  0.00  0.00     0.000 S
ATOM     86   O  SGN C   5      23.122  21.981  62.9890  0.00  0.00     0.000 OA
ATOM     87   O  SGN C   5      21.204  21.850  64.4640  0.00  0.00     0.000 OA
ATOM     88   O  SGN C   5      21.374  20.370  62.5060  0.00  0.00     0.000 OA
ENDBRANCH 76 85
BRANCH 79 89
ATOM     89   C  SGN C   5      15.998  25.109  60.9670  0.00  0.00     0.000 C
ATOM     90   O  SGN C   5      16.096  26.552  61.0490  0.00  0.00     0.000 O
ATOM     91   S  SGN C   5      14.995  27.397  60.2440  0.00  0.00     0.000 S
ATOM     92   O  SGN C   5      15.012  26.903  58.8920  0.00  0.00     0.000 OA
ATOM     93   O  SGN C   5      13.730  27.174  60.8960  0.00  0.00     0.000 OA
ATOM     94   O  SGN C   5      15.464  28.751  60.3640  0.00  0.00     0.000 OA
ENDBRANCH 79 89
BRANCH 75 95
ATOM     95  O4  BDP C   6      19.895  24.917  61.9530  0.00  0.00     0.000 O
BRANCH 95 99
ATOM     96  C1  BDP C   6      21.879  28.433  63.4190  0.00  0.00     0.000 C
ATOM     97  C2  BDP C   6      21.636  27.293  64.3680  0.00  0.00     0.000 C
ATOM     98  C3  BDP C   6      21.282  25.964  63.6840  0.00  0.00     0.000 C
ATOM     99  C4  BDP C   6      20.195  26.153  62.6370  0.00  0.00     0.000 C
ATOM    100  C5  BDP C   6      20.609  27.331  61.7250  0.00  0.00     0.000 C
ATOM    101  O5  BDP C   6      20.703  28.442  62.6310  0.00  0.00     0.000 O
BRANCH 100 102
ATOM    102   C  BDP C   6      19.564  27.662  60.6910  0.00  0.00     0.000 C
ATOM    103   O  BDP C   6      18.707  28.540  60.8730  0.00  0.00     0.000 OA
ATOM    104   O  BDP C   6      19.602  27.023  59.6330  0.00  0.00     0.000 OA
ENDBRANCH 100 102
ENDBRANCH 95 99
ENDBRANCH 75 95
ENDBRANCH 74 78
ENDBRANCH 58 74
ENDBRANCH 57 61
ENDBRANCH 37 57
ENDBRANCH 36 40
ENDBRANCH 23 36
ENDBRANCH 22 26
ENDBRANCH 1 22
TORSDOF 20
ENDMDL
MODEL 51
REMARK VINA RESULT:      -5.8     25.310     31.310
ROOT
ATOM      1  C1  NGY C   1      13.658  20.060  53.3240  0.00  0.00     0.000 C
ATOM      2  C2  NGY C   1      13.396  20.339  51.8510  0.00  0.00     0.000 C
ATOM      3  C3  NGY C   1      13.922  21.721  51.4740  0.00  0.00     0.000 C
ATOM      4  C4  NGY C   1      13.305  22.738  52.4150  0.00  0.00     0.000 C
ATOM      5  C5  NGY C   1      13.711  22.391  53.8450  0.00  0.00     0.000 C
ATOM      6  O5  NGY C   1      13.170  21.083  54.1660  0.00  0.00     0.000 O
ATOM      7   O  NGY C   1      13.602  21.987  50.1160  0.00  0.00     0.000 O
ATOM      9  HD  NGY C   1      12.948  21.826  49.5720  0.00  0.00     0.000 HD
ATOM      9   O  NGY C   1      13.732  24.053  52.0920  0.00  0.00     0.000 O
ATOM     11  HD  NGY C   1      13.078  23.892  51.5480  0.00  0.00     0.000 HD
ENDROOT
BRANCH 2 13
ATOM     11   N  NGY C   1      13.855  19.119  51.2300  0.00  0.00     0.000 N
ATOM     13  HD  NGY C   1      13.360  19.136  50.5190  0.00  0.00     0.000 HD
ATOM     13   C  NGY C   1      13.361  18.700  50.0650  0.00  0.00     0.000 C
ATOM     14   O  NGY C   1      12.395  19.260  49.5450  0.00  0.00     0.000 OA
ATOM     15   C  NGY C   1      14.056  17.541  49.4180  0.00  0.00     0.000 C
ENDBRANCH 2 13
BRANCH 5 16
ATOM     16   C  NGY C   1      13.184  23.314  54.8960  0.00  0.00     0.000 C
ATOM     17   O  NGY C   1       9.671  23.436  55.9460  0.00  0.00     0.000 OA
ATOM     18   O  NGY C   1      11.756  23.247  54.8950  0.00  0.00     0.000 O
ATOM     19   S  NGY C   1      11.048  23.782  56.1910  0.00  0.00     0.000 S
ATOM     20   O  NGY C   1      11.256  25.206  56.2310  0.00  0.00     0.000 OA
ATOM     21   O  NGY C   1      11.694  23.070  57.2820  0.00  0.00     0.000 OA
ENDBRANCH 5 16
BRANCH 1 22
ATOM     22  O4  BDP C   2      14.977  19.831  53.4960  0.00  0.00     0.000 O
BRANCH 22 26
ATOM     23  C1  BDP C   2      18.081  17.952  55.4440  0.00  0.00     0.000 C
ATOM     24  C2  BDP C   2      16.976  17.045  54.9570  0.00  0.00     0.000 C
ATOM     25  C3  BDP C   2      16.115  17.785  53.9670  0.00  0.00     0.000 C
ATOM     26  C4  BDP C   2      15.631  19.101  54.5670  0.00  0.00     0.000 C
ATOM     27  C5  BDP C   2      16.806  19.850  55.1830  0.00  0.00     0.000 C
ATOM     28  O5  BDP C   2      17.507  19.067  56.1830  0.00  0.00     0.000 O
ATOM     29   O  BDP C   2      17.473  15.936  54.2080  0.00  0.00     0.000 O
ATOM     31  HD  BDP C   2      16.988  15.671  53.5400  0.00  0.00     0.000 HD
ATOM     31   O  BDP C   2      15.005  16.944  53.6740  0.00  0.00     0.000 O
ATOM     33  HD  BDP C   2      14.521  16.679  53.0070  0.00  0.00     0.000 HD
BRANCH 27 33
ATOM     33   C  BDP C   2      16.378  21.119  55.8820  0.00  0.00     0.000 C
ATOM     34   O  BDP C   2      16.844  22.240  55.5680  0.00  0.00     0.000 OA
ATOM     35   O  BDP C   2      15.581  21.035  56.8010  0.00  0.00     0.000 OA
ENDBRANCH 27 33
BRANCH 23 36
ATOM     36  O4  SGN C   3      19.003  17.364  56.2420  0.00  0.00     0.000 O
BRANCH 36 40
ATOM     37  C1  SGN C   3      23.069  16.990  57.1120  0.00  0.00     0.000 C
ATOM     38  C2  SGN C   3      22.348  18.257  57.6000  0.00  0.00     0.000 C
ATOM     39  C3  SGN C   3      20.841  18.046  57.5980  0.00  0.00     0.000 C
ATOM     40  C4  SGN C   3      20.407  17.634  56.2080  0.00  0.00     0.000 C
ATOM     41  C5  SGN C   3      21.181  16.399  55.8020  0.00  0.00     0.000 C
ATOM     42  O5  SGN C   3      22.588  16.682  55.8130  0.00  0.00     0.000 O
ATOM     43   O  SGN C   3      20.198  19.251  57.9960  0.00  0.00     0.000 O
ATOM     45  HD  SGN C   3      19.673  18.792  57.4830  0.00  0.00     0.000 HD
BRANCH 38 47
ATOM     45   N  SGN C   3      23.658  18.930  57.5460  0.00  0.00     0.000 N
ATOM     47  HD  SGN C   3      22.956  18.646  57.1260  0.00  0.00     0.000 HD
ATOM     47   S  SGN C   3      24.169  19.358  58.9890  0.00  0.00     0.000 S
ATOM     48   O  SGN C   3      23.340  20.363  59.5560  0.00  0.00     0.000 OA
ATOM     49   O  SGN C   3      24.323  18.156  59.7410  0.00  0.00     0.000 OA
ATOM     50   O  SGN C   3      25.461  19.968  58.6780  0.00  0.00     0.000 OA
ENDBRANCH 38 47
BRANCH 41 51
ATOM     51   C  SGN C   3      20.837  15.880  54.4320  0.00  0.00     0.000 C
ATOM     52   O  SGN C   3      20.705  17.819  51.2540  0.00  0.00     0.000 OA
ATOM     53   O  SGN C   3      21.351  15.544  51.6250  0.00  0.00     0.000 OA
ATOM     54   O  SGN C   3      19.094  16.251  52.0400  0.00  0.00     0.000 OA
ATOM     55   O  SGN C   3      20.954  16.934  53.5030  0.00  0.00     0.000 O
ATOM     56   S  SGN C   3      20.480  16.605  51.9620  0.00  0.00     0.000 S
ENDBRANCH 41 51
BRANCH 37 57
ATOM     57  O4  IDS C   4      22.892  15.901  57.8990  0.00  0.00     0.000 O
BRANCH 57 61
ATOM     58  C1  IDS C   4      24.675  12.736  59.0290  0.00  0.00     0.000 C
ATOM     59  C2  IDS C   4      25.489  13.854  58.4600  0.00  0.00     0.000 C
ATOM     60  C3  IDS C   4      24.814  14.529  57.2640  0.00  0.00     0.000 C
ATOM     61  C4  IDS C   4      23.297  14.647  57.3150  0.00  0.00     0.000 C
ATOM     62  C5  IDS C   4      22.685  13.465  58.0780  0.00  0.00     0.000 C
ATOM     63  O5  IDS C   4      23.368  13.215  59.2980  0.00  0.00     0.000 O
ATOM     64   O  IDS C   4      25.161  13.735  56.1440  0.00  0.00     0.000 O
ATOM     66  HD  IDS C   4      24.460  13.340  55.8240  0.00  0.00     0.000 HD
BRANCH 59 66
ATOM     66   O  IDS C   4      25.727  14.915  59.4580  0.00  0.00     0.000 O
ATOM     67   S  IDS C   4      27.227  15.100  59.9550  0.00  0.00     0.000 S
ATOM     68   O  IDS C   4      27.917  15.530  58.7620  0.00  0.00     0.000 OA
ATOM     69   O  IDS C   4      27.152  16.093  61.0080  0.00  0.00     0.000 OA
ATOM     70   O  IDS C   4      27.695  13.798  60.4060  0.00  0.00     0.000 OA
ENDBRANCH 59 66
BRANCH 62 71
ATOM     71   C  IDS C   4      21.235  13.691  58.4600  0.00  0.00     0.000 C
ATOM     72   O  IDS C   4      20.389  13.823  57.5970  0.00  0.00     0.000 OA
ATOM     73   O  IDS C   4      20.955  13.841  59.6670  0.00  0.00     0.000 OA
ENDBRANCH 62 71
BRANCH 58 74
ATOM     74  O4  SGN C   5      24.828  11.536  58.4010  0.00  0.00     0.000 O
BRANCH 74 78
ATOM     75  C1  SGN C   5      25.084   7.390  58.8370  0.00  0.00     0.000 C
ATOM     76  C2  SGN C   5      23.665   7.988  58.8810  0.00  0.00     0.000 C
ATOM     77  C3  SGN C   5      23.671   9.436  58.3750  0.00  0.00     0.000 C
ATOM     78  C4  SGN C   5      24.778  10.253  59.0260  0.00  0.00     0.000 C
ATOM     79  C5  SGN C   5      26.106   9.527  58.8650  0.00  0.00     0.000 C
ATOM     80  O5  SGN C   5      26.025   8.223  59.4990  0.00  0.00     0.000 O
ATOM     81   O  SGN C   5      22.399  10.022  58.6350  0.00  0.00     0.000 O
ATOM     83  HD  SGN C   5      21.666   9.565  58.5660  0.00  0.00     0.000 HD
BRANCH 76 85
ATOM     83   N  SGN C   5      22.330   7.426  58.6380  0.00  0.00     0.000 N
ATOM     85  HD  SGN C   5      21.716   6.828  58.7600  0.00  0.00     0.000 HD
ATOM     85   S  SGN C   5      21.889   5.891  58.4290  0.00  0.00     0.000 S
ATOM     86   O  SGN C   5      20.480   5.796  58.2670  0.00  0.00     0.000 OA
ATOM     87   O  SGN C   5      22.696   5.361  57.3890  0.00  0.00     0.000 OA
ATOM     88   O  SGN C   5      22.304   5.409  59.8170  0.00  0.00     0.000 OA
ENDBRANCH 76 85
BRANCH 79 89
ATOM     89   C  SGN C   5      27.280  10.276  59.4620  0.00  0.00     0.000 C
ATOM     90   O  SGN C   5      28.514   9.806  58.8680  0.00  0.00     0.000 O
ATOM     91   S  SGN C   5      29.703  10.876  58.7340  0.00  0.00     0.000 S
ATOM     92   O  SGN C   5      29.147  12.018  58.0580  0.00  0.00     0.000 OA
ATOM     93   O  SGN C   5      30.146  11.187  60.0680  0.00  0.00     0.000 OA
ATOM     94   O  SGN C   5      30.690  10.176  57.9570  0.00  0.00     0.000 OA
ENDBRANCH 79 89
BRANCH 75 95
ATOM     95  O4  BDP C   6      25.406   7.295  57.5130  0.00  0.00     0.000 O
BRANCH 95 99
ATOM     96  C1  BDP C   6      28.631   4.991  55.8580  0.00  0.00     0.000 C
ATOM     97  C2  BDP C   6      28.260   4.781  57.2990  0.00  0.00     0.000 C
ATOM     98  C3  BDP C   6      26.885   5.346  57.6880  0.00  0.00     0.000 C
ATOM     99  C4  BDP C   6      26.716   6.776  57.1970  0.00  0.00     0.000 C
ATOM    100  C5  BDP C   6      27.102   6.816  55.6990  0.00  0.00     0.000 C
ATOM    101  O5  BDP C   6      28.473   6.388  55.6930  0.00  0.00     0.000 O
BRANCH 100 102
ATOM    102   C  BDP C   6      27.047   8.207  55.1220  0.00  0.00     0.000 C
ATOM    103   O  BDP C   6      26.466   8.460  54.0560  0.00  0.00     0.000 OA
ATOM    104   O  BDP C   6      27.603   9.103  55.7680  0.00  0.00     0.000 OA
ENDBRANCH 100 102
ENDBRANCH 95 99
ENDBRANCH 75 95
ENDBRANCH 74 78
ENDBRANCH 58 74
ENDBRANCH 57 61
ENDBRANCH 37 57
ENDBRANCH 36 40
ENDBRANCH 23 36
ENDBRANCH 22 26
ENDBRANCH 1 22
TORSDOF 20
ENDMDL
MODEL 52
REMARK VINA RESULT:      -5.8     17.779     29.090
ROOT
ATOM      1  C1  NGY C   1      29.038   8.694  53.9970  0.00  0.00     0.000 C
ATOM      2  C2  NGY C   1      28.380   9.762  54.8600  0.00  0.00     0.000 C
ATOM      3  C3  NGY C   1      29.388  10.334  55.8520  0.00  0.00     0.000 C
ATOM      4  C4  NGY C   1      29.987   9.184  56.6390  0.00  0.00     0.000 C
ATOM      5  C5  NGY C   1      30.683   8.235  55.6680  0.00  0.00     0.000 C
ATOM      6  O5  NGY C   1      29.684   7.699  54.7620  0.00  0.00     0.000 O
ATOM      7   O  NGY C   1      28.734  11.274  56.6920  0.00  0.00     0.000 O
ATOM      9  HD  NGY C   1      27.957  11.362  57.0660  0.00  0.00     0.000 HD
ATOM      9   O  NGY C   1      30.912   9.658  57.6060  0.00  0.00     0.000 O
ATOM     11  HD  NGY C   1      30.136   9.747  57.9800  0.00  0.00     0.000 HD
ENDROOT
BRANCH 2 13
ATOM     11   N  NGY C   1      27.727  11.049  54.8600  0.00  0.00     0.000 N
ATOM     13  HD  NGY C   1      27.055  10.859  54.3480  0.00  0.00     0.000 HD
ATOM     13   C  NGY C   1      26.602  11.261  54.1780  0.00  0.00     0.000 C
ATOM     14   O  NGY C   1      26.154  10.410  53.4080  0.00  0.00     0.000 OA
ATOM     15   C  NGY C   1      25.906  12.566  54.4180  0.00  0.00     0.000 C
ENDBRANCH 2 13
BRANCH 5 16
ATOM     16   C  NGY C   1      31.335   7.047  56.2980  0.00  0.00     0.000 C
ATOM     17   O  NGY C   1      29.608   3.885  56.9880  0.00  0.00     0.000 OA
ATOM     18   O  NGY C   1      30.328   6.082  56.6130  0.00  0.00     0.000 O
ATOM     19   S  NGY C   1      30.842   4.618  56.8590  0.00  0.00     0.000 S
ATOM     20   O  NGY C   1      31.601   4.633  58.0830  0.00  0.00     0.000 OA
ATOM     21   O  NGY C   1      31.641   4.308  55.6850  0.00  0.00     0.000 OA
ENDBRANCH 5 16
BRANCH 1 22
ATOM     22  O4  BDP C   2      29.869   9.296  53.1200  0.00  0.00     0.000 O
BRANCH 22 26
ATOM     23  C1  BDP C   2      30.887   9.614  49.1410  0.00  0.00     0.000 C
ATOM     24  C2  BDP C   2      29.581   8.910  49.4240  0.00  0.00     0.000 C
ATOM     25  C3  BDP C   2      29.156   9.182  50.8430  0.00  0.00     0.000 C
ATOM     26  C4  BDP C   2      30.284   8.830  51.8080  0.00  0.00     0.000 C
ATOM     27  C5  BDP C   2      31.588   9.452  51.3280  0.00  0.00     0.000 C
ATOM     28  O5  BDP C   2      31.936   9.051  49.9780  0.00  0.00     0.000 O
ATOM     29   O  BDP C   2      28.503   9.429  48.6450  0.00  0.00     0.000 O
ATOM     31  HD  BDP C   2      27.727   9.458  49.0280  0.00  0.00     0.000 HD
ATOM     31   O  BDP C   2      28.021   8.364  51.0990  0.00  0.00     0.000 O
ATOM     33  HD  BDP C   2      27.245   8.394  51.4830  0.00  0.00     0.000 HD
BRANCH 27 33
ATOM     33   C  BDP C   2      32.766   9.060  52.1880  0.00  0.00     0.000 C
ATOM     34   O  BDP C   2      33.381   7.980  52.0230  0.00  0.00     0.000 OA
ATOM     35   O  BDP C   2      33.100   9.810  53.0910  0.00  0.00     0.000 OA
ENDBRANCH 27 33
BRANCH 23 36
ATOM     36  O4  SGN C   3      31.311   9.556  47.8580  0.00  0.00     0.000 O
BRANCH 36 40
ATOM     37  C1  SGN C   3      33.020  11.668  44.6880  0.00  0.00     0.000 C
ATOM     38  C2  SGN C   3      33.935  11.272  45.8580  0.00  0.00     0.000 C
ATOM     39  C3  SGN C   3      33.294  10.167  46.6850  0.00  0.00     0.000 C
ATOM     40  C4  SGN C   3      31.931  10.632  47.1500  0.00  0.00     0.000 C
ATOM     41  C5  SGN C   3      31.110  11.022  45.9400  0.00  0.00     0.000 C
ATOM     42  O5  SGN C   3      31.771  12.077  45.2240  0.00  0.00     0.000 O
ATOM     43   O  SGN C   3      34.133   9.862  47.7920  0.00  0.00     0.000 O
ATOM     45  HD  SGN C   3      33.309   9.682  47.9880  0.00  0.00     0.000 HD
BRANCH 38 47
ATOM     45   N  SGN C   3      34.711  12.400  45.3130  0.00  0.00     0.000 N
ATOM     47  HD  SGN C   3      34.002  12.122  45.7250  0.00  0.00     0.000 HD
ATOM     47   S  SGN C   3      36.207  11.987  44.9720  0.00  0.00     0.000 S
ATOM     48   O  SGN C   3      36.936  11.664  46.1480  0.00  0.00     0.000 OA
ATOM     49   O  SGN C   3      36.134  10.978  43.9670  0.00  0.00     0.000 OA
ATOM     50   O  SGN C   3      36.747  13.237  44.4420  0.00  0.00     0.000 OA
ENDBRANCH 38 47
BRANCH 41 51
ATOM     51   C  SGN C   3      29.722  11.502  46.2670  0.00  0.00     0.000 C
ATOM     52   O  SGN C   3      28.774  14.220  48.6310  0.00  0.00     0.000 OA
ATOM     53   O  SGN C   3      27.737  13.556  46.5790  0.00  0.00     0.000 OA
ATOM     54   O  SGN C   3      27.779  12.064  48.4600  0.00  0.00     0.000 OA
ATOM     55   O  SGN C   3      29.814  12.580  47.1710  0.00  0.00     0.000 O
ATOM     56   S  SGN C   3      28.392  13.157  47.7660  0.00  0.00     0.000 S
ENDBRANCH 41 51
BRANCH 37 57
ATOM     57  O4  IDS C   4      32.792  10.680  43.7890  0.00  0.00     0.000 O
BRANCH 57 61
ATOM     58  C1  IDS C   4      32.937  10.472  39.9930  0.00  0.00     0.000 C
ATOM     59  C2  IDS C   4      33.457  11.703  40.6650  0.00  0.00     0.000 C
ATOM     60  C3  IDS C   4      32.587  12.146  41.8440  0.00  0.00     0.000 C
ATOM     61  C4  IDS C   4      31.952  11.041  42.6760  0.00  0.00     0.000 C
ATOM     62  C5  IDS C   4      31.639   9.817  41.8060  0.00  0.00     0.000 C
ATOM     63  O5  IDS C   4      32.736   9.469  40.9740  0.00  0.00     0.000 O
ATOM     64   O  IDS C   4      31.551  12.923  41.2710  0.00  0.00     0.000 O
ATOM     66  HD  IDS C   4      30.788  12.523  41.3580  0.00  0.00     0.000 HD
BRANCH 59 66
ATOM     66   O  IDS C   4      34.815  11.494  41.2040  0.00  0.00     0.000 O
ATOM     67   S  IDS C   4      35.981  12.351  40.5410  0.00  0.00     0.000 S
ATOM     68   O  IDS C   4      35.631  13.707  40.8890  0.00  0.00     0.000 OA
ATOM     69   O  IDS C   4      37.199  11.858  41.1530  0.00  0.00     0.000 OA
ATOM     70   O  IDS C   4      35.914  12.131  39.1050  0.00  0.00     0.000 OA
ENDBRANCH 59 66
BRANCH 62 71
ATOM     71   C  IDS C   4      31.330   8.574  42.6170  0.00  0.00     0.000 C
ATOM     72   O  IDS C   4      32.059   7.603  42.5480  0.00  0.00     0.000 OA
ATOM     73   O  IDS C   4      30.266   8.538  43.2660  0.00  0.00     0.000 OA
ENDBRANCH 62 71
BRANCH 58 74
ATOM     74  O4  SGN C   5      31.969  10.693  39.0580  0.00  0.00     0.000 O
BRANCH 74 78
ATOM     75  C1  SGN C   5      30.453   9.669  35.3040  0.00  0.00     0.000 C
ATOM     76  C2  SGN C   5      30.243   8.632  36.4230  0.00  0.00     0.000 C
ATOM     77  C3  SGN C   5      30.525   9.253  37.7970  0.00  0.00     0.000 C
ATOM     78  C4  SGN C   5      31.844  10.014  37.8090  0.00  0.00     0.000 C
ATOM     79  C5  SGN C   5      31.866  11.007  36.6560  0.00  0.00     0.000 C
ATOM     80  O5  SGN C   5      31.727  10.293  35.3990  0.00  0.00     0.000 O
ATOM     81   O  SGN C   5      30.536   8.220  38.7770  0.00  0.00     0.000 O
ATOM     83  HD  SGN C   5      29.993   7.547  38.7340  0.00  0.00     0.000 HD
BRANCH 76 85
ATOM     83   N  SGN C   5      29.746   7.377  35.8440  0.00  0.00     0.000 N
ATOM     85  HD  SGN C   5      29.213   6.928  35.3310  0.00  0.00     0.000 HD
ATOM     85   S  SGN C   5      28.231   6.911  35.5620  0.00  0.00     0.000 S
ATOM     86   O  SGN C   5      28.211   5.630  34.9450  0.00  0.00     0.000 OA
ATOM     87   O  SGN C   5      27.515   7.052  36.7800  0.00  0.00     0.000 OA
ATOM     88   O  SGN C   5      27.908   8.003  34.5450  0.00  0.00     0.000 OA
ENDBRANCH 76 85
BRANCH 79 89
ATOM     89   C  SGN C   5      33.134  11.834  36.5960  0.00  0.00     0.000 C
ATOM     90   O  SGN C   5      33.272  12.425  35.2810  0.00  0.00     0.000 O
ATOM     91   S  SGN C   5      34.009  13.849  35.2030  0.00  0.00     0.000 S
ATOM     92   O  SGN C   5      33.335  14.706  36.1430  0.00  0.00     0.000 OA
ATOM     93   O  SGN C   5      35.390  13.631  35.5490  0.00  0.00     0.000 OA
ATOM     94   O  SGN C   5      33.822  14.243  33.8330  0.00  0.00     0.000 OA
ENDBRANCH 79 89
BRANCH 75 95
ATOM     95  O4  BDP C   6      29.471  10.603  35.4730  0.00  0.00     0.000 O
BRANCH 95 99
ATOM     96  C1  BDP C   6      27.895  13.370  32.5900  0.00  0.00     0.000 C
ATOM     97  C2  BDP C   6      28.579  12.126  32.0970  0.00  0.00     0.000 C
ATOM     98  C3  BDP C   6      28.761  11.037  33.1650  0.00  0.00     0.000 C
ATOM     99  C4  BDP C   6      29.347  11.612  34.4460  0.00  0.00     0.000 C
ATOM    100  C5  BDP C   6      28.515  12.856  34.8370  0.00  0.00     0.000 C
ATOM    101  O5  BDP C   6      28.677  13.735  33.7120  0.00  0.00     0.000 O
BRANCH 100 102
ATOM    102   C  BDP C   6      29.056  13.558  36.0560  0.00  0.00     0.000 C
ATOM    103   O  BDP C   6      28.516  13.464  37.1680  0.00  0.00     0.000 OA
ATOM    104   O  BDP C   6      30.082  14.231  35.9050  0.00  0.00     0.000 OA
ENDBRANCH 100 102
ENDBRANCH 95 99
ENDBRANCH 75 95
ENDBRANCH 74 78
ENDBRANCH 58 74
ENDBRANCH 57 61
ENDBRANCH 37 57
ENDBRANCH 36 40
ENDBRANCH 23 36
ENDBRANCH 22 26
ENDBRANCH 1 22
TORSDOF 20
ENDMDL
MODEL 53
REMARK VINA RESULT:      -5.8     12.262     20.643
ROOT
ATOM      1  C1  NGY C   1      26.817  18.141  32.7910  0.00  0.00     0.000 C
ATOM      2  C2  NGY C   1      27.483  19.490  33.0280  0.00  0.00     0.000 C
ATOM      3  C3  NGY C   1      27.012  20.086  34.3510  0.00  0.00     0.000 C
ATOM      4  C4  NGY C   1      25.497  20.139  34.3370  0.00  0.00     0.000 C
ATOM      5  C5  NGY C   1      24.959  18.720  34.1770  0.00  0.00     0.000 C
ATOM      6  O5  NGY C   1      25.411  18.204  32.8980  0.00  0.00     0.000 O
ATOM      7   O  NGY C   1      27.590  21.374  34.5140  0.00  0.00     0.000 O
ATOM      9  HD  NGY C   1      27.798  22.047  34.0100  0.00  0.00     0.000 HD
ATOM      9   O  NGY C   1      24.997  20.719  35.5330  0.00  0.00     0.000 O
ATOM     11  HD  NGY C   1      25.205  21.392  35.0300  0.00  0.00     0.000 HD
ENDROOT
BRANCH 2 13
ATOM     11   N  NGY C   1      28.742  20.166  33.2290  0.00  0.00     0.000 N
ATOM     13  HD  NGY C   1      29.126  19.961  32.4800  0.00  0.00     0.000 HD
ATOM     13   C  NGY C   1      29.706  20.136  32.3100  0.00  0.00     0.000 C
ATOM     14   O  NGY C   1      29.616  19.412  31.3170  0.00  0.00     0.000 OA
ATOM     15   C  NGY C   1      30.879  21.041  32.5340  0.00  0.00     0.000 C
ENDBRANCH 2 13
BRANCH 5 16
ATOM     16   C  NGY C   1      23.468  18.605  34.1550  0.00  0.00     0.000 C
ATOM     17   O  NGY C   1      21.380  19.556  31.2920  0.00  0.00     0.000 OA
ATOM     18   O  NGY C   1      22.973  19.259  32.9830  0.00  0.00     0.000 O
ATOM     19   S  NGY C   1      21.513  18.870  32.5520  0.00  0.00     0.000 S
ATOM     20   O  NGY C   1      20.621  19.390  33.5550  0.00  0.00     0.000 OA
ATOM     21   O  NGY C   1      21.527  17.418  32.4830  0.00  0.00     0.000 OA
ENDBRANCH 5 16
BRANCH 1 22
ATOM     22  O4  BDP C   2      27.361  17.235  33.6300  0.00  0.00     0.000 O
BRANCH 22 26
ATOM     23  C1  BDP C   2      28.377  13.244  33.6830  0.00  0.00     0.000 C
ATOM     24  C2  BDP C   2      27.682  13.721  32.4300  0.00  0.00     0.000 C
ATOM     25  C3  BDP C   2      27.700  15.226  32.3840  0.00  0.00     0.000 C
ATOM     26  C4  BDP C   2      27.133  15.802  33.6770  0.00  0.00     0.000 C
ATOM     27  C5  BDP C   2      27.784  15.122  34.8740  0.00  0.00     0.000 C
ATOM     28  O5  BDP C   2      27.628  13.679  34.8530  0.00  0.00     0.000 O
ATOM     29   O  BDP C   2      28.378  13.339  31.2430  0.00  0.00     0.000 O
ATOM     31  HD  BDP C   2      28.364  13.904  30.5870  0.00  0.00     0.000 HD
ATOM     31   O  BDP C   2      26.893  15.616  31.2800  0.00  0.00     0.000 O
ATOM     33  HD  BDP C   2      26.879  16.181  30.6240  0.00  0.00     0.000 HD
BRANCH 27 33
ATOM     33   C  BDP C   2      27.194  15.578  36.1880  0.00  0.00     0.000 C
ATOM     34   O  BDP C   2      26.205  16.346  36.2420  0.00  0.00     0.000 OA
ATOM     35   O  BDP C   2      27.726  15.208  37.2220  0.00  0.00     0.000 OA
ENDBRANCH 27 33
BRANCH 23 36
ATOM     36  O4  SGN C   3      28.543  11.904  33.7800  0.00  0.00     0.000 O
BRANCH 36 40
ATOM     37  C1  SGN C   3      30.791   8.955  35.6990  0.00  0.00     0.000 C
ATOM     38  C2  SGN C   3      29.352   9.188  36.1870  0.00  0.00     0.000 C
ATOM     39  C3  SGN C   3      28.550   9.947  35.1400  0.00  0.00     0.000 C
ATOM     40  C4  SGN C   3      29.267  11.241  34.8190  0.00  0.00     0.000 C
ATOM     41  C5  SGN C   3      30.676  10.920  34.3710  0.00  0.00     0.000 C
ATOM     42  O5  SGN C   3      31.369  10.220  35.4160  0.00  0.00     0.000 O
ATOM     43   O  SGN C   3      27.243  10.199  35.6420  0.00  0.00     0.000 O
ATOM     45  HD  SGN C   3      27.462  10.809  35.0680  0.00  0.00     0.000 HD
BRANCH 38 47
ATOM     45   N  SGN C   3      29.880   8.603  37.4330  0.00  0.00     0.000 N
ATOM     47  HD  SGN C   3      29.844   9.278  36.8910  0.00  0.00     0.000 HD
ATOM     47   S  SGN C   3      29.087   7.295  37.8620  0.00  0.00     0.000 S
ATOM     48   O  SGN C   3      27.746   7.595  38.2190  0.00  0.00     0.000 OA
ATOM     49   O  SGN C   3      29.274   6.342  36.8170  0.00  0.00     0.000 OA
ATOM     50   O  SGN C   3      29.796   6.904  39.0800  0.00  0.00     0.000 OA
ENDBRANCH 38 47
BRANCH 41 51
ATOM     51   C  SGN C   3      31.499  12.128  34.0160  0.00  0.00     0.000 C
ATOM     52   O  SGN C   3      32.509  13.245  30.6080  0.00  0.00     0.000 OA
ATOM     53   O  SGN C   3      31.977  14.549  32.5450  0.00  0.00     0.000 OA
ATOM     54   O  SGN C   3      33.898  13.108  32.5380  0.00  0.00     0.000 OA
ATOM     55   O  SGN C   3      31.605  12.210  32.6120  0.00  0.00     0.000 O
ATOM     56   S  SGN C   3      32.590  13.388  32.0220  0.00  0.00     0.000 S
ENDBRANCH 41 51
BRANCH 37 57
ATOM     57  O4  IDS C   4      30.894   8.185  34.5880  0.00  0.00     0.000 O
BRANCH 57 61
ATOM     58  C1  IDS C   4      33.318   5.326  33.9380  0.00  0.00     0.000 C
ATOM     59  C2  IDS C   4      33.360   6.016  35.2650  0.00  0.00     0.000 C
ATOM     60  C3  IDS C   4      33.182   7.532  35.1500  0.00  0.00     0.000 C
ATOM     61  C4  IDS C   4      32.228   8.025  34.0700  0.00  0.00     0.000 C
ATOM     62  C5  IDS C   4      32.238   7.080  32.8630  0.00  0.00     0.000 C
ATOM     63  O5  IDS C   4      32.138   5.719  33.2590  0.00  0.00     0.000 O
ATOM     64   O  IDS C   4      34.473   8.039  34.8690  0.00  0.00     0.000 O
ATOM     66  HD  IDS C   4      34.501   8.370  34.0700  0.00  0.00     0.000 HD
BRANCH 59 66
ATOM     66   O  IDS C   4      32.290   5.535  36.1600  0.00  0.00     0.000 O
ATOM     67   S  IDS C   4      32.752   4.714  37.4420  0.00  0.00     0.000 S
ATOM     68   O  IDS C   4      33.490   5.689  38.2090  0.00  0.00     0.000 OA
ATOM     69   O  IDS C   4      31.521   4.258  38.0570  0.00  0.00     0.000 OA
ATOM     70   O  IDS C   4      33.611   3.636  36.9760  0.00  0.00     0.000 OA
ENDBRANCH 59 66
BRANCH 62 71
ATOM     71   C  IDS C   4      31.079   7.316  31.9140  0.00  0.00     0.000 C
ATOM     72   O  IDS C   4      30.117   6.572  31.9280  0.00  0.00     0.000 OA
ATOM     73   O  IDS C   4      31.186   8.217  31.0580  0.00  0.00     0.000 OA
ENDBRANCH 62 71
BRANCH 58 74
ATOM     74  O4  SGN C   5      34.502   5.308  33.2620  0.00  0.00     0.000 O
BRANCH 74 78
ATOM     75  C1  SGN C   5      36.874   3.269  30.4940  0.00  0.00     0.000 C
ATOM     76  C2  SGN C   5      35.867   4.277  29.9080  0.00  0.00     0.000 C
ATOM     77  C3  SGN C   5      35.313   5.192  31.0090  0.00  0.00     0.000 C
ATOM     78  C4  SGN C   5      34.856   4.395  32.2230  0.00  0.00     0.000 C
ATOM     79  C5  SGN C   5      35.979   3.476  32.6780  0.00  0.00     0.000 C
ATOM     80  O5  SGN C   5      36.328   2.565  31.6020  0.00  0.00     0.000 O
ATOM     81   O  SGN C   5      34.235   5.954  30.4760  0.00  0.00     0.000 O
ATOM     83  HD  SGN C   5      34.246   6.251  29.6620  0.00  0.00     0.000 HD
BRANCH 76 85
ATOM     83   N  SGN C   5      35.638   4.675  28.5130  0.00  0.00     0.000 N
ATOM     85  HD  SGN C   5      35.777   4.600  27.6620  0.00  0.00     0.000 HD
ATOM     85   S  SGN C   5      36.694   4.826  27.3060  0.00  0.00     0.000 S
ATOM     86   O  SGN C   5      36.026   5.192  26.1050  0.00  0.00     0.000 OA
ATOM     87   O  SGN C   5      37.727   5.686  27.7590  0.00  0.00     0.000 OA
ATOM     88   O  SGN C   5      37.108   3.357  27.2650  0.00  0.00     0.000 OA
ENDBRANCH 76 85
BRANCH 79 89
ATOM     89   C  SGN C   5      35.628   2.654  33.9020  0.00  0.00     0.000 C
ATOM     90   O  SGN C   5      36.734   1.782  34.2400  0.00  0.00     0.000 O
ATOM     91   S  SGN C   5      36.931   1.438  35.7960  0.00  0.00     0.000 S
ATOM     92   O  SGN C   5      36.969   2.699  36.4890  0.00  0.00     0.000 OA
ATOM     93   O  SGN C   5      35.812   0.624  36.1940  0.00  0.00     0.000 OA
ATOM     94   O  SGN C   5      38.184   0.733  35.8220  0.00  0.00     0.000 OA
ENDBRANCH 79 89
BRANCH 75 95
ATOM     95  O4  BDP C   6      37.946   4.010  30.9050  0.00  0.00     0.000 O
BRANCH 95 99
ATOM     96  C1  BDP C   6      42.100   2.948  30.6580  0.00  0.00     0.000 C
ATOM     97  C2  BDP C   6      41.112   2.199  29.8080  0.00  0.00     0.000 C
ATOM     98  C3  BDP C   6      39.745   2.885  29.6730  0.00  0.00     0.000 C
ATOM     99  C4  BDP C   6      39.207   3.317  31.0300  0.00  0.00     0.000 C
ATOM    100  C5  BDP C   6      40.324   4.100  31.7590  0.00  0.00     0.000 C
ATOM    101  O5  BDP C   6      41.390   3.144  31.8660  0.00  0.00     0.000 O
BRANCH 100 102
ATOM    102   C  BDP C   6      39.928   4.514  33.1530  0.00  0.00     0.000 C
ATOM    103   O  BDP C   6      40.111   5.664  33.5800  0.00  0.00     0.000 OA
ATOM    104   O  BDP C   6      39.395   3.653  33.8620  0.00  0.00     0.000 OA
ENDBRANCH 100 102
ENDBRANCH 95 99
ENDBRANCH 75 95
ENDBRANCH 74 78
ENDBRANCH 58 74
ENDBRANCH 57 61
ENDBRANCH 37 57
ENDBRANCH 36 40
ENDBRANCH 23 36
ENDBRANCH 22 26
ENDBRANCH 1 22
TORSDOF 20
ENDMDL
MODEL 54
REMARK VINA RESULT:      -5.8     30.499     37.842
ROOT
ATOM      1  C1  NGY C   1      30.666   6.411  53.7080  0.00  0.00     0.000 C
ATOM      2  C2  NGY C   1      32.086   6.082  54.1450  0.00  0.00     0.000 C
ATOM      3  C3  NGY C   1      33.017   7.251  53.8390  0.00  0.00     0.000 C
ATOM      4  C4  NGY C   1      32.886   7.591  52.3660  0.00  0.00     0.000 C
ATOM      5  C5  NGY C   1      31.439   7.980  52.0800  0.00  0.00     0.000 C
ATOM      6  O5  NGY C   1      30.596   6.833  52.3620  0.00  0.00     0.000 O
ATOM      7   O  NGY C   1      34.347   6.893  54.1880  0.00  0.00     0.000 O
ATOM      9  HD  NGY C   1      34.842   6.183  54.1650  0.00  0.00     0.000 HD
ATOM      9   O  NGY C   1      33.758   8.654  52.0100  0.00  0.00     0.000 O
ATOM     11  HD  NGY C   1      34.253   7.944  51.9880  0.00  0.00     0.000 HD
ENDROOT
BRANCH 2 13
ATOM     11   N  NGY C   1      31.968   5.669  55.5230  0.00  0.00     0.000 N
ATOM     13  HD  NGY C   1      32.570   5.046  55.5290  0.00  0.00     0.000 HD
ATOM     13   C  NGY C   1      32.721   4.692  56.0260  0.00  0.00     0.000 C
ATOM     14   O  NGY C   1      33.445   4.008  55.3010  0.00  0.00     0.000 OA
ATOM     15   C  NGY C   1      32.660   4.492  57.5100  0.00  0.00     0.000 C
ENDBRANCH 2 13
BRANCH 5 16
ATOM     16   C  NGY C   1      31.150   8.354  50.6620  0.00  0.00     0.000 C
ATOM     17   O  NGY C   1      27.835   9.337  49.4350  0.00  0.00     0.000 OA
ATOM     18   O  NGY C   1      29.734   8.467  50.4950  0.00  0.00     0.000 O
ATOM     19   S  NGY C   1      29.260   9.271  49.2310  0.00  0.00     0.000 S
ATOM     20   O  NGY C   1      29.613   8.491  48.0740  0.00  0.00     0.000 OA
ATOM     21   O  NGY C   1      29.969  10.537  49.3160  0.00  0.00     0.000 OA
ENDBRANCH 5 16
BRANCH 1 22
ATOM     22  O4  BDP C   2      30.147   7.317  54.5630  0.00  0.00     0.000 O
BRANCH 22 26
ATOM     23  C1  BDP C   2      26.956   8.607  56.8260  0.00  0.00     0.000 C
ATOM     24  C2  BDP C   2      27.094   7.109  56.6920  0.00  0.00     0.000 C
ATOM     25  C3  BDP C   2      28.467   6.772  56.1720  0.00  0.00     0.000 C
ATOM     26  C4  BDP C   2      28.751   7.548  54.8900  0.00  0.00     0.000 C
ATOM     27  C5  BDP C   2      28.411   9.020  55.0900  0.00  0.00     0.000 C
ATOM     28  O5  BDP C   2      27.037   9.225  55.5110  0.00  0.00     0.000 O
ATOM     29   O  BDP C   2      27.040   6.443  57.9540  0.00  0.00     0.000 O
ATOM     31  HD  BDP C   2      27.546   5.746  58.0460  0.00  0.00     0.000 HD
ATOM     31   O  BDP C   2      28.478   5.375  55.9090  0.00  0.00     0.000 O
ATOM     33  HD  BDP C   2      28.984   4.678  56.0010  0.00  0.00     0.000 HD
BRANCH 27 33
ATOM     33   C  BDP C   2      28.577   9.828  53.8260  0.00  0.00     0.000 C
ATOM     34   O  BDP C   2      27.739   9.787  52.8940  0.00  0.00     0.000 OA
ATOM     35   O  BDP C   2      29.579  10.513  53.7030  0.00  0.00     0.000 OA
ENDBRANCH 27 33
BRANCH 23 36
ATOM     36  O4  SGN C   3      25.812   9.034  57.4090  0.00  0.00     0.000 O
BRANCH 36 40
ATOM     37  C1  SGN C   3      24.105  11.743  60.0880  0.00  0.00     0.000 C
ATOM     38  C2  SGN C   3      24.826  12.315  58.8560  0.00  0.00     0.000 C
ATOM     39  C3  SGN C   3      24.994  11.240  57.7920  0.00  0.00     0.000 C
ATOM     40  C4  SGN C   3      25.730  10.064  58.3980  0.00  0.00     0.000 C
ATOM     41  C5  SGN C   3      24.966   9.583  59.6110  0.00  0.00     0.000 C
ATOM     42  O5  SGN C   3      24.863  10.646  60.5720  0.00  0.00     0.000 O
ATOM     43   O  SGN C   3      25.715  11.780  56.6910  0.00  0.00     0.000 O
ATOM     45  HD  SGN C   3      25.846  10.925  56.7390  0.00  0.00     0.000 HD
BRANCH 38 47
ATOM     45   N  SGN C   3      24.749  13.450  59.7930  0.00  0.00     0.000 N
ATOM     47  HD  SGN C   3      25.023  12.645  59.6290  0.00  0.00     0.000 HD
ATOM     47   S  SGN C   3      24.286  14.789  59.0730  0.00  0.00     0.000 S
ATOM     48   O  SGN C   3      25.257  15.237  58.1390  0.00  0.00     0.000 OA
ATOM     49   O  SGN C   3      22.974  14.547  58.5670  0.00  0.00     0.000 OA
ATOM     50   O  SGN C   3      24.268  15.735  60.1870  0.00  0.00     0.000 OA
ENDBRANCH 38 47
BRANCH 41 51
ATOM     51   C  SGN C   3      25.594   8.406  60.3070  0.00  0.00     0.000 C
ATOM     52   O  SGN C   3      28.936   8.278  61.9490  0.00  0.00     0.000 OA
ATOM     53   O  SGN C   3      26.902   7.161  62.5420  0.00  0.00     0.000 OA
ATOM     54   O  SGN C   3      28.007   6.660  60.4690  0.00  0.00     0.000 OA
ATOM     55   O  SGN C   3      26.843   8.800  60.8320  0.00  0.00     0.000 O
ATOM     56   S  SGN C   3      27.757   7.612  61.5100  0.00  0.00     0.000 S
ENDBRANCH 41 51
BRANCH 37 57
ATOM     57  O4  IDS C   4      22.840  11.314  59.8550  0.00  0.00     0.000 O
BRANCH 57 61
ATOM     58  C1  IDS C   4      19.260  11.650  61.0960  0.00  0.00     0.000 C
ATOM     59  C2  IDS C   4      20.239  12.730  61.4290  0.00  0.00     0.000 C
ATOM     60  C3  IDS C   4      21.623  12.184  61.7890  0.00  0.00     0.000 C
ATOM     61  C4  IDS C   4      22.087  10.950  61.0280  0.00  0.00     0.000 C
ATOM     62  C5  IDS C   4      20.895  10.059  60.6580  0.00  0.00     0.000 C
ATOM     63  O5  IDS C   4      19.827  10.812  60.1030  0.00  0.00     0.000 O
ATOM     64   O  IDS C   4      21.548  11.857  63.1640  0.00  0.00     0.000 O
ATOM     66  HD  IDS C   4      21.607  11.001  63.2760  0.00  0.00     0.000 HD
BRANCH 59 66
ATOM     66   O  IDS C   4      20.436  13.653  60.2940  0.00  0.00     0.000 O
ATOM     67   S  IDS C   4      19.955  15.154  60.5070  0.00  0.00     0.000 S
ATOM     68   O  IDS C   4      20.827  15.634  61.5520  0.00  0.00     0.000 OA
ATOM     69   O  IDS C   4      20.138  15.791  59.2180  0.00  0.00     0.000 OA
ATOM     70   O  IDS C   4      18.569  15.103  60.9470  0.00  0.00     0.000 OA
ENDBRANCH 59 66
BRANCH 62 71
ATOM     71   C  IDS C   4      21.238   9.008  59.6200  0.00  0.00     0.000 C
ATOM     72   O  IDS C   4      20.676   9.010  58.5410  0.00  0.00     0.000 OA
ATOM     73   O  IDS C   4      22.023   8.092  59.9380  0.00  0.00     0.000 OA
ENDBRANCH 62 71
BRANCH 58 74
ATOM     74  O4  SGN C   5      18.640  11.084  62.1700  0.00  0.00     0.000 O
BRANCH 74 78
ATOM     75  C1  SGN C   5      15.090   9.500  63.6970  0.00  0.00     0.000 C
ATOM     76  C2  SGN C   5      15.663   8.797  62.4520  0.00  0.00     0.000 C
ATOM     77  C3  SGN C   5      17.111   9.238  62.1990  0.00  0.00     0.000 C
ATOM     78  C4  SGN C   5      17.254  10.752  62.2560  0.00  0.00     0.000 C
ATOM     79  C5  SGN C   5      16.660  11.269  63.5580  0.00  0.00     0.000 C
ATOM     80  O5  SGN C   5      15.255  10.911  63.6260  0.00  0.00     0.000 O
ATOM     81   O  SGN C   5      17.529   8.744  60.9310  0.00  0.00     0.000 O
ATOM     83  HD  SGN C   5      17.280   7.967  60.6410  0.00  0.00     0.000 HD
BRANCH 76 85
ATOM     83   N  SGN C   5      15.019   7.614  63.0370  0.00  0.00     0.000 N
ATOM     85  HD  SGN C   5      14.889   6.760  63.0910  0.00  0.00     0.000 HD
ATOM     85   S  SGN C   5      14.453   6.294  62.3090  0.00  0.00     0.000 S
ATOM     86   O  SGN C   5      13.949   5.374  63.2700  0.00  0.00     0.000 OA
ATOM     87   O  SGN C   5      13.558   6.725  61.2960  0.00  0.00     0.000 OA
ATOM     88   O  SGN C   5      15.796   5.817  61.7620  0.00  0.00     0.000 OA
ENDBRANCH 76 85
BRANCH 79 89
ATOM     89   C  SGN C   5      16.777  12.771  63.7210  0.00  0.00     0.000 C
ATOM     90   O  SGN C   5      15.464  13.377  63.6280  0.00  0.00     0.000 O
ATOM     91   S  SGN C   5      15.224  14.712  64.4870  0.00  0.00     0.000 S
ATOM     92   O  SGN C   5      15.613  14.402  65.8380  0.00  0.00     0.000 OA
ATOM     93   O  SGN C   5      16.041  15.744  63.9020  0.00  0.00     0.000 OA
ATOM     94   O  SGN C   5      13.814  14.952  64.3380  0.00  0.00     0.000 OA
ENDBRANCH 79 89
BRANCH 75 95
ATOM     95  O4  BDP C   6      15.795   9.009  64.7600  0.00  0.00     0.000 O
BRANCH 95 99
ATOM     96  C1  BDP C   6      14.750   8.648  68.9100  0.00  0.00     0.000 C
ATOM     97  C2  BDP C   6      13.690   8.398  67.8750  0.00  0.00     0.000 C
ATOM     98  C3  BDP C   6      14.231   8.174  66.4550  0.00  0.00     0.000 C
ATOM     99  C4  BDP C   6      15.243   9.245  66.0730  0.00  0.00     0.000 C
ATOM    100  C5  BDP C   6      16.278   9.354  67.2170  0.00  0.00     0.000 C
ATOM    101  O5  BDP C   6      15.483   9.725  68.3550  0.00  0.00     0.000 O
BRANCH 100 102
ATOM    102   C  BDP C   6      17.290  10.446  66.9820  0.00  0.00     0.000 C
ATOM    103   O  BDP C   6      17.041  11.639  67.2050  0.00  0.00     0.000 OA
ATOM    104   O  BDP C   6      18.401  10.097  66.5640  0.00  0.00     0.000 OA
ENDBRANCH 100 102
ENDBRANCH 95 99
ENDBRANCH 75 95
ENDBRANCH 74 78
ENDBRANCH 58 74
ENDBRANCH 57 61
ENDBRANCH 37 57
ENDBRANCH 36 40
ENDBRANCH 23 36
ENDBRANCH 22 26
ENDBRANCH 1 22
TORSDOF 20
ENDMDL
MODEL 55
REMARK VINA RESULT:      -5.7     20.099     32.246
ROOT
ATOM      1  C1  NGY C   1      29.282   5.781  57.9880  0.00  0.00     0.000 C
ATOM      2  C2  NGY C   1      28.507   6.512  59.0760  0.00  0.00     0.000 C
ATOM      3  C3  NGY C   1      29.443   7.410  59.8790  0.00  0.00     0.000 C
ATOM      4  C4  NGY C   1      30.588   6.562  60.3980  0.00  0.00     0.000 C
ATOM      5  C5  NGY C   1      31.328   5.956  59.2090  0.00  0.00     0.000 C
ATOM      6  O5  NGY C   1      30.407   5.094  58.4920  0.00  0.00     0.000 O
ATOM      7   O  NGY C   1      28.713   8.024  60.9310  0.00  0.00     0.000 O
ATOM      9  HD  NGY C   1      28.071   7.809  61.4700  0.00  0.00     0.000 HD
ATOM      9   O  NGY C   1      31.480   7.338  61.1850  0.00  0.00     0.000 O
ATOM     11  HD  NGY C   1      30.838   7.123  61.7240  0.00  0.00     0.000 HD
ENDROOT
BRANCH 2 13
ATOM     11   N  NGY C   1      27.474   7.403  58.6040  0.00  0.00     0.000 N
ATOM     13  HD  NGY C   1      26.793   7.039  58.9950  0.00  0.00     0.000 HD
ATOM     13   C  NGY C   1      26.198   7.239  58.9490  0.00  0.00     0.000 C
ATOM     14   O  NGY C   1      25.830   6.239  59.5680  0.00  0.00     0.000 OA
ATOM     15   C  NGY C   1      25.252   8.338  58.5730  0.00  0.00     0.000 C
ENDBRANCH 2 13
BRANCH 5 16
ATOM     16   C  NGY C   1      32.498   5.095  59.5610  0.00  0.00     0.000 C
ATOM     17   O  NGY C   1      33.574   2.193  57.5900  0.00  0.00     0.000 OA
ATOM     18   O  NGY C   1      32.495   3.945  58.7100  0.00  0.00     0.000 O
ATOM     19   S  NGY C   1      33.856   3.166  58.6150  0.00  0.00     0.000 S
ATOM     20   O  NGY C   1      34.089   2.558  59.8980  0.00  0.00     0.000 OA
ATOM     21   O  NGY C   1      34.836   4.182  58.2680  0.00  0.00     0.000 OA
ENDBRANCH 5 16
BRANCH 1 22
ATOM     22  O4  BDP C   2      29.603   6.662  57.0170  0.00  0.00     0.000 O
BRANCH 22 26
ATOM     23  C1  BDP C   2      30.236   7.596  53.0560  0.00  0.00     0.000 C
ATOM     24  C2  BDP C   2      28.892   6.983  53.3730  0.00  0.00     0.000 C
ATOM     25  C3  BDP C   2      28.651   7.033  54.8590  0.00  0.00     0.000 C
ATOM     26  C4  BDP C   2      29.822   6.404  55.6050  0.00  0.00     0.000 C
ATOM     27  C5  BDP C   2      31.135   6.971  55.0810  0.00  0.00     0.000 C
ATOM     28  O5  BDP C   2      31.292   6.790  53.6500  0.00  0.00     0.000 O
ATOM     29   O  BDP C   2      27.808   7.739  52.8300  0.00  0.00     0.000 O
ATOM     31  HD  BDP C   2      27.085   7.774  53.3050  0.00  0.00     0.000 HD
ATOM     31   O  BDP C   2      27.460   6.298  55.1090  0.00  0.00     0.000 O
ATOM     33  HD  BDP C   2      26.736   6.334  55.5840  0.00  0.00     0.000 HD
BRANCH 27 33
ATOM     33   C  BDP C   2      32.340   6.316  55.7120  0.00  0.00     0.000 C
ATOM     34   O  BDP C   2      32.521   5.076  55.6730  0.00  0.00     0.000 OA
ATOM     35   O  BDP C   2      33.139   7.022  56.3060  0.00  0.00     0.000 OA
ENDBRANCH 27 33
BRANCH 23 36
ATOM     36  O4  SGN C   3      30.516   7.730  51.7390  0.00  0.00     0.000 O
BRANCH 36 40
ATOM     37  C1  SGN C   3      32.245  10.229  48.8760  0.00  0.00     0.000 C
ATOM     38  C2  SGN C   3      33.128   9.132  49.4940  0.00  0.00     0.000 C
ATOM     39  C3  SGN C   3      32.267   8.067  50.1570  0.00  0.00     0.000 C
ATOM     40  C4  SGN C   3      31.371   8.731  51.1810  0.00  0.00     0.000 C
ATOM     41  C5  SGN C   3      30.560   9.807  50.4930  0.00  0.00     0.000 C
ATOM     42  O5  SGN C   3      31.440  10.778  49.9070  0.00  0.00     0.000 O
ATOM     43   O  SGN C   3      33.109   7.098  50.7700  0.00  0.00     0.000 O
ATOM     45  HD  SGN C   3      32.351   7.136  51.1870  0.00  0.00     0.000 HD
BRANCH 38 47
ATOM     45   N  SGN C   3      34.127  10.079  48.9690  0.00  0.00     0.000 N
ATOM     47  HD  SGN C   3      33.479   9.920  49.5200  0.00  0.00     0.000 HD
ATOM     47   S  SGN C   3      35.239   9.352  48.0960  0.00  0.00     0.000 S
ATOM     48   O  SGN C   3      36.036   8.486  48.8900  0.00  0.00     0.000 OA
ATOM     49   O  SGN C   3      34.565   8.763  46.9850  0.00  0.00     0.000 OA
ATOM     50   O  SGN C   3      36.076  10.477  47.6840  0.00  0.00     0.000 OA
ENDBRANCH 38 47
BRANCH 41 51
ATOM     51   C  SGN C   3      29.618  10.545  51.4050  0.00  0.00     0.000 C
ATOM     52   O  SGN C   3      30.419  12.092  54.6990  0.00  0.00     0.000 OA
ATOM     53   O  SGN C   3      28.869  12.802  53.0180  0.00  0.00     0.000 OA
ATOM     54   O  SGN C   3      28.537  10.728  54.1800  0.00  0.00     0.000 OA
ATOM     55   O  SGN C   3      30.339  11.011  52.5240  0.00  0.00     0.000 O
ATOM     56   S  SGN C   3      29.457  11.724  53.7160  0.00  0.00     0.000 S
ENDBRANCH 41 51
BRANCH 37 57
ATOM     57  O4  IDS C   4      31.428   9.804  47.8810  0.00  0.00     0.000 O
BRANCH 57 61
ATOM     58  C1  IDS C   4      30.142  10.229  44.3270  0.00  0.00     0.000 C
ATOM     59  C2  IDS C   4      31.570  10.564  44.6180  0.00  0.00     0.000 C
ATOM     60  C3  IDS C   4      31.748  11.281  45.9590  0.00  0.00     0.000 C
ATOM     61  C4  IDS C   4      30.826  10.847  47.0910  0.00  0.00     0.000 C
ATOM     62  C5  IDS C   4      29.465  10.402  46.5420  0.00  0.00     0.000 C
ATOM     63  O5  IDS C   4      29.605   9.525  45.4330  0.00  0.00     0.000 O
ATOM     64   O  IDS C   4      31.505  12.648  45.6860  0.00  0.00     0.000 O
ATOM     66  HD  IDS C   4      30.781  12.912  46.0810  0.00  0.00     0.000 HD
BRANCH 59 66
ATOM     66   O  IDS C   4      32.411   9.353  44.6770  0.00  0.00     0.000 O
ATOM     67   S  IDS C   4      33.210   8.978  43.3530  0.00  0.00     0.000 S
ATOM     68   O  IDS C   4      34.130  10.080  43.2020  0.00  0.00     0.000 OA
ATOM     69   O  IDS C   4      33.831   7.700  43.6410  0.00  0.00     0.000 OA
ATOM     70   O  IDS C   4      32.245   8.932  42.2660  0.00  0.00     0.000 OA
ENDBRANCH 59 66
BRANCH 62 71
ATOM     71   C  IDS C   4      28.632   9.645  47.5590  0.00  0.00     0.000 C
ATOM     72   O  IDS C   4      28.104  10.239  48.4790  0.00  0.00     0.000 OA
ATOM     73   O  IDS C   4      28.593   8.400  47.4860  0.00  0.00     0.000 OA
ENDBRANCH 62 71
BRANCH 58 74
ATOM     74  O4  SGN C   5      29.418  11.238  43.7630  0.00  0.00     0.000 O
BRANCH 74 78
ATOM     75  C1  SGN C   5      25.933  12.244  41.6940  0.00  0.00     0.000 C
ATOM     76  C2  SGN C   5      25.743  11.388  42.9610  0.00  0.00     0.000 C
ATOM     77  C3  SGN C   5      27.025  11.377  43.8040  0.00  0.00     0.000 C
ATOM     78  C4  SGN C   5      28.253  11.079  42.9550  0.00  0.00     0.000 C
ATOM     79  C5  SGN C   5      28.291  12.030  41.7680  0.00  0.00     0.000 C
ATOM     80  O5  SGN C   5      27.092  11.856  40.9680  0.00  0.00     0.000 O
ATOM     81   O  SGN C   5      26.887  10.410  44.8410  0.00  0.00     0.000 O
ATOM     83  HD  SGN C   5      26.131  10.278  45.2410  0.00  0.00     0.000 HD
BRANCH 76 85
ATOM     83   N  SGN C   5      24.324  11.645  42.6870  0.00  0.00     0.000 N
ATOM     85  HD  SGN C   5      23.552  11.982  42.8910  0.00  0.00     0.000 HD
ATOM     85   S  SGN C   5      23.065  11.608  43.6920  0.00  0.00     0.000 S
ATOM     86   O  SGN C   5      21.872  11.968  43.0070  0.00  0.00     0.000 OA
ATOM     87   O  SGN C   5      23.082  10.345  44.3380  0.00  0.00     0.000 OA
ATOM     88   O  SGN C   5      23.536  12.750  44.5890  0.00  0.00     0.000 OA
ENDBRANCH 76 85
BRANCH 79 89
ATOM     89   C  SGN C   5      29.495  11.827  40.8700  0.00  0.00     0.000 C
ATOM     90   O  SGN C   5      29.933  13.104  40.3430  0.00  0.00     0.000 O
ATOM     91   S  SGN C   5      31.504  13.264  40.0560  0.00  0.00     0.000 S
ATOM     92   O  SGN C   5      32.180  12.889  41.2710  0.00  0.00     0.000 OA
ATOM     93   O  SGN C   5      31.825  12.391  38.9560  0.00  0.00     0.000 OA
ATOM     94   O  SGN C   5      31.640  14.658  39.7320  0.00  0.00     0.000 OA
ENDBRANCH 79 89
BRANCH 75 95
ATOM     95  O4  BDP C   6      26.074  13.530  42.1310  0.00  0.00     0.000 O
BRANCH 95 99
ATOM     96  C1  BDP C   6      25.391  17.197  40.0010  0.00  0.00     0.000 C
ATOM     97  C2  BDP C   6      24.659  15.960  39.5620  0.00  0.00     0.000 C
ATOM     98  C3  BDP C   6      24.666  14.820  40.5920  0.00  0.00     0.000 C
ATOM     99  C4  BDP C   6      26.068  14.565  41.1240  0.00  0.00     0.000 C
ATOM    100  C5  BDP C   6      26.667  15.922  41.5640  0.00  0.00     0.000 C
ATOM    101  O5  BDP C   6      26.667  16.698  40.3550  0.00  0.00     0.000 O
BRANCH 100 102
ATOM    102   C  BDP C   6      28.092  15.802  42.0400  0.00  0.00     0.000 C
ATOM    103   O  BDP C   6      29.059  15.967  41.2820  0.00  0.00     0.000 OA
ATOM    104   O  BDP C   6      28.262  15.540  43.2360  0.00  0.00     0.000 OA
ENDBRANCH 100 102
ENDBRANCH 95 99
ENDBRANCH 75 95
ENDBRANCH 74 78
ENDBRANCH 58 74
ENDBRANCH 57 61
ENDBRANCH 37 57
ENDBRANCH 36 40
ENDBRANCH 23 36
ENDBRANCH 22 26
ENDBRANCH 1 22
TORSDOF 20
ENDMDL
MODEL 56
REMARK VINA RESULT:      -5.7      2.542      3.344
ROOT
ATOM      1  C1  NGY C   1      16.474  32.749  22.5840  0.00  0.00     0.000 C
ATOM      2  C2  NGY C   1      15.754  33.895  23.2830  0.00  0.00     0.000 C
ATOM      3  C3  NGY C   1      14.288  33.539  23.5050  0.00  0.00     0.000 C
ATOM      4  C4  NGY C   1      13.684  33.153  22.1690  0.00  0.00     0.000 C
ATOM      5  C5  NGY C   1      14.441  31.948  21.6190  0.00  0.00     0.000 C
ATOM      6  O5  NGY C   1      15.822  32.339  21.4010  0.00  0.00     0.000 O
ATOM      7   O  NGY C   1      13.622  34.649  24.0910  0.00  0.00     0.000 O
ATOM      9  HD  NGY C   1      13.651  35.512  24.0320  0.00  0.00     0.000 HD
ATOM      9   O  NGY C   1      12.305  32.842  22.3050  0.00  0.00     0.000 O
ATOM     11  HD  NGY C   1      12.333  33.705  22.2460  0.00  0.00     0.000 HD
ENDROOT
BRANCH 2 13
ATOM     11   N  NGY C   1      15.756  35.135  24.0220  0.00  0.00     0.000 N
ATOM     13  HD  NGY C   1      16.487  35.021  24.4730  0.00  0.00     0.000 HD
ATOM     13   C  NGY C   1      16.724  35.429  24.8890  0.00  0.00     0.000 C
ATOM     14   O  NGY C   1      17.576  34.595  25.1990  0.00  0.00     0.000 OA
ATOM     15   C  NGY C   1      16.734  36.823  25.4380  0.00  0.00     0.000 C
ENDBRANCH 2 13
BRANCH 5 16
ATOM     16   C  NGY C   1      13.954  31.438  20.3000  0.00  0.00     0.000 C
ATOM     17   O  NGY C   1      11.241  28.998  19.9220  0.00  0.00     0.000 OA
ATOM     18   O  NGY C   1      13.051  30.353  20.5320  0.00  0.00     0.000 O
ATOM     19   S  NGY C   1      12.106  29.987  19.3310  0.00  0.00     0.000 S
ATOM     20   O  NGY C   1      12.935  29.438  18.2900  0.00  0.00     0.000 OA
ATOM     21   O  NGY C   1      11.473  31.243  18.9670  0.00  0.00     0.000 OA
ENDBRANCH 5 16
BRANCH 1 22
ATOM     22  O4  BDP C   2      16.639  31.739  23.4640  0.00  0.00     0.000 O
BRANCH 22 26
ATOM     23  C1  BDP C   2      19.191  28.972  25.1360  0.00  0.00     0.000 C
ATOM     24  C2  BDP C   2      19.850  30.212  24.5810  0.00  0.00     0.000 C
ATOM     25  C3  BDP C   2      18.810  31.275  24.3440  0.00  0.00     0.000 C
ATOM     26  C4  BDP C   2      17.678  30.725  23.4840  0.00  0.00     0.000 C
ATOM     27  C5  BDP C   2      17.209  29.387  24.0400  0.00  0.00     0.000 C
ATOM     28  O5  BDP C   2      18.282  28.416  24.1440  0.00  0.00     0.000 O
ATOM     29   O  BDP C   2      20.744  30.817  25.5150  0.00  0.00     0.000 O
ATOM     31  HD  BDP C   2      20.783  31.682  25.5090  0.00  0.00     0.000 HD
ATOM     31   O  BDP C   2      19.460  32.346  23.6710  0.00  0.00     0.000 O
ATOM     33  HD  BDP C   2      19.498  33.211  23.6650  0.00  0.00     0.000 HD
BRANCH 27 33
ATOM     33   C  BDP C   2      16.153  28.740  23.1760  0.00  0.00     0.000 C
ATOM     34   O  BDP C   2      16.216  28.757  21.9230  0.00  0.00     0.000 OA
ATOM     35   O  BDP C   2      15.197  28.216  23.7230  0.00  0.00     0.000 OA
ENDBRANCH 27 33
BRANCH 23 36
ATOM     36  O4  SGN C   3      20.036  27.985  25.5150  0.00  0.00     0.000 O
BRANCH 36 40
ATOM     37  C1  SGN C   3      20.782  25.034  28.3720  0.00  0.00     0.000 C
ATOM     38  C2  SGN C   3      19.358  25.132  27.8010  0.00  0.00     0.000 C
ATOM     39  C3  SGN C   3      19.359  25.924  26.5020  0.00  0.00     0.000 C
ATOM     40  C4  SGN C   3      19.972  27.284  26.7590  0.00  0.00     0.000 C
ATOM     41  C5  SGN C   3      21.356  27.093  27.3390  0.00  0.00     0.000 C
ATOM     42  O5  SGN C   3      21.270  26.352  28.5670  0.00  0.00     0.000 O
ATOM     43   O  SGN C   3      18.024  26.049  26.0280  0.00  0.00     0.000 O
ATOM     45  HD  SGN C   3      18.498  26.718  25.7520  0.00  0.00     0.000 HD
BRANCH 38 47
ATOM     45   N  SGN C   3      19.118  24.414  29.0650  0.00  0.00     0.000 N
ATOM     47  HD  SGN C   3      19.368  25.139  28.6640  0.00  0.00     0.000 HD
ATOM     47   S  SGN C   3      18.266  23.090  28.8480  0.00  0.00     0.000 S
ATOM     48   O  SGN C   3      16.946  23.388  28.4180  0.00  0.00     0.000 OA
ATOM     49   O  SGN C   3      19.039  22.241  28.0020  0.00  0.00     0.000 OA
ATOM     50   O  SGN C   3      18.183  22.563  30.2090  0.00  0.00     0.000 OA
ENDBRANCH 38 47
BRANCH 41 51
ATOM     51   C  SGN C   3      22.081  28.377  27.6380  0.00  0.00     0.000 C
ATOM     52   O  SGN C   3      21.492  30.684  30.5030  0.00  0.00     0.000 OA
ATOM     53   O  SGN C   3      23.534  30.144  29.3760  0.00  0.00     0.000 OA
ATOM     54   O  SGN C   3      21.769  31.287  28.2160  0.00  0.00     0.000 OA
ATOM     55   O  SGN C   3      21.581  28.912  28.8440  0.00  0.00     0.000 O
ATOM     56   S  SGN C   3      22.147  30.396  29.2730  0.00  0.00     0.000 S
ENDBRANCH 41 51
BRANCH 37 57
ATOM     57  O4  IDS C   4      21.663  24.369  27.5850  0.00  0.00     0.000 O
BRANCH 57 61
ATOM     58  C1  IDS C   4      24.075  21.582  28.5270  0.00  0.00     0.000 C
ATOM     59  C2  IDS C   4      23.152  22.117  29.5750  0.00  0.00     0.000 C
ATOM     60  C3  IDS C   4      22.992  23.638  29.5030  0.00  0.00     0.000 C
ATOM     61  C4  IDS C   4      22.999  24.258  28.1120  0.00  0.00     0.000 C
ATOM     62  C5  IDS C   4      23.897  23.454  27.1640  0.00  0.00     0.000 C
ATOM     63  O5  IDS C   4      23.652  22.059  27.2620  0.00  0.00     0.000 O
ATOM     64   O  IDS C   4      24.086  24.163  30.2300  0.00  0.00     0.000 O
ATOM     66  HD  IDS C   4      24.629  24.582  29.7010  0.00  0.00     0.000 HD
BRANCH 59 66
ATOM     66   O  IDS C   4      21.797  21.548  29.4460  0.00  0.00     0.000 O
ATOM     67   S  IDS C   4      21.303  20.611  30.6340  0.00  0.00     0.000 S
ATOM     68   O  IDS C   4      21.238  21.514  31.7590  0.00  0.00     0.000 OA
ATOM     69   O  IDS C   4      20.024  20.091  30.1930  0.00  0.00     0.000 OA
ATOM     70   O  IDS C   4      22.319  19.588  30.8260  0.00  0.00     0.000 OA
ENDBRANCH 59 66
BRANCH 62 71
ATOM     71   C  IDS C   4      23.685  23.806  25.7040  0.00  0.00     0.000 C
ATOM     72   O  IDS C   4      23.919  24.931  25.3060  0.00  0.00     0.000 OA
ATOM     73   O  IDS C   4      23.171  22.950  24.9560  0.00  0.00     0.000 OA
ENDBRANCH 62 71
BRANCH 58 74
ATOM     74  O4  SGN C   5      25.399  21.630  28.8490  0.00  0.00     0.000 O
BRANCH 74 78
ATOM     75  C1  SGN C   5      29.059  19.619  28.8430  0.00  0.00     0.000 C
ATOM     76  C2  SGN C   5      28.600  20.190  27.4880  0.00  0.00     0.000 C
ATOM     77  C3  SGN C   5      27.444  21.181  27.6810  0.00  0.00     0.000 C
ATOM     78  C4  SGN C   5      26.361  20.609  28.5850  0.00  0.00     0.000 C
ATOM     79  C5  SGN C   5      26.989  20.118  29.8810  0.00  0.00     0.000 C
ATOM     80  O5  SGN C   5      27.969  19.088  29.5860  0.00  0.00     0.000 O
ATOM     81   O  SGN C   5      26.906  21.516  26.4060  0.00  0.00     0.000 O
ATOM     83  HD  SGN C   5      27.411  21.605  25.7090  0.00  0.00     0.000 HD
BRANCH 76 85
ATOM     83   N  SGN C   5      29.718  20.878  26.8310  0.00  0.00     0.000 N
ATOM     85  HD  SGN C   5      30.234  21.027  26.1510  0.00  0.00     0.000 HD
ATOM     85   S  SGN C   5      30.848  20.286  25.8480  0.00  0.00     0.000 S
ATOM     86   O  SGN C   5      31.714  21.323  25.4040  0.00  0.00     0.000 OA
ATOM     87   O  SGN C   5      31.448  19.186  26.5140  0.00  0.00     0.000 OA
ATOM     88   O  SGN C   5      29.894  19.867  24.7320  0.00  0.00     0.000 OA
ENDBRANCH 76 85
BRANCH 79 89
ATOM     89   C  SGN C   5      25.983  19.550  30.8630  0.00  0.00     0.000 C
ATOM     90   O  SGN C   5      26.639  18.607  31.7450  0.00  0.00     0.000 O
ATOM     91   S  SGN C   5      26.055  18.489  33.2360  0.00  0.00     0.000 S
ATOM     92   O  SGN C   5      26.014  19.828  33.7640  0.00  0.00     0.000 OA
ATOM     93   O  SGN C   5      24.745  17.898  33.1320  0.00  0.00     0.000 OA
ATOM     94   O  SGN C   5      27.008  17.641  33.8980  0.00  0.00     0.000 OA
ENDBRANCH 79 89
BRANCH 75 95
ATOM     95  O4  BDP C   6      29.610  20.669  29.5220  0.00  0.00     0.000 O
BRANCH 95 99
ATOM     96  C1  BDP C   6      32.221  20.305  32.9130  0.00  0.00     0.000 C
ATOM     97  C2  BDP C   6      31.818  19.059  32.1760  0.00  0.00     0.000 C
ATOM     98  C3  BDP C   6      31.217  19.312  30.7850  0.00  0.00     0.000 C
ATOM     99  C4  BDP C   6      30.142  20.388  30.8350  0.00  0.00     0.000 C
ATOM    100  C5  BDP C   6      30.721  21.608  31.5900  0.00  0.00     0.000 C
ATOM    101  O5  BDP C   6      31.037  21.081  32.8890  0.00  0.00     0.000 O
BRANCH 100 102
ATOM    102   C  BDP C   6      29.712  22.713  31.7700  0.00  0.00     0.000 C
ATOM    103   O  BDP C   6      28.951  23.070  30.8580  0.00  0.00     0.000 OA
ATOM    104   O  BDP C   6      29.664  23.250  32.8830  0.00  0.00     0.000 OA
ENDBRANCH 100 102
ENDBRANCH 95 99
ENDBRANCH 75 95
ENDBRANCH 74 78
ENDBRANCH 58 74
ENDBRANCH 57 61
ENDBRANCH 37 57
ENDBRANCH 36 40
ENDBRANCH 23 36
ENDBRANCH 22 26
ENDBRANCH 1 22
TORSDOF 20
ENDMDL
MODEL 57
REMARK VINA RESULT:      -5.7     34.528     37.754
ROOT
ATOM      1  C1  NGY C   1      14.286  18.992  66.1980  0.00  0.00     0.000 C
ATOM      2  C2  NGY C   1      14.776  19.645  67.4830  0.00  0.00     0.000 C
ATOM      3  C3  NGY C   1      14.314  18.840  68.6940  0.00  0.00     0.000 C
ATOM      4  C4  NGY C   1      12.808  18.683  68.6150  0.00  0.00     0.000 C
ATOM      5  C5  NGY C   1      12.459  17.945  67.3260  0.00  0.00     0.000 C
ATOM      6  O5  NGY C   1      12.894  18.757  66.2050  0.00  0.00     0.000 O
ATOM      7   O  NGY C   1      14.721  19.507  69.8810  0.00  0.00     0.000 O
ATOM      9  HD  NGY C   1      14.802  20.324  70.1560  0.00  0.00     0.000 HD
ATOM      9   O  NGY C   1      12.312  17.968  69.7380  0.00  0.00     0.000 O
ATOM     11  HD  NGY C   1      12.393  18.785  70.0130  0.00  0.00     0.000 HD
ENDROOT
BRANCH 2 13
ATOM     11   N  NGY C   1      15.542  20.869  67.4640  0.00  0.00     0.000 N
ATOM     13  HD  NGY C   1      16.313  20.548  67.6940  0.00  0.00     0.000 HD
ATOM     13   C  NGY C   1      16.840  20.884  67.7650  0.00  0.00     0.000 C
ATOM     14   O  NGY C   1      17.403  19.883  68.2090  0.00  0.00     0.000 OA
ATOM     15   C  NGY C   1      17.574  22.165  67.5090  0.00  0.00     0.000 C
ENDBRANCH 2 13
BRANCH 5 16
ATOM     16   C  NGY C   1      10.999  17.704  67.1080  0.00  0.00     0.000 C
ATOM     17   O  NGY C   1       9.559  16.600  63.9190  0.00  0.00     0.000 OA
ATOM     18   O  NGY C   1      10.771  17.499  65.7110  0.00  0.00     0.000 O
ATOM     19   S  NGY C   1       9.414  16.800  65.3390  0.00  0.00     0.000 S
ATOM     20   O  NGY C   1       8.358  17.725  65.6570  0.00  0.00     0.000 OA
ATOM     21   O  NGY C   1       9.391  15.592  66.1470  0.00  0.00     0.000 OA
ENDBRANCH 5 16
BRANCH 1 22
ATOM     22  O4  BDP C   2      15.001  17.868  65.9820  0.00  0.00     0.000 O
BRANCH 22 26
ATOM     23  C1  BDP C   2      16.898  15.263  63.4160  0.00  0.00     0.000 C
ATOM     24  C2  BDP C   2      17.183  16.728  63.1830  0.00  0.00     0.000 C
ATOM     25  C3  BDP C   2      16.741  17.526  64.3820  0.00  0.00     0.000 C
ATOM     26  C4  BDP C   2      15.287  17.213  64.7180  0.00  0.00     0.000 C
ATOM     27  C5  BDP C   2      15.078  15.705  64.7550  0.00  0.00     0.000 C
ATOM     28  O5  BDP C   2      15.461  15.055  63.5160  0.00  0.00     0.000 O
ATOM     29   O  BDP C   2      18.581  17.003  63.0930  0.00  0.00     0.000 O
ATOM     31  HD  BDP C   2      18.850  17.755  63.4270  0.00  0.00     0.000 HD
ATOM     31   O  BDP C   2      16.878  18.899  64.0370  0.00  0.00     0.000 O
ATOM     33  HD  BDP C   2      17.147  19.652  64.3710  0.00  0.00     0.000 HD
BRANCH 27 33
ATOM     33   C  BDP C   2      13.635  15.327  64.9870  0.00  0.00     0.000 C
ATOM     34   O  BDP C   2      13.303  14.446  65.8160  0.00  0.00     0.000 OA
ATOM     35   O  BDP C   2      12.776  15.877  64.3180  0.00  0.00     0.000 OA
ENDBRANCH 27 33
BRANCH 23 36
ATOM     36  O4  SGN C   3      17.369  14.423  62.4660  0.00  0.00     0.000 O
BRANCH 36 40
ATOM     37  C1  SGN C   3      18.808  10.563  61.7900  0.00  0.00     0.000 C
ATOM     38  C2  SGN C   3      17.326  10.836  61.4860  0.00  0.00     0.000 C
ATOM     39  C3  SGN C   3      17.075  12.331  61.3610  0.00  0.00     0.000 C
ATOM     40  C4  SGN C   3      17.539  13.013  62.6300  0.00  0.00     0.000 C
ATOM     41  C5  SGN C   3      18.995  12.672  62.8630  0.00  0.00     0.000 C
ATOM     42  O5  SGN C   3      19.146  11.249  62.9860  0.00  0.00     0.000 O
ATOM     43   O  SGN C   3      15.689  12.557  61.1390  0.00  0.00     0.000 O
ATOM     45  HD  SGN C   3      16.040  13.244  61.5330  0.00  0.00     0.000 HD
BRANCH 38 47
ATOM     45   N  SGN C   3      17.157   9.390  61.7160  0.00  0.00     0.000 N
ATOM     47  HD  SGN C   3      17.273  10.182  62.0470  0.00  0.00     0.000 HD
ATOM     47   S  SGN C   3      16.629   8.637  60.4200  0.00  0.00     0.000 S
ATOM     48   O  SGN C   3      15.309   9.043  60.0870  0.00  0.00     0.000 OA
ATOM     49   O  SGN C   3      17.624   8.808  59.4130  0.00  0.00     0.000 OA
ATOM     50   O  SGN C   3      16.566   7.253  60.8850  0.00  0.00     0.000 OA
ENDBRANCH 38 47
BRANCH 41 51
ATOM     51   C  SGN C   3      19.583  13.296  64.0990  0.00  0.00     0.000 C
ATOM     52   O  SGN C   3      22.035  16.095  64.2650  0.00  0.00     0.000 OA
ATOM     53   O  SGN C   3      20.244  15.548  65.7560  0.00  0.00     0.000 OA
ATOM     54   O  SGN C   3      22.108  14.056  65.4940  0.00  0.00     0.000 OA
ATOM     55   O  SGN C   3      20.429  14.357  63.7160  0.00  0.00     0.000 O
ATOM     56   S  SGN C   3      21.284  15.080  64.9220  0.00  0.00     0.000 S
ENDBRANCH 41 51
BRANCH 37 57
ATOM     57  O4  IDS C   4      19.667  10.957  60.8180  0.00  0.00     0.000 O
BRANCH 57 61
ATOM     58  C1  IDS C   4      22.975   9.955  59.2300  0.00  0.00     0.000 C
ATOM     59  C2  IDS C   4      22.227   8.938  60.0320  0.00  0.00     0.000 C
ATOM     60  C3  IDS C   4      21.594   9.529  61.2940  0.00  0.00     0.000 C
ATOM     61  C4  IDS C   4      21.060  10.951  61.1860  0.00  0.00     0.000 C
ATOM     62  C5  IDS C   4      21.893  11.771  60.1940  0.00  0.00     0.000 C
ATOM     63  O5  IDS C   4      22.122  11.060  58.9850  0.00  0.00     0.000 O
ATOM     64   O  IDS C   4      22.620   9.511  62.2680  0.00  0.00     0.000 O
ATOM     66  HD  IDS C   4      22.856  10.318  62.4760  0.00  0.00     0.000 HD
BRANCH 59 66
ATOM     66   O  IDS C   4      21.127   8.337  59.2540  0.00  0.00     0.000 O
ATOM     67   S  IDS C   4      21.214   6.770  58.9930  0.00  0.00     0.000 S
ATOM     68   O  IDS C   4      21.103   6.210  60.3190  0.00  0.00     0.000 OA
ATOM     69   O  IDS C   4      20.103   6.476  58.1100  0.00  0.00     0.000 OA
ATOM     70   O  IDS C   4      22.519   6.504  58.4070  0.00  0.00     0.000 OA
ENDBRANCH 59 66
BRANCH 62 71
ATOM     71   C  IDS C   4      21.222  13.068  59.7840  0.00  0.00     0.000 C
ATOM     72   O  IDS C   4      21.210  14.016  60.5460  0.00  0.00     0.000 OA
ATOM     73   O  IDS C   4      20.600  13.100  58.7030  0.00  0.00     0.000 OA
ENDBRANCH 62 71
BRANCH 58 74
ATOM     74  O4  SGN C   5      24.256  10.181  59.6390  0.00  0.00     0.000 O
BRANCH 74 78
ATOM     75  C1  SGN C   5      28.167  11.081  58.4810  0.00  0.00     0.000 C
ATOM     76  C2  SGN C   5      27.197  12.275  58.5690  0.00  0.00     0.000 C
ATOM     77  C3  SGN C   5      25.918  11.880  59.3200  0.00  0.00     0.000 C
ATOM     78  C4  SGN C   5      25.345  10.568  58.8000  0.00  0.00     0.000 C
ATOM     79  C5  SGN C   5      26.431   9.502  58.8070  0.00  0.00     0.000 C
ATOM     80  O5  SGN C   5      27.530   9.924  57.9560  0.00  0.00     0.000 O
ATOM     81   O  SGN C   5      24.964  12.928  59.1900  0.00  0.00     0.000 O
ATOM     83  HD  SGN C   5      25.201  13.761  59.1930  0.00  0.00     0.000 HD
BRANCH 76 85
ATOM     83   N  SGN C   5      27.394  13.729  58.5490  0.00  0.00     0.000 N
ATOM     85  HD  SGN C   5      27.827  14.441  58.3130  0.00  0.00     0.000 HD
ATOM     85   S  SGN C   5      28.756  14.578  58.6820  0.00  0.00     0.000 S
ATOM     86   O  SGN C   5      28.489  15.970  58.5620  0.00  0.00     0.000 OA
ATOM     87   O  SGN C   5      29.406  14.145  59.8660  0.00  0.00     0.000 OA
ATOM     88   O  SGN C   5      29.409  14.045  57.4080  0.00  0.00     0.000 OA
ENDBRANCH 76 85
BRANCH 79 89
ATOM     89   C  SGN C   5      25.950   8.148  58.3270  0.00  0.00     0.000 C
ATOM     90   O  SGN C   5      25.801   8.163  56.8860  0.00  0.00     0.000 O
ATOM     91   S  SGN C   5      26.065   6.778  56.1190  0.00  0.00     0.000 S
ATOM     92   O  SGN C   5      27.358   6.315  56.5520  0.00  0.00     0.000 OA
ATOM     93   O  SGN C   5      25.005   5.878  56.4930  0.00  0.00     0.000 OA
ATOM     94   O  SGN C   5      26.028   7.156  54.7330  0.00  0.00     0.000 OA
ENDBRANCH 79 89
BRANCH 75 95
ATOM     95  O4  BDP C   6      28.576  10.839  59.7620  0.00  0.00     0.000 O
BRANCH 95 99
ATOM     96  C1  BDP C   6      32.259   9.284  61.3300  0.00  0.00     0.000 C
ATOM     97  C2  BDP C   6      32.317  10.277  60.2040  0.00  0.00     0.000 C
ATOM     98  C3  BDP C   6      31.010  11.051  59.9740  0.00  0.00     0.000 C
ATOM     99  C4  BDP C   6      29.813  10.113  59.9240  0.00  0.00     0.000 C
ATOM    100  C5  BDP C   6      29.880   9.187  61.1610  0.00  0.00     0.000 C
ATOM    101  O5  BDP C   6      31.130   8.497  60.9980  0.00  0.00     0.000 O
BRANCH 100 102
ATOM    102   C  BDP C   6      28.780   8.156  61.1760  0.00  0.00     0.000 C
ATOM    103   O  BDP C   6      27.826   8.218  61.9650  0.00  0.00     0.000 OA
ATOM    104   O  BDP C   6      28.861   7.240  60.3500  0.00  0.00     0.000 OA
ENDBRANCH 100 102
ENDBRANCH 95 99
ENDBRANCH 75 95
ENDBRANCH 74 78
ENDBRANCH 58 74
ENDBRANCH 57 61
ENDBRANCH 37 57
ENDBRANCH 36 40
ENDBRANCH 23 36
ENDBRANCH 22 26
ENDBRANCH 1 22
TORSDOF 20
ENDMDL
MODEL 58
REMARK VINA RESULT:      -5.6     13.897     18.973
ROOT
ATOM      1  C1  NGY C   1      30.100  27.406  12.9410  0.00  0.00     0.000 C
ATOM      2  C2  NGY C   1      31.371  26.980  12.2200  0.00  0.00     0.000 C
ATOM      3  C3  NGY C   1      31.545  27.784  10.9360  0.00  0.00     0.000 C
ATOM      4  C4  NGY C   1      30.284  27.634  10.1060  0.00  0.00     0.000 C
ATOM      5  C5  NGY C   1      29.103  28.171  10.9090  0.00  0.00     0.000 C
ATOM      6  O5  NGY C   1      28.962  27.363  12.1060  0.00  0.00     0.000 O
ATOM      7   O  NGY C   1      32.696  27.320  10.2460  0.00  0.00     0.000 O
ATOM      9  HD  NGY C   1      33.094  26.563  10.1070  0.00  0.00     0.000 HD
ATOM      9   O  NGY C   1      30.398  28.336   8.8770  0.00  0.00     0.000 O
ATOM     11  HD  NGY C   1      30.795  27.579   8.7380  0.00  0.00     0.000 HD
ENDROOT
BRANCH 2 13
ATOM     11   N  NGY C   1      32.331  26.972  13.2990  0.00  0.00     0.000 N
ATOM     13  HD  NGY C   1      32.890  26.394  12.9770  0.00  0.00     0.000 HD
ATOM     13   C  NGY C   1      33.416  26.200  13.2620  0.00  0.00     0.000 C
ATOM     14   O  NGY C   1      33.570  25.360  12.3740  0.00  0.00     0.000 OA
ATOM     15   C  NGY C   1      34.440  26.428  14.3310  0.00  0.00     0.000 C
ENDBRANCH 2 13
BRANCH 5 16
ATOM     16   C  NGY C   1      27.779  28.101  10.2160  0.00  0.00     0.000 C
ATOM     17   O  NGY C   1      26.255  30.911   8.4170  0.00  0.00     0.000 OA
ATOM     18   O  NGY C   1      27.400  29.420   9.8140  0.00  0.00     0.000 O
ATOM     19   S  NGY C   1      26.292  29.499   8.7030  0.00  0.00     0.000 S
ATOM     20   O  NGY C   1      25.065  29.028   9.2920  0.00  0.00     0.000 OA
ATOM     21   O  NGY C   1      26.785  28.650   7.6320  0.00  0.00     0.000 OA
ENDBRANCH 5 16
BRANCH 1 22
ATOM     22  O4  BDP C   2      30.297  28.624  13.4870  0.00  0.00     0.000 O
BRANCH 22 26
ATOM     23  C1  BDP C   2      29.490  31.395  16.4260  0.00  0.00     0.000 C
ATOM     24  C2  BDP C   2      29.667  29.973  16.9040  0.00  0.00     0.000 C
ATOM     25  C3  BDP C   2      30.307  29.150  15.8170  0.00  0.00     0.000 C
ATOM     26  C4  BDP C   2      29.517  29.285  14.5190  0.00  0.00     0.000 C
ATOM     27  C5  BDP C   2      29.247  30.755  14.2280  0.00  0.00     0.000 C
ATOM     28  O5  BDP C   2      28.553  31.423  15.3130  0.00  0.00     0.000 O
ATOM     29   O  BDP C   2      30.591  29.875  17.9880  0.00  0.00     0.000 O
ATOM     31  HD  BDP C   2      31.093  29.169  18.0060  0.00  0.00     0.000 HD
ATOM     31   O  BDP C   2      30.293  27.799  16.2590  0.00  0.00     0.000 O
ATOM     33  HD  BDP C   2      30.795  27.093  16.2770  0.00  0.00     0.000 HD
BRANCH 27 33
ATOM     33   C  BDP C   2      28.384  30.953  13.0050  0.00  0.00     0.000 C
ATOM     34   O  BDP C   2      27.191  30.567  12.9630  0.00  0.00     0.000 OA
ATOM     35   O  BDP C   2      28.882  31.475  12.0210  0.00  0.00     0.000 OA
ENDBRANCH 27 33
BRANCH 23 36
ATOM     36  O4  SGN C   3      29.044  32.269  17.3580  0.00  0.00     0.000 O
BRANCH 36 40
ATOM     37  C1  SGN C   3      29.214  36.233  18.6570  0.00  0.00     0.000 C
ATOM     38  C2  SGN C   3      29.102  35.981  17.1450  0.00  0.00     0.000 C
ATOM     39  C3  SGN C   3      28.618  34.564  16.8750  0.00  0.00     0.000 C
ATOM     40  C4  SGN C   3      29.556  33.589  17.5550  0.00  0.00     0.000 C
ATOM     41  C5  SGN C   3      29.623  33.924  19.0290  0.00  0.00     0.000 C
ATOM     42  O5  SGN C   3      30.102  35.267  19.2000  0.00  0.00     0.000 O
ATOM     43   O  SGN C   3      28.580  34.340  15.4710  0.00  0.00     0.000 O
ATOM     45  HD  SGN C   3      28.706  33.590  15.8860  0.00  0.00     0.000 HD
BRANCH 38 47
ATOM     45   N  SGN C   3      29.682  37.336  17.1290  0.00  0.00     0.000 N
ATOM     47  HD  SGN C   3      29.780  36.492  17.2990  0.00  0.00     0.000 HD
ATOM     47   S  SGN C   3      28.809  38.349  16.2700  0.00  0.00     0.000 S
ATOM     48   O  SGN C   3      28.820  38.004  14.8930  0.00  0.00     0.000 OA
ATOM     49   O  SGN C   3      27.532  38.425  16.9010  0.00  0.00     0.000 OA
ATOM     50   O  SGN C   3      29.561  39.593  16.4240  0.00  0.00     0.000 OA
ENDBRANCH 38 47
BRANCH 41 51
ATOM     51   C  SGN C   3      30.525  33.020  19.8250  0.00  0.00     0.000 C
ATOM     52   O  SGN C   3      32.424  33.881  22.9120  0.00  0.00     0.000 OA
ATOM     53   O  SGN C   3      31.408  31.809  22.2760  0.00  0.00     0.000 OA
ATOM     54   O  SGN C   3      33.243  32.702  21.0110  0.00  0.00     0.000 OA
ATOM     55   O  SGN C   3      31.004  33.728  20.9460  0.00  0.00     0.000 O
ATOM     56   S  SGN C   3      32.125  32.957  21.8710  0.00  0.00     0.000 S
ENDBRANCH 41 51
BRANCH 37 57
ATOM     57  O4  IDS C   4      28.041  36.156  19.3320  0.00  0.00     0.000 O
BRANCH 57 61
ATOM     58  C1  IDS C   4      25.532  37.787  21.6810  0.00  0.00     0.000 C
ATOM     59  C2  IDS C   4      26.294  38.654  20.7290  0.00  0.00     0.000 C
ATOM     60  C3  IDS C   4      27.759  38.234  20.5890  0.00  0.00     0.000 C
ATOM     61  C4  IDS C   4      28.048  36.740  20.6490  0.00  0.00     0.000 C
ATOM     62  C5  IDS C   4      27.047  36.030  21.5680  0.00  0.00     0.000 C
ATOM     63  O5  IDS C   4      25.711  36.432  21.3040  0.00  0.00     0.000 O
ATOM     64   O  IDS C   4      28.432  38.860  21.6650  0.00  0.00     0.000 O
ATOM     66  HD  IDS C   4      28.718  38.269  22.2290  0.00  0.00     0.000 HD
BRANCH 59 66
ATOM     66   O  IDS C   4      25.715  38.611  19.3730  0.00  0.00     0.000 O
ATOM     67   S  IDS C   4      24.872  39.882  18.9200  0.00  0.00     0.000 S
ATOM     68   O  IDS C   4      25.858  40.936  18.8860  0.00  0.00     0.000 OA
ATOM     69   O  IDS C   4      24.318  39.522  17.6300  0.00  0.00     0.000 OA
ATOM     70   O  IDS C   4      23.867  40.120  19.9450  0.00  0.00     0.000 OA
ENDBRANCH 59 66
BRANCH 62 71
ATOM     71   C  IDS C   4      27.059  34.521  21.4070  0.00  0.00     0.000 C
ATOM     72   O  IDS C   4      26.196  33.971  20.7510  0.00  0.00     0.000 OA
ATOM     73   O  IDS C   4      27.905  33.863  22.0450  0.00  0.00     0.000 OA
ENDBRANCH 62 71
BRANCH 58 74
ATOM     74  O4  SGN C   5      25.648  38.135  22.9940  0.00  0.00     0.000 O
BRANCH 74 78
ATOM     75  C1  SGN C   5      23.773  37.815  26.7120  0.00  0.00     0.000 C
ATOM     76  C2  SGN C   5      25.081  37.020  26.5450  0.00  0.00     0.000 C
ATOM     77  C3  SGN C   5      25.839  37.480  25.2930  0.00  0.00     0.000 C
ATOM     78  C4  SGN C   5      24.923  37.554  24.0790  0.00  0.00     0.000 C
ATOM     79  C5  SGN C   5      23.701  38.395  24.4160  0.00  0.00     0.000 C
ATOM     80  O5  SGN C   5      22.988  37.790  25.5270  0.00  0.00     0.000 O
ATOM     81   O  SGN C   5      26.918  36.583  25.0500  0.00  0.00     0.000 O
ATOM     83  HD  SGN C   5      27.372  36.232  25.6990  0.00  0.00     0.000 HD
BRANCH 76 85
ATOM     83   N  SGN C   5      24.913  36.472  27.8970  0.00  0.00     0.000 N
ATOM     85  HD  SGN C   5      25.035  36.494  28.7540  0.00  0.00     0.000 HD
ATOM     85   S  SGN C   5      25.975  36.386  29.1050  0.00  0.00     0.000 S
ATOM     86   O  SGN C   5      25.370  35.816  30.2590  0.00  0.00     0.000 OA
ATOM     87   O  SGN C   5      27.134  35.743  28.5990  0.00  0.00     0.000 OA
ATOM     88   O  SGN C   5      26.150  37.893  29.2780  0.00  0.00     0.000 OA
ENDBRANCH 76 85
BRANCH 79 89
ATOM     89   C  SGN C   5      22.736  38.550  23.2580  0.00  0.00     0.000 C
ATOM     90   O  SGN C   5      22.193  37.256  22.8970  0.00  0.00     0.000 O
ATOM     91   S  SGN C   5      20.698  37.239  22.3130  0.00  0.00     0.000 S
ATOM     92   O  SGN C   5      19.883  37.953  23.2610  0.00  0.00     0.000 OA
ATOM     93   O  SGN C   5      20.739  37.885  21.0260  0.00  0.00     0.000 OA
ATOM     94   O  SGN C   5      20.390  35.837  22.2350  0.00  0.00     0.000 OA
ENDBRANCH 79 89
BRANCH 75 95
ATOM     95  O4  BDP C   6      24.150  39.099  26.9860  0.00  0.00     0.000 O
BRANCH 95 99
ATOM     96  C1  BDP C   6      22.205  42.129  29.3280  0.00  0.00     0.000 C
ATOM     97  C2  BDP C   6      22.055  40.691  29.7390  0.00  0.00     0.000 C
ATOM     98  C3  BDP C   6      23.072  39.737  29.0940  0.00  0.00     0.000 C
ATOM     99  C4  BDP C   6      23.158  39.956  27.5910  0.00  0.00     0.000 C
ATOM    100  C5  BDP C   6      23.346  41.470  27.3380  0.00  0.00     0.000 C
ATOM    101  O5  BDP C   6      22.168  42.057  27.9150  0.00  0.00     0.000 O
BRANCH 100 102
ATOM    102   C  BDP C   6      23.366  41.817  25.8710  0.00  0.00     0.000 C
ATOM    103   O  BDP C   6      22.332  41.878  25.1910  0.00  0.00     0.000 OA
ATOM    104   O  BDP C   6      24.471  42.052  25.3670  0.00  0.00     0.000 OA
ENDBRANCH 100 102
ENDBRANCH 95 99
ENDBRANCH 75 95
ENDBRANCH 74 78
ENDBRANCH 58 74
ENDBRANCH 57 61
ENDBRANCH 37 57
ENDBRANCH 36 40
ENDBRANCH 23 36
ENDBRANCH 22 26
ENDBRANCH 1 22
TORSDOF 20
ENDMDL
MODEL 59
REMARK VINA RESULT:      -5.6     13.623     19.584
ROOT
ATOM      1  C1  NGY C   1      33.841  18.409  23.2630  0.00  0.00     0.000 C
ATOM      2  C2  NGY C   1      34.793  19.589  23.1270  0.00  0.00     0.000 C
ATOM      3  C3  NGY C   1      34.142  20.858  23.6690  0.00  0.00     0.000 C
ATOM      4  C4  NGY C   1      32.814  21.050  22.9620  0.00  0.00     0.000 C
ATOM      5  C5  NGY C   1      31.928  19.840  23.2460  0.00  0.00     0.000 C
ATOM      6  O5  NGY C   1      32.575  18.664  22.6930  0.00  0.00     0.000 O
ATOM      7   O  NGY C   1      35.019  21.956  23.4650  0.00  0.00     0.000 O
ATOM      9  HD  NGY C   1      35.583  22.218  22.8620  0.00  0.00     0.000 HD
ATOM      9   O  NGY C   1      32.172  22.239  23.4000  0.00  0.00     0.000 O
ATOM     11  HD  NGY C   1      32.736  22.500  22.7980  0.00  0.00     0.000 HD
ENDROOT
BRANCH 2 13
ATOM     11   N  NGY C   1      36.094  19.315  22.5640  0.00  0.00     0.000 N
ATOM     13  HD  NGY C   1      36.583  19.529  23.2460  0.00  0.00     0.000 HD
ATOM     13   C  NGY C   1      37.211  19.503  23.2650  0.00  0.00     0.000 C
ATOM     14   O  NGY C   1      37.187  20.052  24.3670  0.00  0.00     0.000 OA
ATOM     15   C  NGY C   1      38.481  18.990  22.6570  0.00  0.00     0.000 C
ENDBRANCH 2 13
BRANCH 5 16
ATOM     16   C  NGY C   1      30.571  19.886  22.6200  0.00  0.00     0.000 C
ATOM     17   O  NGY C   1      28.576  16.910  21.8330  0.00  0.00     0.000 OA
ATOM     18   O  NGY C   1      30.185  18.556  22.2600  0.00  0.00     0.000 O
ATOM     19   S  NGY C   1      28.650  18.338  22.0110  0.00  0.00     0.000 S
ATOM     20   O  NGY C   1      28.307  19.058  20.8130  0.00  0.00     0.000 OA
ATOM     21   O  NGY C   1      28.007  18.859  23.2060  0.00  0.00     0.000 OA
ENDBRANCH 5 16
BRANCH 1 22
ATOM     22  O4  BDP C   2      33.764  18.061  24.5650  0.00  0.00     0.000 O
BRANCH 22 26
ATOM     23  C1  BDP C   2      33.378  15.214  27.5170  0.00  0.00     0.000 C
ATOM     24  C2  BDP C   2      34.467  14.955  26.5030  0.00  0.00     0.000 C
ATOM     25  C3  BDP C   2      34.741  16.214  25.7230  0.00  0.00     0.000 C
ATOM     26  C4  BDP C   2      33.446  16.762  25.1310  0.00  0.00     0.000 C
ATOM     27  C5  BDP C   2      32.369  16.815  26.2070  0.00  0.00     0.000 C
ATOM     28  O5  BDP C   2      32.134  15.526  26.8290  0.00  0.00     0.000 O
ATOM     29   O  BDP C   2      35.722  14.659  27.1150  0.00  0.00     0.000 O
ATOM     31  HD  BDP C   2      36.429  14.956  26.7130  0.00  0.00     0.000 HD
ATOM     31   O  BDP C   2      35.645  15.866  24.6810  0.00  0.00     0.000 O
ATOM     33  HD  BDP C   2      36.352  16.163  24.2790  0.00  0.00     0.000 HD
BRANCH 27 33
ATOM     33   C  BDP C   2      31.031  17.258  25.6630  0.00  0.00     0.000 C
ATOM     34   O  BDP C   2      30.566  16.805  24.5890  0.00  0.00     0.000 OA
ATOM     35   O  BDP C   2      30.408  18.108  26.2760  0.00  0.00     0.000 OA
ENDBRANCH 27 33
BRANCH 23 36
ATOM     36  O4  SGN C   3      33.128  14.196  28.3720  0.00  0.00     0.000 O
BRANCH 36 40
ATOM     37  C1  SGN C   3      32.214  13.163  32.3130  0.00  0.00     0.000 C
ATOM     38  C2  SGN C   3      31.316  14.201  31.6200  0.00  0.00     0.000 C
ATOM     39  C3  SGN C   3      31.498  14.139  30.1100  0.00  0.00     0.000 C
ATOM     40  C4  SGN C   3      32.963  14.334  29.7860  0.00  0.00     0.000 C
ATOM     41  C5  SGN C   3      33.770  13.290  30.5250  0.00  0.00     0.000 C
ATOM     42  O5  SGN C   3      33.558  13.423  31.9390  0.00  0.00     0.000 O
ATOM     43   O  SGN C   3      30.702  15.147  29.5000  0.00  0.00     0.000 O
ATOM     45  HD  SGN C   3      31.387  14.970  29.0010  0.00  0.00     0.000 HD
BRANCH 38 47
ATOM     45   N  SGN C   3      31.025  14.690  32.9800  0.00  0.00     0.000 N
ATOM     47  HD  SGN C   3      31.571  14.657  32.3070  0.00  0.00     0.000 HD
ATOM     47   S  SGN C   3      29.492  14.517  33.3610  0.00  0.00     0.000 S
ATOM     48   O  SGN C   3      28.663  15.347  32.5620  0.00  0.00     0.000 OA
ATOM     49   O  SGN C   3      29.218  13.118  33.3290  0.00  0.00     0.000 OA
ATOM     50   O  SGN C   3      29.465  15.040  34.7260  0.00  0.00     0.000 OA
ENDBRANCH 38 47
BRANCH 41 51
ATOM     51   C  SGN C   3      35.253  13.372  30.2830  0.00  0.00     0.000 C
ATOM     52   O  SGN C   3      37.837  10.865  31.2400  0.00  0.00     0.000 OA
ATOM     53   O  SGN C   3      37.748  12.311  29.3340  0.00  0.00     0.000 OA
ATOM     54   O  SGN C   3      37.952  13.224  31.5450  0.00  0.00     0.000 OA
ATOM     55   O  SGN C   3      35.858  12.190  30.7580  0.00  0.00     0.000 O
ATOM     56   S  SGN C   3      37.503  12.145  30.7150  0.00  0.00     0.000 S
ENDBRANCH 41 51
BRANCH 37 57
ATOM     57  O4  IDS C   4      31.930  11.874  32.0040  0.00  0.00     0.000 O
BRANCH 57 61
ATOM     58  C1  IDS C   4      31.809   8.261  33.1900  0.00  0.00     0.000 C
ATOM     59  C2  IDS C   4      31.598   9.353  34.1900  0.00  0.00     0.000 C
ATOM     60  C3  IDS C   4      32.529  10.547  33.9680  0.00  0.00     0.000 C
ATOM     61  C4  IDS C   4      32.854  10.898  32.5230  0.00  0.00     0.000 C
ATOM     62  C5  IDS C   4      32.870   9.639  31.6480  0.00  0.00     0.000 C
ATOM     63  O5  IDS C   4      31.736   8.817  31.8880  0.00  0.00     0.000 O
ATOM     64   O  IDS C   4      33.735  10.207  34.6260  0.00  0.00     0.000 O
ATOM     66  HD  IDS C   4      34.373  10.096  34.0510  0.00  0.00     0.000 HD
BRANCH 59 66
ATOM     66   O  IDS C   4      30.221   9.880  34.1350  0.00  0.00     0.000 O
ATOM     67   S  IDS C   4      29.233   9.408  35.2890  0.00  0.00     0.000 S
ATOM     68   O  IDS C   4      29.819   9.979  36.4780  0.00  0.00     0.000 OA
ATOM     69   O  IDS C   4      27.941   9.954  34.9220  0.00  0.00     0.000 OA
ATOM     70   O  IDS C   4      29.269   7.954  35.3190  0.00  0.00     0.000 OA
ENDBRANCH 59 66
BRANCH 62 71
ATOM     71   C  IDS C   4      32.846   9.946  30.1630  0.00  0.00     0.000 C
ATOM     72   O  IDS C   4      33.862   9.849  29.5040  0.00  0.00     0.000 OA
ATOM     73   O  IDS C   4      31.793  10.395  29.6670  0.00  0.00     0.000 OA
ENDBRANCH 62 71
BRANCH 58 74
ATOM     74  O4  SGN C   5      32.819   7.395  33.4880  0.00  0.00     0.000 O
BRANCH 74 78
ATOM     75  C1  SGN C   5      34.401   3.569  32.9380  0.00  0.00     0.000 C
ATOM     76  C2  SGN C   5      34.355   4.468  31.6880  0.00  0.00     0.000 C
ATOM     77  C3  SGN C   5      34.085   5.927  32.0780  0.00  0.00     0.000 C
ATOM     78  C4  SGN C   5      32.916   6.041  33.0460  0.00  0.00     0.000 C
ATOM     79  C5  SGN C   5      33.141   5.108  34.2270  0.00  0.00     0.000 C
ATOM     80  O5  SGN C   5      33.247   3.740  33.7500  0.00  0.00     0.000 O
ATOM     81   O  SGN C   5      33.832   6.681  30.8970  0.00  0.00     0.000 O
ATOM     83  HD  SGN C   5      34.257   6.526  30.1590  0.00  0.00     0.000 HD
BRANCH 76 85
ATOM     83   N  SGN C   5      34.689   3.886  30.3810  0.00  0.00     0.000 N
ATOM     85  HD  SGN C   5      35.099   3.312  29.8800  0.00  0.00     0.000 HD
ATOM     85   S  SGN C   5      36.106   3.357  29.8290  0.00  0.00     0.000 S
ATOM     86   O  SGN C   5      35.962   2.829  28.5170  0.00  0.00     0.000 OA
ATOM     87   O  SGN C   5      37.043   4.408  30.0040  0.00  0.00     0.000 OA
ATOM     88   O  SGN C   5      36.269   2.230  30.8470  0.00  0.00     0.000 OA
ENDBRANCH 76 85
BRANCH 79 89
ATOM     89   C  SGN C   5      32.037   5.167  35.2630  0.00  0.00     0.000 C
ATOM     90   O  SGN C   5      32.591   4.937  36.5820  0.00  0.00     0.000 O
ATOM     91   S  SGN C   5      31.864   5.675  37.8080  0.00  0.00     0.000 S
ATOM     92   O  SGN C   5      31.792   7.069  37.4570  0.00  0.00     0.000 OA
ATOM     93   O  SGN C   5      30.562   5.076  37.9510  0.00  0.00     0.000 OA
ATOM     94   O  SGN C   5      32.737   5.408  38.9180  0.00  0.00     0.000 OA
ENDBRANCH 79 89
BRANCH 75 95
ATOM     95  O4  BDP C   6      35.512   3.956  33.6330  0.00  0.00     0.000 O
BRANCH 95 99
ATOM     96  C1  BDP C   6      38.000   1.112  35.6770  0.00  0.00     0.000 C
ATOM     97  C2  BDP C   6      36.731   0.629  35.0330  0.00  0.00     0.000 C
ATOM     98  C3  BDP C   6      36.120   1.611  34.0210  0.00  0.00     0.000 C
ATOM     99  C4  BDP C   6      36.037   3.017  34.5970  0.00  0.00     0.000 C
ATOM    100  C5  BDP C   6      37.422   3.375  35.1850  0.00  0.00     0.000 C
ATOM    101  O5  BDP C   6      37.627   2.375  36.1960  0.00  0.00     0.000 O
BRANCH 100 102
ATOM    102   C  BDP C   6      37.437   4.725  35.8570  0.00  0.00     0.000 C
ATOM    103   O  BDP C   6      37.746   5.762  35.2530  0.00  0.00     0.000 OA
ATOM    104   O  BDP C   6      37.111   4.759  37.0500  0.00  0.00     0.000 OA
ENDBRANCH 100 102
ENDBRANCH 95 99
ENDBRANCH 75 95
ENDBRANCH 74 78
ENDBRANCH 58 74
ENDBRANCH 57 61
ENDBRANCH 37 57
ENDBRANCH 36 40
ENDBRANCH 23 36
ENDBRANCH 22 26
ENDBRANCH 1 22
TORSDOF 20
ENDMDL
MODEL 60
REMARK VINA RESULT:      -5.6     25.096     34.461
ROOT
ATOM      1  C1  NGY C   1      28.943  12.002  47.1610  0.00  0.00     0.000 C
ATOM      2  C2  NGY C   1      28.781  13.516  47.1550  0.00  0.00     0.000 C
ATOM      3  C3  NGY C   1      27.501  13.913  47.8830  0.00  0.00     0.000 C
ATOM      4  C4  NGY C   1      26.343  13.166  47.2510  0.00  0.00     0.000 C
ATOM      5  C5  NGY C   1      26.589  11.667  47.3960  0.00  0.00     0.000 C
ATOM      6  O5  NGY C   1      27.801  11.333  46.6700  0.00  0.00     0.000 O
ATOM      7   O  NGY C   1      27.335  15.322  47.8010  0.00  0.00     0.000 O
ATOM      9  HD  NGY C   1      27.482  15.948  47.2220  0.00  0.00     0.000 HD
ATOM      9   O  NGY C   1      25.112  13.520  47.8650  0.00  0.00     0.000 O
ATOM     11  HD  NGY C   1      25.260  14.146  47.2860  0.00  0.00     0.000 HD
ENDROOT
BRANCH 2 13
ATOM     11   N  NGY C   1      29.458  14.683  46.6410  0.00  0.00     0.000 N
ATOM     13  HD  NGY C   1      30.116  14.716  47.2030  0.00  0.00     0.000 HD
ATOM     13   C  NGY C   1      30.572  15.149  47.2040  0.00  0.00     0.000 C
ATOM     14   O  NGY C   1      30.989  14.688  48.2680  0.00  0.00     0.000 OA
ATOM     15   C  NGY C   1      31.297  16.232  46.4640  0.00  0.00     0.000 C
ENDBRANCH 2 13
BRANCH 5 16
ATOM     16   C  NGY C   1      25.522  10.789  46.8260  0.00  0.00     0.000 C
ATOM     17   O  NGY C   1      26.181   7.630  45.0810  0.00  0.00     0.000 OA
ATOM     18   O  NGY C   1      26.139   9.767  46.0370  0.00  0.00     0.000 O
ATOM     19   S  NGY C   1      25.246   8.511  45.7320  0.00  0.00     0.000 S
ATOM     20   O  NGY C   1      24.194   8.943  44.8490  0.00  0.00     0.000 OA
ATOM     21   O  NGY C   1      24.769   8.076  47.0340  0.00  0.00     0.000 OA
ENDBRANCH 5 16
BRANCH 1 22
ATOM     22  O4  BDP C   2      29.283  11.606  48.4050  0.00  0.00     0.000 O
BRANCH 22 26
ATOM     23  C1  BDP C   2      31.173   8.900  50.8680  0.00  0.00     0.000 C
ATOM     24  C2  BDP C   2      31.861   9.170  49.5510  0.00  0.00     0.000 C
ATOM     25  C3  BDP C   2      31.286  10.415  48.9270  0.00  0.00     0.000 C
ATOM     26  C4  BDP C   2      29.768  10.306  48.8340  0.00  0.00     0.000 C
ATOM     27  C5  BDP C   2      29.199   9.859  50.1740  0.00  0.00     0.000 C
ATOM     28  O5  BDP C   2      29.767   8.605  50.6340  0.00  0.00     0.000 O
ATOM     29   O  BDP C   2      33.244   9.483  49.7140  0.00  0.00     0.000 O
ATOM     31  HD  BDP C   2      33.574  10.072  49.1710  0.00  0.00     0.000 HD
ATOM     31   O  BDP C   2      31.848  10.522  47.6250  0.00  0.00     0.000 O
ATOM     33  HD  BDP C   2      32.179  11.110  47.0830  0.00  0.00     0.000 HD
BRANCH 27 33
ATOM     33   C  BDP C   2      27.706   9.637  50.1230  0.00  0.00     0.000 C
ATOM     34   O  BDP C   2      26.920  10.216  50.9110  0.00  0.00     0.000 OA
ATOM     35   O  BDP C   2      27.265   8.843  49.3090  0.00  0.00     0.000 OA
ENDBRANCH 27 33
BRANCH 23 36
ATOM     36  O4  SGN C   3      31.689   7.880  51.5930  0.00  0.00     0.000 O
BRANCH 36 40
ATOM     37  C1  SGN C   3      32.589   6.475  55.4200  0.00  0.00     0.000 C
ATOM     38  C2  SGN C   3      31.112   6.490  54.9940  0.00  0.00     0.000 C
ATOM     39  C3  SGN C   3      30.996   6.600  53.4810  0.00  0.00     0.000 C
ATOM     40  C4  SGN C   3      31.742   7.834  53.0220  0.00  0.00     0.000 C
ATOM     41  C5  SGN C   3      33.173   7.746  53.5030  0.00  0.00     0.000 C
ATOM     42  O5  SGN C   3      33.199   7.661  54.9360  0.00  0.00     0.000 O
ATOM     43   O  SGN C   3      29.622   6.671  53.1200  0.00  0.00     0.000 O
ATOM     45  HD  SGN C   3      30.105   7.074  52.5240  0.00  0.00     0.000 HD
BRANCH 38 47
ATOM     45   N  SGN C   3      30.593   6.666  56.3620  0.00  0.00     0.000 N
ATOM     47  HD  SGN C   3      30.860   7.027  55.6220  0.00  0.00     0.000 HD
ATOM     47   S  SGN C   3      30.019   5.310  56.9610  0.00  0.00     0.000 S
ATOM     48   O  SGN C   3      28.863   4.881  56.2560  0.00  0.00     0.000 OA
ATOM     49   O  SGN C   3      31.110   4.394  57.0200  0.00  0.00     0.000 OA
ATOM     50   O  SGN C   3      29.596   5.730  58.2960  0.00  0.00     0.000 OA
ENDBRANCH 38 47
BRANCH 41 51
ATOM     51   C  SGN C   3      34.029   8.918  53.1060  0.00  0.00     0.000 C
ATOM     52   O  SGN C   3      33.190  12.534  53.4240  0.00  0.00     0.000 OA
ATOM     53   O  SGN C   3      35.309  11.437  53.6240  0.00  0.00     0.000 OA
ATOM     54   O  SGN C   3      34.138  11.448  51.5280  0.00  0.00     0.000 OA
ATOM     55   O  SGN C   3      33.355  10.110  53.4430  0.00  0.00     0.000 O
ATOM     56   S  SGN C   3      34.065  11.513  52.9580  0.00  0.00     0.000 S
ENDBRANCH 41 51
BRANCH 37 57
ATOM     57  O4  IDS C   4      33.300   5.416  54.9620  0.00  0.00     0.000 O
BRANCH 57 61
ATOM     58  C1  IDS C   4      36.253   3.090  55.5440  0.00  0.00     0.000 C
ATOM     59  C2  IDS C   4      35.581   3.708  56.7290  0.00  0.00     0.000 C
ATOM     60  C3  IDS C   4      35.189   5.169  56.4930  0.00  0.00     0.000 C
ATOM     61  C4  IDS C   4      34.730   5.532  55.0870  0.00  0.00     0.000 C
ATOM     62  C5  IDS C   4      35.444   4.667  54.0420  0.00  0.00     0.000 C
ATOM     63  O5  IDS C   4      35.438   3.293  54.4020  0.00  0.00     0.000 O
ATOM     64   O  IDS C   4      36.353   5.919  56.7890  0.00  0.00     0.000 O
ATOM     66  HD  IDS C   4      36.665   6.290  56.0710  0.00  0.00     0.000 HD
BRANCH 59 66
ATOM     66   O  IDS C   4      34.339   2.994  57.0810  0.00  0.00     0.000 O
ATOM     67   S  IDS C   4      34.301   2.297  58.5110  0.00  0.00     0.000 S
ATOM     68   O  IDS C   4      34.377   3.414  59.4230  0.00  0.00     0.000 OA
ATOM     69   O  IDS C   4      33.047   1.570  58.5390  0.00  0.00     0.000 OA
ATOM     70   O  IDS C   4      35.477   1.446  58.6070  0.00  0.00     0.000 OA
ENDBRANCH 59 66
BRANCH 62 71
ATOM     71   C  IDS C   4      34.795   4.733  52.6720  0.00  0.00     0.000 C
ATOM     72   O  IDS C   4      35.110   5.608  51.8890  0.00  0.00     0.000 OA
ATOM     73   O  IDS C   4      33.867   3.939  52.4160  0.00  0.00     0.000 OA
ENDBRANCH 62 71
BRANCH 58 74
ATOM     74  O4  SGN C   5      37.593   3.325  55.4560  0.00  0.00     0.000 O
BRANCH 74 78
ATOM     75  C1  SGN C   5      41.311   1.810  54.3050  0.00  0.00     0.000 C
ATOM     76  C2  SGN C   5      40.229   1.850  53.2090  0.00  0.00     0.000 C
ATOM     77  C3  SGN C   5      39.047   2.725  53.6460  0.00  0.00     0.000 C
ATOM     78  C4  SGN C   5      38.583   2.378  55.0540  0.00  0.00     0.000 C
ATOM     79  C5  SGN C   5      39.772   2.411  56.0030  0.00  0.00     0.000 C
ATOM     80  O5  SGN C   5      40.767   1.447  55.5670  0.00  0.00     0.000 O
ATOM     81   O  SGN C   5      37.983   2.562  52.7140  0.00  0.00     0.000 O
ATOM     83  HD  SGN C   5      38.131   2.467  51.8670  0.00  0.00     0.000 HD
BRANCH 76 85
ATOM     83   N  SGN C   5      40.368   1.361  51.8320  0.00  0.00     0.000 N
ATOM     85  HD  SGN C   5      40.833   1.041  51.1740  0.00  0.00     0.000 HD
ATOM     85   S  SGN C   5      41.545   1.627  50.7650  0.00  0.00     0.000 S
ATOM     86   O  SGN C   5      41.294   0.916  49.5600  0.00  0.00     0.000 OA
ATOM     87   O  SGN C   5      41.708   3.033  50.6640  0.00  0.00     0.000 OA
ATOM     88   O  SGN C   5      42.652   0.949  51.5680  0.00  0.00     0.000 OA
ENDBRANCH 76 85
BRANCH 79 89
ATOM     89   C  SGN C   5      39.406   2.101  57.4400  0.00  0.00     0.000 C
ATOM     90   O  SGN C   5      40.017   3.075  58.3220  0.00  0.00     0.000 O
ATOM     91   S  SGN C   5      39.217   3.429  59.6680  0.00  0.00     0.000 S
ATOM     92   O  SGN C   5      37.881   3.785  59.2650  0.00  0.00     0.000 OA
ATOM     93   O  SGN C   5      39.246   2.254  60.5000  0.00  0.00     0.000 OA
ATOM     94   O  SGN C   5      39.962   4.531  60.2140  0.00  0.00     0.000 OA
ENDBRANCH 79 89
BRANCH 75 95
ATOM     95  O4  BDP C   6      41.820   3.076  54.3710  0.00  0.00     0.000 O
BRANCH 95 99
ATOM     96  C1  BDP C   6      45.790   4.407  55.3290  0.00  0.00     0.000 C
ATOM     97  C2  BDP C   6      45.619   3.076  54.6530  0.00  0.00     0.000 C
ATOM     98  C3  BDP C   6      44.238   2.862  54.0150  0.00  0.00     0.000 C
ATOM     99  C4  BDP C   6      43.120   3.224  54.9820  0.00  0.00     0.000 C
ATOM    100  C5  BDP C   6      43.425   4.626  55.5610  0.00  0.00     0.000 C
ATOM    101  O5  BDP C   6      44.690   4.451  56.2180  0.00  0.00     0.000 O
BRANCH 100 102
ATOM    102   C  BDP C   6      42.419   5.059  56.5960  0.00  0.00     0.000 C
ATOM    103   O  BDP C   6      41.353   5.615  56.2930  0.00  0.00     0.000 OA
ATOM    104   O  BDP C   6      42.696   4.823  57.7780  0.00  0.00     0.000 OA
ENDBRANCH 100 102
ENDBRANCH 95 99
ENDBRANCH 75 95
ENDBRANCH 74 78
ENDBRANCH 58 74
ENDBRANCH 57 61
ENDBRANCH 37 57
ENDBRANCH 36 40
ENDBRANCH 23 36
ENDBRANCH 22 26
ENDBRANCH 1 22
TORSDOF 20
ENDMDL
MODEL 61
REMARK VINA RESULT:      -5.6     13.395     23.009
ROOT
ATOM      1  C1  NGY C   1      34.361  26.984  18.4160  0.00  0.00     0.000 C
ATOM      2  C2  NGY C   1      34.380  25.792  17.4690  0.00  0.00     0.000 C
ATOM      3  C3  NGY C   1      33.275  24.807  17.8380  0.00  0.00     0.000 C
ATOM      4  C4  NGY C   1      33.435  24.438  19.3000  0.00  0.00     0.000 C
ATOM      5  C5  NGY C   1      33.315  25.706  20.1420  0.00  0.00     0.000 C
ATOM      6  O5  NGY C   1      34.397  26.600  19.7740  0.00  0.00     0.000 O
ATOM      7   O  NGY C   1      33.359  23.672  16.9890  0.00  0.00     0.000 O
ATOM      9  HD  NGY C   1      33.982  23.201  16.6150  0.00  0.00     0.000 HD
ATOM      9   O  NGY C   1      32.452  23.494  19.6970  0.00  0.00     0.000 O
ATOM     11  HD  NGY C   1      33.075  23.022  19.3230  0.00  0.00     0.000 HD
ENDROOT
BRANCH 2 13
ATOM     11   N  NGY C   1      34.481  26.441  16.1830  0.00  0.00     0.000 N
ATOM     13  HD  NGY C   1      34.862  25.801  15.7400  0.00  0.00     0.000 HD
ATOM     13   C  NGY C   1      35.025  25.827  15.1330  0.00  0.00     0.000 C
ATOM     14   O  NGY C   1      35.591  24.740  15.2530  0.00  0.00     0.000 OA
ATOM     15   C  NGY C   1      34.887  26.513  13.8080  0.00  0.00     0.000 C
ENDBRANCH 2 13
BRANCH 5 16
ATOM     16   C  NGY C   1      33.443  25.503  21.6180  0.00  0.00     0.000 C
ATOM     17   O  NGY C   1      30.685  25.952  23.9950  0.00  0.00     0.000 OA
ATOM     18   O  NGY C   1      32.249  25.970  22.2510  0.00  0.00     0.000 O
ATOM     19   S  NGY C   1      32.004  25.445  23.7110  0.00  0.00     0.000 S
ATOM     20   O  NGY C   1      33.011  26.039  24.5510  0.00  0.00     0.000 OA
ATOM     21   O  NGY C   1      32.115  24.000  23.6040  0.00  0.00     0.000 OA
ENDBRANCH 5 16
BRANCH 1 22
ATOM     22  O4  BDP C   2      33.293  27.755  18.1230  0.00  0.00     0.000 O
BRANCH 22 26
ATOM     23  C1  BDP C   2      31.469  31.437  17.8400  0.00  0.00     0.000 C
ATOM     24  C2  BDP C   2      32.780  31.303  17.1020  0.00  0.00     0.000 C
ATOM     25  C3  BDP C   2      33.144  29.847  16.9790  0.00  0.00     0.000 C
ATOM     26  C4  BDP C   2      33.121  29.179  18.3500  0.00  0.00     0.000 C
ATOM     27  C5  BDP C   2      31.826  29.527  19.0730  0.00  0.00     0.000 C
ATOM     28  O5  BDP C   2      31.625  30.958  19.2050  0.00  0.00     0.000 O
ATOM     29   O  BDP C   2      32.689  31.743  15.7470  0.00  0.00     0.000 O
ATOM     31  HD  BDP C   2      33.157  31.304  15.1650  0.00  0.00     0.000 HD
ATOM     31   O  BDP C   2      34.456  29.794  16.4320  0.00  0.00     0.000 O
ATOM     33  HD  BDP C   2      34.923  29.354  15.8500  0.00  0.00     0.000 HD
BRANCH 27 33
ATOM     33   C  BDP C   2      31.783  28.975  20.4780  0.00  0.00     0.000 C
ATOM     34   O  BDP C   2      32.744  29.104  21.2730  0.00  0.00     0.000 OA
ATOM     35   O  BDP C   2      30.791  28.358  20.8290  0.00  0.00     0.000 OA
ENDBRANCH 27 33
BRANCH 23 36
ATOM     36  O4  SGN C   3      30.965  32.692  17.9020  0.00  0.00     0.000 O
BRANCH 36 40
ATOM     37  C1  SGN C   3      27.487  34.997  18.0510  0.00  0.00     0.000 C
ATOM     38  C2  SGN C   3      27.978  34.360  19.3610  0.00  0.00     0.000 C
ATOM     39  C3  SGN C   3      29.436  33.943  19.2360  0.00  0.00     0.000 C
ATOM     40  C4  SGN C   3      29.579  33.012  18.0520  0.00  0.00     0.000 C
ATOM     41  C5  SGN C   3      29.053  33.709  16.8170  0.00  0.00     0.000 C
ATOM     42  O5  SGN C   3      27.672  34.055  17.0060  0.00  0.00     0.000 O
ATOM     43   O  SGN C   3      29.845  33.304  20.4390  0.00  0.00     0.000 O
ATOM     45  HD  SGN C   3      30.314  33.008  19.7740  0.00  0.00     0.000 HD
BRANCH 38 47
ATOM     45   N  SGN C   3      26.564  34.672  19.6350  0.00  0.00     0.000 N
ATOM     47  HD  SGN C   3      27.147  34.241  19.1610  0.00  0.00     0.000 HD
ATOM     47   S  SGN C   3      26.372  35.386  21.0410  0.00  0.00     0.000 S
ATOM     48   O  SGN C   3      26.698  34.515  22.1140  0.00  0.00     0.000 OA
ATOM     49   O  SGN C   3      27.089  36.618  20.9760  0.00  0.00     0.000 OA
ATOM     50   O  SGN C   3      24.927  35.605  21.0680  0.00  0.00     0.000 OA
ENDBRANCH 38 47
BRANCH 41 51
ATOM     51   C  SGN C   3      29.143  32.886  15.5610  0.00  0.00     0.000 C
ATOM     52   O  SGN C   3      28.865  29.183  15.2660  0.00  0.00     0.000 OA
ATOM     53   O  SGN C   3      28.165  30.890  13.7400  0.00  0.00     0.000 OA
ATOM     54   O  SGN C   3      30.494  30.581  14.2350  0.00  0.00     0.000 OA
ATOM     55   O  SGN C   3      28.934  31.530  15.8880  0.00  0.00     0.000 O
ATOM     56   S  SGN C   3      29.135  30.445  14.6670  0.00  0.00     0.000 S
ENDBRANCH 41 51
BRANCH 37 57
ATOM     57  O4  IDS C   4      28.125  36.143  17.7060  0.00  0.00     0.000 O
BRANCH 57 61
ATOM     58  C1  IDS C   4      28.240  39.874  16.9720  0.00  0.00     0.000 C
ATOM     59  C2  IDS C   4      27.527  39.405  18.2010  0.00  0.00     0.000 C
ATOM     60  C3  IDS C   4      26.720  38.126  17.9650  0.00  0.00     0.000 C
ATOM     61  C4  IDS C   4      27.319  37.109  17.0040  0.00  0.00     0.000 C
ATOM     62  C5  IDS C   4      28.133  37.810  15.9100  0.00  0.00     0.000 C
ATOM     63  O5  IDS C   4      29.000  38.798  16.4490  0.00  0.00     0.000 O
ATOM     64   O  IDS C   4      25.480  38.560  17.4390  0.00  0.00     0.000 O
ATOM     66  HD  IDS C   4      25.394  38.305  16.6160  0.00  0.00     0.000 HD
BRANCH 59 66
ATOM     66   O  IDS C   4      28.472  39.108  19.2950  0.00  0.00     0.000 O
ATOM     67   S  IDS C   4      28.412  40.066  20.5640  0.00  0.00     0.000 S
ATOM     68   O  IDS C   4      27.099  39.811  21.1070  0.00  0.00     0.000 OA
ATOM     69   O  IDS C   4      29.514  39.640  21.4050  0.00  0.00     0.000 OA
ATOM     70   O  IDS C   4      28.537  41.432  20.0790  0.00  0.00     0.000 OA
ENDBRANCH 59 66
BRANCH 62 71
ATOM     71   C  IDS C   4      29.027  36.861  15.1340  0.00  0.00     0.000 C
ATOM     72   O  IDS C   4      30.231  36.889  15.2950  0.00  0.00     0.000 OA
ATOM     73   O  IDS C   4      28.507  36.136  14.2620  0.00  0.00     0.000 OA
ENDBRANCH 62 71
BRANCH 58 74
ATOM     74  O4  SGN C   5      27.487  40.631  16.1240  0.00  0.00     0.000 O
BRANCH 74 78
ATOM     75  C1  SGN C   5      27.539  43.786  13.3870  0.00  0.00     0.000 C
ATOM     76  C2  SGN C   5      27.628  42.370  12.7880  0.00  0.00     0.000 C
ATOM     77  C3  SGN C   5      27.258  41.312  13.8370  0.00  0.00     0.000 C
ATOM     78  C4  SGN C   5      27.990  41.546  15.1510  0.00  0.00     0.000 C
ATOM     79  C5  SGN C   5      27.772  42.983  15.6040  0.00  0.00     0.000 C
ATOM     80  O5  SGN C   5      28.282  43.893  14.5940  0.00  0.00     0.000 O
ATOM     81   O  SGN C   5      27.562  40.021  13.3180  0.00  0.00     0.000 O
ATOM     83  HD  SGN C   5      27.446  39.829  12.4820  0.00  0.00     0.000 HD
BRANCH 76 85
ATOM     83   N  SGN C   5      26.682  42.417  11.6660  0.00  0.00     0.000 N
ATOM     85  HD  SGN C   5      26.437  42.215  10.8600  0.00  0.00     0.000 HD
ATOM     85   S  SGN C   5      26.971  42.591  10.0910  0.00  0.00     0.000 S
ATOM     86   O  SGN C   5      25.756  42.536   9.3540  0.00  0.00     0.000 OA
ATOM     87   O  SGN C   5      27.768  43.755   9.9370  0.00  0.00     0.000 OA
ATOM     88   O  SGN C   5      27.761  41.295   9.9240  0.00  0.00     0.000 OA
ENDBRANCH 76 85
BRANCH 79 89
ATOM     89   C  SGN C   5      28.444  43.308  16.9230  0.00  0.00     0.000 C
ATOM     90   O  SGN C   5      29.883  43.234  16.7700  0.00  0.00     0.000 O
ATOM     91   S  SGN C   5      30.757  44.221  17.6860  0.00  0.00     0.000 S
ATOM     92   O  SGN C   5      30.230  45.544  17.4750  0.00  0.00     0.000 OA
ATOM     93   O  SGN C   5      30.605  43.779  19.0480  0.00  0.00     0.000 OA
ATOM     94   O  SGN C   5      32.091  44.049  17.1780  0.00  0.00     0.000 OA
ENDBRANCH 79 89
BRANCH 75 95
ATOM     95  O4  BDP C   6      26.214  43.998  13.6450  0.00  0.00     0.000 O
BRANCH 95 99
ATOM     96  C1  BDP C   6      23.833  47.572  13.5800  0.00  0.00     0.000 C
ATOM     97  C2  BDP C   6      24.828  47.348  12.4770  0.00  0.00     0.000 C
ATOM     98  C3  BDP C   6      25.343  45.905  12.3710  0.00  0.00     0.000 C
ATOM     99  C4  BDP C   6      25.778  45.372  13.7280  0.00  0.00     0.000 C
ATOM    100  C5  BDP C   6      24.638  45.646  14.7370  0.00  0.00     0.000 C
ATOM    101  O5  BDP C   6      24.510  47.077  14.7200  0.00  0.00     0.000 O
BRANCH 100 102
ATOM    102   C  BDP C   6      24.992  45.228  16.1420  0.00  0.00     0.000 C
ATOM    103   O  BDP C   6      24.484  44.237  16.6850  0.00  0.00     0.000 OA
ATOM    104   O  BDP C   6      25.831  45.916  16.7350  0.00  0.00     0.000 OA
ENDBRANCH 100 102
ENDBRANCH 95 99
ENDBRANCH 75 95
ENDBRANCH 74 78
ENDBRANCH 58 74
ENDBRANCH 57 61
ENDBRANCH 37 57
ENDBRANCH 36 40
ENDBRANCH 23 36
ENDBRANCH 22 26
ENDBRANCH 1 22
TORSDOF 20
ENDMDL
MODEL 62
REMARK VINA RESULT:      -5.6     17.762     20.727
ROOT
ATOM      1  C1  NGY C   1      29.025  40.220  13.0550  0.00  0.00     0.000 C
ATOM      2  C2  NGY C   1      28.429  41.056  14.1790  0.00  0.00     0.000 C
ATOM      3  C3  NGY C   1      26.917  41.162  14.0140  0.00  0.00     0.000 C
ATOM      4  C4  NGY C   1      26.626  41.696  12.6240  0.00  0.00     0.000 C
ATOM      5  C5  NGY C   1      27.202  40.727  11.5960  0.00  0.00     0.000 C
ATOM      6  O5  NGY C   1      28.642  40.678  11.7750  0.00  0.00     0.000 O
ATOM      7   O  NGY C   1      26.394  42.005  15.0300  0.00  0.00     0.000 O
ATOM      9  HD  NGY C   1      26.637  42.722  15.4510  0.00  0.00     0.000 HD
ATOM      9   O  NGY C   1      25.228  41.850  12.4210  0.00  0.00     0.000 O
ATOM     11  HD  NGY C   1      25.472  42.566  12.8420  0.00  0.00     0.000 HD
ENDROOT
BRANCH 2 13
ATOM     11   N  NGY C   1      28.410  40.668  15.5690  0.00  0.00     0.000 N
ATOM     13  HD  NGY C   1      29.051  41.173  15.8590  0.00  0.00     0.000 HD
ATOM     13   C  NGY C   1      29.255  41.196  16.4530  0.00  0.00     0.000 C
ATOM     14   O  NGY C   1      30.178  41.928  16.0930  0.00  0.00     0.000 OA
ATOM     15   C  NGY C   1      29.007  40.876  17.8960  0.00  0.00     0.000 C
ENDBRANCH 2 13
BRANCH 5 16
ATOM     16   C  NGY C   1      26.986  41.114  10.1680  0.00  0.00     0.000 C
ATOM     17   O  NGY C   1      27.802  44.416   8.7920  0.00  0.00     0.000 OA
ATOM     18   O  NGY C   1      27.207  42.521  10.0340  0.00  0.00     0.000 O
ATOM     19   S  NGY C   1      27.467  43.032   8.5710  0.00  0.00     0.000 S
ATOM     20   O  NGY C   1      26.237  42.875   7.8410  0.00  0.00     0.000 OA
ATOM     21   O  NGY C   1      28.546  42.192   8.0760  0.00  0.00     0.000 OA
ENDBRANCH 5 16
BRANCH 1 22
ATOM     22  O4  BDP C   2      28.705  38.925  13.2600  0.00  0.00     0.000 O
BRANCH 22 26
ATOM     23  C1  BDP C   2      29.466  34.902  12.8110  0.00  0.00     0.000 C
ATOM     24  C2  BDP C   2      30.578  35.707  13.4410  0.00  0.00     0.000 C
ATOM     25  C3  BDP C   2      30.047  37.047  13.8770  0.00  0.00     0.000 C
ATOM     26  C4  BDP C   2      29.347  37.742  12.7140  0.00  0.00     0.000 C
ATOM     27  C5  BDP C   2      28.375  36.779  12.0450  0.00  0.00     0.000 C
ATOM     28  O5  BDP C   2      29.017  35.559  11.5920  0.00  0.00     0.000 O
ATOM     29   O  BDP C   2      31.053  35.123  14.6530  0.00  0.00     0.000 O
ATOM     31  HD  BDP C   2      31.291  35.671  15.2800  0.00  0.00     0.000 HD
ATOM     31   O  BDP C   2      31.164  37.816  14.3040  0.00  0.00     0.000 O
ATOM     33  HD  BDP C   2      31.403  38.364  14.9310  0.00  0.00     0.000 HD
BRANCH 27 33
ATOM     33   C  BDP C   2      27.719  37.375  10.8230  0.00  0.00     0.000 C
ATOM     34   O  BDP C   2      26.473  37.393  10.6780  0.00  0.00     0.000 OA
ATOM     35   O  BDP C   2      28.433  37.819   9.9390  0.00  0.00     0.000 OA
ENDBRANCH 27 33
BRANCH 23 36
ATOM     36  O4  SGN C   3      29.783  33.625  12.4940  0.00  0.00     0.000 O
BRANCH 36 40
ATOM     37  C1  SGN C   3      28.326  29.756  11.9160  0.00  0.00     0.000 C
ATOM     38  C2  SGN C   3      27.709  30.884  11.0730  0.00  0.00     0.000 C
ATOM     39  C3  SGN C   3      28.616  32.106  11.0750  0.00  0.00     0.000 C
ATOM     40  C4  SGN C   3      28.868  32.526  12.5070  0.00  0.00     0.000 C
ATOM     41  C5  SGN C   3      29.451  31.353  13.2640  0.00  0.00     0.000 C
ATOM     42  O5  SGN C   3      28.532  30.249  13.2300  0.00  0.00     0.000 O
ATOM     43   O  SGN C   3      27.995  33.152  10.3390  0.00  0.00     0.000 O
ATOM     45  HD  SGN C   3      28.524  33.487  10.9370  0.00  0.00     0.000 HD
BRANCH 38 47
ATOM     45   N  SGN C   3      26.854  29.690  10.9520  0.00  0.00     0.000 N
ATOM     47  HD  SGN C   3      27.285  30.241  11.4630  0.00  0.00     0.000 HD
ATOM     47   S  SGN C   3      26.203  29.566   9.5070  0.00  0.00     0.000 S
ATOM     48   O  SGN C   3      25.282  30.618   9.2620  0.00  0.00     0.000 OA
ATOM     49   O  SGN C   3      27.281  29.430   8.5830  0.00  0.00     0.000 OA
ATOM     50   O  SGN C   3      25.441  28.325   9.6310  0.00  0.00     0.000 OA
ENDBRANCH 38 47
BRANCH 41 51
ATOM     51   C  SGN C   3      29.753  31.642  14.7090  0.00  0.00     0.000 C
ATOM     52   O  SGN C   3      27.718  33.674  17.0760  0.00  0.00     0.000 OA
ATOM     53   O  SGN C   3      29.057  31.734  17.4950  0.00  0.00     0.000 OA
ATOM     54   O  SGN C   3      30.076  33.782  16.7620  0.00  0.00     0.000 OA
ATOM     55   O  SGN C   3      28.700  32.406  15.2510  0.00  0.00     0.000 O
ATOM     56   S  SGN C   3      28.909  32.950  16.7900  0.00  0.00     0.000 S
ENDBRANCH 41 51
BRANCH 37 57
ATOM     57  O4  IDS C   4      29.508  29.284  11.4500  0.00  0.00     0.000 O
BRANCH 57 61
ATOM     58  C1  IDS C   4      30.781  25.865  10.3710  0.00  0.00     0.000 C
ATOM     59  C2  IDS C   4      29.318  26.037  10.6310  0.00  0.00     0.000 C
ATOM     60  C3  IDS C   4      29.033  26.919  11.8490  0.00  0.00     0.000 C
ATOM     61  C4  IDS C   4      29.986  28.083  12.0860  0.00  0.00     0.000 C
ATOM     62  C5  IDS C   4      31.399  27.734  11.6060  0.00  0.00     0.000 C
ATOM     63  O5  IDS C   4      31.387  27.145  10.3130  0.00  0.00     0.000 O
ATOM     64   O  IDS C   4      29.106  26.049  12.9630  0.00  0.00     0.000 O
ATOM     66  HD  IDS C   4      29.786  26.251  13.4610  0.00  0.00     0.000 HD
BRANCH 59 66
ATOM     66   O  IDS C   4      28.636  26.671   9.4870  0.00  0.00     0.000 O
ATOM     67   S  IDS C   4      28.304  25.730   8.2470  0.00  0.00     0.000 S
ATOM     68   O  IDS C   4      27.354  24.791   8.7920  0.00  0.00     0.000 OA
ATOM     69   O  IDS C   4      27.771  26.621   7.2350  0.00  0.00     0.000 OA
ATOM     70   O  IDS C   4      29.544  25.076   7.8600  0.00  0.00     0.000 OA
ENDBRANCH 59 66
BRANCH 62 71
ATOM     71   C  IDS C   4      32.306  28.945  11.4950  0.00  0.00     0.000 C
ATOM     72   O  IDS C   4      32.581  29.594  12.4850  0.00  0.00     0.000 OA
ATOM     73   O  IDS C   4      32.669  29.313  10.3590  0.00  0.00     0.000 OA
ENDBRANCH 62 71
BRANCH 58 74
ATOM     74  O4  SGN C   5      31.381  24.877  11.0950  0.00  0.00     0.000 O
BRANCH 74 78
ATOM     75  C1  SGN C   5      34.363  21.952  11.0860  0.00  0.00     0.000 C
ATOM     76  C2  SGN C   5      34.739  23.299  11.7320  0.00  0.00     0.000 C
ATOM     77  C3  SGN C   5      33.487  24.150  11.9810  0.00  0.00     0.000 C
ATOM     78  C4  SGN C   5      32.594  24.207  10.7490  0.00  0.00     0.000 C
ATOM     79  C5  SGN C   5      32.305  22.794  10.2650  0.00  0.00     0.000 C
ATOM     80  O5  SGN C   5      33.554  22.132   9.9310  0.00  0.00     0.000 O
ATOM     81   O  SGN C   5      33.888  25.460  12.3690  0.00  0.00     0.000 O
ATOM     83  HD  SGN C   5      34.581  25.593  12.8710  0.00  0.00     0.000 HD
BRANCH 76 85
ATOM     83   N  SGN C   5      36.175  23.382  12.0250  0.00  0.00     0.000 N
ATOM     85  HD  SGN C   5      36.919  23.049  12.3190  0.00  0.00     0.000 HD
ATOM     85   S  SGN C   5      36.991  22.840  13.3030  0.00  0.00     0.000 S
ATOM     86   O  SGN C   5      38.381  23.098  13.1520  0.00  0.00     0.000 OA
ATOM     87   O  SGN C   5      36.359  23.368  14.4590  0.00  0.00     0.000 OA
ATOM     88   O  SGN C   5      36.691  21.361  13.0760  0.00  0.00     0.000 OA
ENDBRANCH 76 85
BRANCH 79 89
ATOM     89   C  SGN C   5      31.400  22.744   9.0510  0.00  0.00     0.000 C
ATOM     90   O  SGN C   5      31.098  21.367   8.7210  0.00  0.00     0.000 O
ATOM     91   S  SGN C   5      29.664  21.081   8.0590  0.00  0.00     0.000 S
ATOM     92   O  SGN C   5      28.688  21.684   8.9290  0.00  0.00     0.000 OA
ATOM     93   O  SGN C   5      29.677  21.678   6.7480  0.00  0.00     0.000 OA
ATOM     94   O  SGN C   5      29.594  19.646   8.0290  0.00  0.00     0.000 OA
ENDBRANCH 79 89
BRANCH 75 95
ATOM     95  O4  BDP C   6      33.659  21.268  12.0360  0.00  0.00     0.000 O
BRANCH 95 99
ATOM     96  C1  BDP C   6      32.933  17.056  12.4670  0.00  0.00     0.000 C
ATOM     97  C2  BDP C   6      34.244  17.507  11.8880  0.00  0.00     0.000 C
ATOM     98  C3  BDP C   6      34.566  18.990  12.1250  0.00  0.00     0.000 C
ATOM     99  C4  BDP C   6      33.382  19.876  11.7660  0.00  0.00     0.000 C
ATOM    100  C5  BDP C   6      32.127  19.303  12.4640  0.00  0.00     0.000 C
ATOM    101  O5  BDP C   6      32.013  17.979  11.9160  0.00  0.00     0.000 O
BRANCH 100 102
ATOM    102   C  BDP C   6      30.871  20.060  12.1150  0.00  0.00     0.000 C
ATOM    103   O  BDP C   6      30.010  19.599  11.3510  0.00  0.00     0.000 OA
ATOM    104   O  BDP C   6      30.725  21.171  12.6380  0.00  0.00     0.000 OA
ENDBRANCH 100 102
ENDBRANCH 95 99
ENDBRANCH 75 95
ENDBRANCH 74 78
ENDBRANCH 58 74
ENDBRANCH 57 61
ENDBRANCH 37 57
ENDBRANCH 36 40
ENDBRANCH 23 36
ENDBRANCH 22 26
ENDBRANCH 1 22
TORSDOF 20
ENDMDL
MODEL 63
REMARK VINA RESULT:      -5.6     12.631     20.620
ROOT
ATOM      1  C1  NGY C   1      27.418  17.474  32.6540  0.00  0.00     0.000 C
ATOM      2  C2  NGY C   1      28.096  18.818  32.8820  0.00  0.00     0.000 C
ATOM      3  C3  NGY C   1      27.553  19.475  34.1480  0.00  0.00     0.000 C
ATOM      4  C4  NGY C   1      26.043  19.557  34.0310  0.00  0.00     0.000 C
ATOM      5  C5  NGY C   1      25.486  18.143  33.8900  0.00  0.00     0.000 C
ATOM      6  O5  NGY C   1      26.009  17.569  32.6640  0.00  0.00     0.000 O
ATOM      7   O  NGY C   1      28.147  20.756  34.3000  0.00  0.00     0.000 O
ATOM      9  HD  NGY C   1      28.402  21.405  33.7860  0.00  0.00     0.000 HD
ATOM      9   O  NGY C   1      25.480  20.193  35.1690  0.00  0.00     0.000 O
ATOM     11  HD  NGY C   1      25.735  20.842  34.6560  0.00  0.00     0.000 HD
ENDROOT
BRANCH 2 13
ATOM     11   N  NGY C   1      29.460  19.146  33.2250  0.00  0.00     0.000 N
ATOM     13  HD  NGY C   1      29.779  19.244  32.4270  0.00  0.00     0.000 HD
ATOM     13   C  NGY C   1      30.375  19.392  32.2890  0.00  0.00     0.000 C
ATOM     14   O  NGY C   1      30.131  19.208  31.0960  0.00  0.00     0.000 OA
ATOM     15   C  NGY C   1      31.694  19.924  32.7620  0.00  0.00     0.000 C
ENDBRANCH 2 13
BRANCH 5 16
ATOM     16   C  NGY C   1      23.998  18.056  33.7730  0.00  0.00     0.000 C
ATOM     17   O  NGY C   1      21.748  17.501  36.6180  0.00  0.00     0.000 OA
ATOM     18   O  NGY C   1      23.463  17.622  35.0270  0.00  0.00     0.000 O
ATOM     19   S  NGY C   1      21.931  17.895  35.2440  0.00  0.00     0.000 S
ATOM     20   O  NGY C   1      21.214  17.046  34.3300  0.00  0.00     0.000 OA
ATOM     21   O  NGY C   1      21.770  19.313  34.9680  0.00  0.00     0.000 OA
ENDBRANCH 5 16
BRANCH 1 22
ATOM     22  O4  BDP C   2      27.886  16.591  33.5610  0.00  0.00     0.000 O
BRANCH 22 26
ATOM     23  C1  BDP C   2      28.580  12.544  33.8840  0.00  0.00     0.000 C
ATOM     24  C2  BDP C   2      27.910  12.989  32.6050  0.00  0.00     0.000 C
ATOM     25  C3  BDP C   2      28.047  14.481  32.4540  0.00  0.00     0.000 C
ATOM     26  C4  BDP C   2      27.544  15.188  33.7080  0.00  0.00     0.000 C
ATOM     27  C5  BDP C   2      28.154  14.542  34.9460  0.00  0.00     0.000 C
ATOM     28  O5  BDP C   2      27.884  13.118  35.0260  0.00  0.00     0.000 O
ATOM     29   O  BDP C   2      28.557  12.471  31.4430  0.00  0.00     0.000 O
ATOM     31  HD  BDP C   2      28.581  12.989  30.7500  0.00  0.00     0.000 HD
ATOM     31   O  BDP C   2      27.260  14.857  31.3320  0.00  0.00     0.000 O
ATOM     33  HD  BDP C   2      27.283  15.375  30.6380  0.00  0.00     0.000 HD
BRANCH 27 33
ATOM     33   C  BDP C   2      27.620  15.133  36.2280  0.00  0.00     0.000 C
ATOM     34   O  BDP C   2      28.153  14.902  37.3400  0.00  0.00     0.000 OA
ATOM     35   O  BDP C   2      26.619  15.828  36.1750  0.00  0.00     0.000 OA
ENDBRANCH 27 33
BRANCH 23 36
ATOM     36  O4  SGN C   3      28.640  11.205  34.0720  0.00  0.00     0.000 O
BRANCH 36 40
ATOM     37  C1  SGN C   3      31.667   8.446  34.8820  0.00  0.00     0.000 C
ATOM     38  C2  SGN C   3      30.358   8.326  35.6790  0.00  0.00     0.000 C
ATOM     39  C3  SGN C   3      29.239   9.086  34.9840  0.00  0.00     0.000 C
ATOM     40  C4  SGN C   3      29.669  10.525  34.7950  0.00  0.00     0.000 C
ATOM     41  C5  SGN C   3      30.971  10.547  34.0240  0.00  0.00     0.000 C
ATOM     42  O5  SGN C   3      31.977   9.825  34.7510  0.00  0.00     0.000 O
ATOM     43   O  SGN C   3      28.058   9.007  35.7720  0.00  0.00     0.000 O
ATOM     45  HD  SGN C   3      28.050   9.733  35.3010  0.00  0.00     0.000 HD
BRANCH 38 47
ATOM     45   N  SGN C   3      31.186   7.677  36.7120  0.00  0.00     0.000 N
ATOM     47  HD  SGN C   3      30.927   8.407  36.3240  0.00  0.00     0.000 HD
ATOM     47   S  SGN C   3      30.758   6.166  36.9590  0.00  0.00     0.000 S
ATOM     48   O  SGN C   3      29.457   6.083  37.5240  0.00  0.00     0.000 OA
ATOM     49   O  SGN C   3      30.968   5.475  35.7290  0.00  0.00     0.000 OA
ATOM     50   O  SGN C   3      31.715   5.749  37.9820  0.00  0.00     0.000 OA
ENDBRANCH 38 47
BRANCH 41 51
ATOM     51   C  SGN C   3      31.508  11.928  33.7640  0.00  0.00     0.000 C
ATOM     52   O  SGN C   3      34.614  12.828  31.9140  0.00  0.00     0.000 OA
ATOM     53   O  SGN C   3      32.524  13.990  32.0410  0.00  0.00     0.000 OA
ATOM     54   O  SGN C   3      33.885  13.716  34.0000  0.00  0.00     0.000 OA
ATOM     55   O  SGN C   3      32.679  11.822  32.9850  0.00  0.00     0.000 O
ATOM     56   S  SGN C   3      33.502  13.221  32.7110  0.00  0.00     0.000 S
ENDBRANCH 41 51
BRANCH 37 57
ATOM     57  O4  IDS C   4      31.626   7.902  33.6410  0.00  0.00     0.000 O
BRANCH 57 61
ATOM     58  C1  IDS C   4      33.743   5.974  31.1370  0.00  0.00     0.000 C
ATOM     59  C2  IDS C   4      34.133   5.944  32.5810  0.00  0.00     0.000 C
ATOM     60  C3  IDS C   4      33.966   7.302  33.2670  0.00  0.00     0.000 C
ATOM     61  C4  IDS C   4      32.783   8.150  32.8200  0.00  0.00     0.000 C
ATOM     62  C5  IDS C   4      32.467   7.905  31.3400  0.00  0.00     0.000 C
ATOM     63  O5  IDS C   4      32.439   6.519  31.0300  0.00  0.00     0.000 O
ATOM     64   O  IDS C   4      35.156   8.013  32.9820  0.00  0.00     0.000 O
ATOM     66  HD  IDS C   4      34.990   8.688  32.4650  0.00  0.00     0.000 HD
BRANCH 59 66
ATOM     66   O  IDS C   4      33.313   4.985  33.3450  0.00  0.00     0.000 O
ATOM     67   S  IDS C   4      34.101   3.903  34.2050  0.00  0.00     0.000 S
ATOM     68   O  IDS C   4      34.784   4.702  35.1940  0.00  0.00     0.000 OA
ATOM     69   O  IDS C   4      33.074   3.025  34.7310  0.00  0.00     0.000 OA
ATOM     70   O  IDS C   4      35.038   3.241  33.3090  0.00  0.00     0.000 OA
ENDBRANCH 59 66
BRANCH 62 71
ATOM     71   C  IDS C   4      31.112   8.444  30.9240  0.00  0.00     0.000 C
ATOM     72   O  IDS C   4      30.167   7.690  30.7980  0.00  0.00     0.000 OA
ATOM     73   O  IDS C   4      31.022   9.650  30.6160  0.00  0.00     0.000 OA
ENDBRANCH 62 71
BRANCH 58 74
ATOM     74  O4  SGN C   5      34.718   6.405  30.2870  0.00  0.00     0.000 O
BRANCH 74 78
ATOM     75  C1  SGN C   5      35.872   6.888  26.3020  0.00  0.00     0.000 C
ATOM     76  C2  SGN C   5      35.036   8.032  26.9070  0.00  0.00     0.000 C
ATOM     77  C3  SGN C   5      34.970   7.907  28.4340  0.00  0.00     0.000 C
ATOM     78  C4  SGN C   5      34.608   6.492  28.8660  0.00  0.00     0.000 C
ATOM     79  C5  SGN C   5      35.548   5.501  28.1950  0.00  0.00     0.000 C
ATOM     80  O5  SGN C   5      35.425   5.616  26.7530  0.00  0.00     0.000 O
ATOM     81   O  SGN C   5      34.018   8.840  28.9340  0.00  0.00     0.000 O
ATOM     83  HD  SGN C   5      33.925   9.626  28.5820  0.00  0.00     0.000 HD
BRANCH 76 85
ATOM     83   N  SGN C   5      34.966   9.467  26.6020  0.00  0.00     0.000 N
ATOM     85  HD  SGN C   5      34.801  10.131  26.0710  0.00  0.00     0.000 HD
ATOM     85   S  SGN C   5      35.387  10.248  25.2580  0.00  0.00     0.000 S
ATOM     86   O  SGN C   5      35.106  11.637  25.3820  0.00  0.00     0.000 OA
ATOM     87   O  SGN C   5      36.727   9.885  24.9650  0.00  0.00     0.000 OA
ATOM     88   O  SGN C   5      34.367   9.572  24.3460  0.00  0.00     0.000 OA
ENDBRANCH 76 85
BRANCH 79 89
ATOM     89   C  SGN C   5      35.282   4.060  28.5820  0.00  0.00     0.000 C
ATOM     90   O  SGN C   5      36.186   3.185  27.8640  0.00  0.00     0.000 O
ATOM     91   S  SGN C   5      36.629   1.835  28.6110  0.00  0.00     0.000 S
ATOM     92   O  SGN C   5      37.126   2.230  29.9030  0.00  0.00     0.000 OA
ATOM     93   O  SGN C   5      35.459   1.000  28.7030  0.00  0.00     0.000 OA
ATOM     94   O  SGN C   5      37.644   1.297  27.7470  0.00  0.00     0.000 OA
ENDBRANCH 79 89
BRANCH 75 95
ATOM     95  O4  BDP C   6      37.154   7.101  26.7250  0.00  0.00     0.000 O
BRANCH 95 99
ATOM     96  C1  BDP C   6      40.872   5.879  24.9550  0.00  0.00     0.000 C
ATOM     97  C2  BDP C   6      39.697   6.143  24.0560  0.00  0.00     0.000 C
ATOM     98  C3  BDP C   6      38.556   6.928  24.7190  0.00  0.00     0.000 C
ATOM     99  C4  BDP C   6      38.190   6.336  26.0720  0.00  0.00     0.000 C
ATOM    100  C5  BDP C   6      39.495   6.159  26.8850  0.00  0.00     0.000 C
ATOM    101  O5  BDP C   6      40.274   5.260  26.0790  0.00  0.00     0.000 O
BRANCH 100 102
ATOM    102   C  BDP C   6      39.263   5.503  28.2220  0.00  0.00     0.000 C
ATOM    103   O  BDP C   6      39.301   4.273  28.3710  0.00  0.00     0.000 OA
ATOM    104   O  BDP C   6      39.042   6.252  29.1810  0.00  0.00     0.000 OA
ENDBRANCH 100 102
ENDBRANCH 95 99
ENDBRANCH 75 95
ENDBRANCH 74 78
ENDBRANCH 58 74
ENDBRANCH 57 61
ENDBRANCH 37 57
ENDBRANCH 36 40
ENDBRANCH 23 36
ENDBRANCH 22 26
ENDBRANCH 1 22
TORSDOF 20
ENDMDL
MODEL 64
REMARK VINA RESULT:      -5.6      5.301     14.538
ROOT
ATOM      1  C1  NGY C   1      26.767  25.969  28.8260  0.00  0.00     0.000 C
ATOM      2  C2  NGY C   1      27.731  27.098  28.4870  0.00  0.00     0.000 C
ATOM      3  C3  NGY C   1      28.547  26.742  27.2490  0.00  0.00     0.000 C
ATOM      4  C4  NGY C   1      29.222  25.405  27.4920  0.00  0.00     0.000 C
ATOM      5  C5  NGY C   1      28.146  24.351  27.7360  0.00  0.00     0.000 C
ATOM      6  O5  NGY C   1      27.413  24.719  28.9340  0.00  0.00     0.000 O
ATOM      7   O  NGY C   1      29.487  27.776  26.9960  0.00  0.00     0.000 O
ATOM      9  HD  NGY C   1      29.982  28.315  27.4600  0.00  0.00     0.000 HD
ATOM      9   O  NGY C   1      30.028  25.033  26.3830  0.00  0.00     0.000 O
ATOM     11  HD  NGY C   1      30.523  25.572  26.8470  0.00  0.00     0.000 HD
ENDROOT
BRANCH 2 13
ATOM     11   N  NGY C   1      26.869  28.252  28.5910  0.00  0.00     0.000 N
ATOM     13  HD  NGY C   1      27.469  28.853  28.7610  0.00  0.00     0.000 HD
ATOM     13   C  NGY C   1      27.354  29.464  28.8570  0.00  0.00     0.000 C
ATOM     14   O  NGY C   1      28.536  29.623  29.1660  0.00  0.00     0.000 OA
ATOM     15   C  NGY C   1      26.399  30.612  28.7350  0.00  0.00     0.000 C
ENDBRANCH 2 13
BRANCH 5 16
ATOM     16   C  NGY C   1      28.657  22.968  27.9850  0.00  0.00     0.000 C
ATOM     17   O  NGY C   1      28.322  20.201  25.6000  0.00  0.00     0.000 OA
ATOM     18   O  NGY C   1      28.168  22.105  26.9540  0.00  0.00     0.000 O
ATOM     19   S  NGY C   1      28.937  20.746  26.7830  0.00  0.00     0.000 S
ATOM     20   O  NGY C   1      28.669  19.955  27.9550  0.00  0.00     0.000 OA
ATOM     21   O  NGY C   1      30.333  21.130  26.6490  0.00  0.00     0.000 OA
ENDBRANCH 5 16
BRANCH 1 22
ATOM     22  O4  BDP C   2      25.769  25.962  27.9170  0.00  0.00     0.000 O
BRANCH 22 26
ATOM     23  C1  BDP C   2      21.773  25.060  27.4970  0.00  0.00     0.000 C
ATOM     24  C2  BDP C   2      22.327  24.921  28.8950  0.00  0.00     0.000 C
ATOM     25  C3  BDP C   2      23.660  25.616  28.9820  0.00  0.00     0.000 C
ATOM     26  C4  BDP C   2      24.590  25.115  27.8830  0.00  0.00     0.000 C
ATOM     27  C5  BDP C   2      23.866  25.137  26.5430  0.00  0.00     0.000 C
ATOM     28  O5  BDP C   2      22.639  24.364  26.5570  0.00  0.00     0.000 O
ATOM     29   O  BDP C   2      21.529  25.598  29.8670  0.00  0.00     0.000 O
ATOM     31  HD  BDP C   2      21.953  25.971  30.5230  0.00  0.00     0.000 HD
ATOM     31   O  BDP C   2      24.204  25.309  30.2600  0.00  0.00     0.000 O
ATOM     33  HD  BDP C   2      24.627  25.683  30.9170  0.00  0.00     0.000 HD
BRANCH 27 33
ATOM     33   C  BDP C   2      24.702  24.560  25.4250  0.00  0.00     0.000 C
ATOM     34   O  BDP C   2      25.550  23.658  25.6260  0.00  0.00     0.000 OA
ATOM     35   O  BDP C   2      24.563  25.016  24.3020  0.00  0.00     0.000 OA
ENDBRANCH 27 33
BRANCH 23 36
ATOM     36  O4  SGN C   3      20.516  24.588  27.3220  0.00  0.00     0.000 O
BRANCH 36 40
ATOM     37  C1  SGN C   3      17.063  24.978  25.0090  0.00  0.00     0.000 C
ATOM     38  C2  SGN C   3      18.038  23.845  24.6510  0.00  0.00     0.000 C
ATOM     39  C3  SGN C   3      18.980  23.566  25.8130  0.00  0.00     0.000 C
ATOM     40  C4  SGN C   3      19.695  24.849  26.1810  0.00  0.00     0.000 C
ATOM     41  C5  SGN C   3      18.663  25.910  26.4940  0.00  0.00     0.000 C
ATOM     42  O5  SGN C   3      17.826  26.125  25.3470  0.00  0.00     0.000 O
ATOM     43   O  SGN C   3      19.908  22.557  25.4330  0.00  0.00     0.000 O
ATOM     45  HD  SGN C   3      20.260  23.070  26.0360  0.00  0.00     0.000 HD
BRANCH 38 47
ATOM     45   N  SGN C   3      17.485  23.943  23.2880  0.00  0.00     0.000 N
ATOM     47  HD  SGN C   3      18.016  24.260  23.8940  0.00  0.00     0.000 HD
ATOM     47   S  SGN C   3      16.728  22.614  22.8540  0.00  0.00     0.000 S
ATOM     48   O  SGN C   3      17.627  21.522  22.7330  0.00  0.00     0.000 OA
ATOM     49   O  SGN C   3      15.639  22.450  23.7600  0.00  0.00     0.000 OA
ATOM     50   O  SGN C   3      16.264  22.961  21.5120  0.00  0.00     0.000 OA
ENDBRANCH 38 47
BRANCH 41 51
ATOM     51   C  SGN C   3      19.247  27.241  26.8810  0.00  0.00     0.000 C
ATOM     52   O  SGN C   3      19.530  28.666  30.3120  0.00  0.00     0.000 OA
ATOM     53   O  SGN C   3      20.997  28.906  28.4360  0.00  0.00     0.000 OA
ATOM     54   O  SGN C   3      18.766  29.789  28.3560  0.00  0.00     0.000 OA
ATOM     55   O  SGN C   3      19.203  27.366  28.2860  0.00  0.00     0.000 O
ATOM     56   S  SGN C   3      19.667  28.819  28.9040  0.00  0.00     0.000 S
ENDBRANCH 41 51
BRANCH 37 57
ATOM     57  O4  IDS C   4      16.231  24.702  26.0430  0.00  0.00     0.000 O
BRANCH 57 61
ATOM     58  C1  IDS C   4      12.617  25.080  27.1670  0.00  0.00     0.000 C
ATOM     59  C2  IDS C   4      12.927  25.166  25.7070  0.00  0.00     0.000 C
ATOM     60  C3  IDS C   4      14.217  25.939  25.4200  0.00  0.00     0.000 C
ATOM     61  C4  IDS C   4      15.347  25.773  26.4260  0.00  0.00     0.000 C
ATOM     62  C5  IDS C   4      14.791  25.547  27.8370  0.00  0.00     0.000 C
ATOM     63  O5  IDS C   4      13.755  24.576  27.8450  0.00  0.00     0.000 O
ATOM     64   O  IDS C   4      13.836  27.303  25.3980  0.00  0.00     0.000 O
ATOM     66  HD  IDS C   4      14.188  27.726  26.0670  0.00  0.00     0.000 HD
BRANCH 59 66
ATOM     66   O  IDS C   4      13.100  23.829  25.1090  0.00  0.00     0.000 O
ATOM     67   S  IDS C   4      11.999  23.374  24.0530  0.00  0.00     0.000 S
ATOM     68   O  IDS C   4      12.179  24.309  22.9680  0.00  0.00     0.000 OA
ATOM     69   O  IDS C   4      12.331  21.999  23.7360  0.00  0.00     0.000 OA
ATOM     70   O  IDS C   4      10.701  23.534  24.6900  0.00  0.00     0.000 OA
ENDBRANCH 59 66
BRANCH 62 71
ATOM     71   C  IDS C   4      15.835  25.039  28.8130  0.00  0.00     0.000 C
ATOM     72   O  IDS C   4      15.870  23.861  29.1110  0.00  0.00     0.000 OA
ATOM     73   O  IDS C   4      16.578  25.870  29.3730  0.00  0.00     0.000 OA
ENDBRANCH 62 71
BRANCH 58 74
ATOM     74  O4  SGN C   5      11.959  26.158  27.6800  0.00  0.00     0.000 O
BRANCH 74 78
ATOM     75  C1  SGN C   5       9.120  27.486  30.4410  0.00  0.00     0.000 C
ATOM     76  C2  SGN C   5      10.566  27.376  30.9590  0.00  0.00     0.000 C
ATOM     77  C3  SGN C   5      11.550  27.217  29.7920  0.00  0.00     0.000 C
ATOM     78  C4  SGN C   5      11.090  26.146  28.8130  0.00  0.00     0.000 C
ATOM     79  C5  SGN C   5       9.656  26.427  28.3900  0.00  0.00     0.000 C
ATOM     80  O5  SGN C   5       8.795  26.419  29.5600  0.00  0.00     0.000 O
ATOM     81   O  SGN C   5      12.837  26.900  30.3130  0.00  0.00     0.000 O
ATOM     83  HD  SGN C   5      13.127  27.249  31.0500  0.00  0.00     0.000 HD
BRANCH 76 85
ATOM     83   N  SGN C   5      10.095  27.795  32.2850  0.00  0.00     0.000 N
ATOM     85  HD  SGN C   5       9.929  28.396  32.8850  0.00  0.00     0.000 HD
ATOM     85   S  SGN C   5      10.708  28.896  33.2880  0.00  0.00     0.000 S
ATOM     86   O  SGN C   5       9.901  29.011  34.4530  0.00  0.00     0.000 OA
ATOM     87   O  SGN C   5      12.077  28.572  33.4800  0.00  0.00     0.000 OA
ATOM     88   O  SGN C   5      10.497  30.095  32.3670  0.00  0.00     0.000 OA
ENDBRANCH 76 85
BRANCH 79 89
ATOM     89   C  SGN C   5       9.113  25.424  27.3930  0.00  0.00     0.000 C
ATOM     90   O  SGN C   5       8.454  24.341  28.0960  0.00  0.00     0.000 O
ATOM     91   S  SGN C   5       7.216  23.644  27.3480  0.00  0.00     0.000 S
ATOM     92   O  SGN C   5       6.320  24.706  26.9710  0.00  0.00     0.000 OA
ATOM     93   O  SGN C   5       7.750  22.943  26.2090  0.00  0.00     0.000 OA
ATOM     94   O  SGN C   5       6.676  22.768  28.3520  0.00  0.00     0.000 OA
ENDBRANCH 79 89
BRANCH 75 95
ATOM     95  O4  BDP C   6       9.055  28.673  29.7670  0.00  0.00     0.000 O
BRANCH 95 99
ATOM     96  C1  BDP C   6       5.797  31.398  29.1320  0.00  0.00     0.000 C
ATOM     97  C2  BDP C   6       5.940  30.745  30.4770  0.00  0.00     0.000 C
ATOM     98  C3  BDP C   6       7.314  30.107  30.7300  0.00  0.00     0.000 C
ATOM     99  C4  BDP C   6       7.741  29.234  29.5590  0.00  0.00     0.000 C
ATOM    100  C5  BDP C   6       7.570  30.058  28.2610  0.00  0.00     0.000 C
ATOM    101  O5  BDP C   6       6.166  30.363  28.2390  0.00  0.00     0.000 O
BRANCH 100 102
ATOM    102   C  BDP C   6       7.892  29.263  27.0210  0.00  0.00     0.000 C
ATOM    103   O  BDP C   6       7.066  28.510  26.4840  0.00  0.00     0.000 OA
ATOM    104   O  BDP C   6       9.025  29.403  26.5460  0.00  0.00     0.000 OA
ENDBRANCH 100 102
ENDBRANCH 95 99
ENDBRANCH 75 95
ENDBRANCH 74 78
ENDBRANCH 58 74
ENDBRANCH 57 61
ENDBRANCH 37 57
ENDBRANCH 36 40
ENDBRANCH 23 36
ENDBRANCH 22 26
ENDBRANCH 1 22
TORSDOF 20
ENDMDL
MODEL 65
REMARK VINA RESULT:      -5.6     19.754     31.553
ROOT
ATOM      1  C1  NGY C   1      35.843   5.426  53.0720  0.00  0.00     0.000 C
ATOM      2  C2  NGY C   1      36.232   5.217  54.5280  0.00  0.00     0.000 C
ATOM      3  C3  NGY C   1      37.350   6.178  54.9210  0.00  0.00     0.000 C
ATOM      4  C4  NGY C   1      38.496   5.999  53.9430  0.00  0.00     0.000 C
ATOM      5  C5  NGY C   1      37.994   6.318  52.5370  0.00  0.00     0.000 C
ATOM      6  O5  NGY C   1      36.952   5.366  52.2000  0.00  0.00     0.000 O
ATOM      7   O  NGY C   1      37.744   5.913  56.2590  0.00  0.00     0.000 O
ATOM      9  HD  NGY C   1      37.836   5.221  56.7720  0.00  0.00     0.000 HD
ATOM      9   O  NGY C   1      39.585   6.846  54.2770  0.00  0.00     0.000 O
ATOM     11  HD  NGY C   1      39.677   6.154  54.7890  0.00  0.00     0.000 HD
ENDROOT
BRANCH 2 13
ATOM     11   N  NGY C   1      35.678   5.366  55.8530  0.00  0.00     0.000 N
ATOM     13  HD  NGY C   1      35.132   4.694  55.8480  0.00  0.00     0.000 HD
ATOM     13   C  NGY C   1      34.753   4.530  56.3220  0.00  0.00     0.000 C
ATOM     14   O  NGY C   1      34.230   3.685  55.5930  0.00  0.00     0.000 OA
ATOM     15   C  NGY C   1      34.407   4.655  57.7740  0.00  0.00     0.000 C
ENDBRANCH 2 13
BRANCH 5 16
ATOM     16   C  NGY C   1      39.018   6.196  51.4550  0.00  0.00     0.000 C
ATOM     17   O  NGY C   1      40.393   3.002  50.2840  0.00  0.00     0.000 OA
ATOM     18   O  NGY C   1      39.480   4.843  51.4090  0.00  0.00     0.000 O
ATOM     19   S  NGY C   1      40.204   4.416  50.0810  0.00  0.00     0.000 S
ATOM     20   O  NGY C   1      41.450   5.134  50.0260  0.00  0.00     0.000 OA
ATOM     21   O  NGY C   1      39.275   4.783  49.0240  0.00  0.00     0.000 OA
ENDBRANCH 5 16
BRANCH 1 22
ATOM     22  O4  BDP C   2      35.162   6.587  52.9670  0.00  0.00     0.000 O
BRANCH 22 26
ATOM     23  C1  BDP C   2      32.091   8.758  51.2880  0.00  0.00     0.000 C
ATOM     24  C2  BDP C   2      31.780   7.309  51.5760  0.00  0.00     0.000 C
ATOM     25  C3  BDP C   2      32.825   6.742  52.5010  0.00  0.00     0.000 C
ATOM     26  C4  BDP C   2      34.220   6.987  51.9360  0.00  0.00     0.000 C
ATOM     27  C5  BDP C   2      34.360   8.445  51.5190  0.00  0.00     0.000 C
ATOM     28  O5  BDP C   2      33.349   8.853  50.5620  0.00  0.00     0.000 O
ATOM     29   O  BDP C   2      30.563   7.147  52.3030  0.00  0.00     0.000 O
ATOM     31  HD  BDP C   2      30.542   6.508  52.8870  0.00  0.00     0.000 HD
ATOM     31   O  BDP C   2      32.576   5.345  52.5990  0.00  0.00     0.000 O
ATOM     33  HD  BDP C   2      32.556   4.706  53.1830  0.00  0.00     0.000 HD
BRANCH 27 33
ATOM     33   C  BDP C   2      35.688   8.733  50.8600  0.00  0.00     0.000 C
ATOM     34   O  BDP C   2      36.628   9.292  51.4740  0.00  0.00     0.000 OA
ATOM     35   O  BDP C   2      35.829   8.439  49.6850  0.00  0.00     0.000 OA
ENDBRANCH 27 33
BRANCH 23 36
ATOM     36  O4  SGN C   3      31.154   9.421  50.5700  0.00  0.00     0.000 O
BRANCH 36 40
ATOM     37  C1  SGN C   3      28.920  12.930  50.2200  0.00  0.00     0.000 C
ATOM     38  C2  SGN C   3      30.451  13.048  50.1510  0.00  0.00     0.000 C
ATOM     39  C3  SGN C   3      31.077  11.693  49.8550  0.00  0.00     0.000 C
ATOM     40  C4  SGN C   3      30.621  10.704  50.9060  0.00  0.00     0.000 C
ATOM     41  C5  SGN C   3      29.108  10.670  50.9200  0.00  0.00     0.000 C
ATOM     42  O5  SGN C   3      28.596  11.978  51.2200  0.00  0.00     0.000 O
ATOM     43   O  SGN C   3      32.494  11.821  49.8570  0.00  0.00     0.000 O
ATOM     45  HD  SGN C   3      32.270  11.013  50.0750  0.00  0.00     0.000 HD
BRANCH 38 47
ATOM     45   N  SGN C   3      31.258  14.258  50.3950  0.00  0.00     0.000 N
ATOM     47  HD  SGN C   3      31.175  13.398  50.4650  0.00  0.00     0.000 HD
ATOM     47   S  SGN C   3      30.731  15.505  49.5620  0.00  0.00     0.000 S
ATOM     48   O  SGN C   3      30.905  15.306  48.1660  0.00  0.00     0.000 OA
ATOM     49   O  SGN C   3      29.402  15.764  50.0110  0.00  0.00     0.000 OA
ATOM     50   O  SGN C   3      31.656  16.555  49.9820  0.00  0.00     0.000 OA
ENDBRANCH 38 47
BRANCH 41 51
ATOM     51   C  SGN C   3      28.523   9.716  51.9250  0.00  0.00     0.000 C
ATOM     52   O  SGN C   3      27.062  10.556  55.2470  0.00  0.00     0.000 OA
ATOM     53   O  SGN C   3      26.444   8.835  53.7010  0.00  0.00     0.000 OA
ATOM     54   O  SGN C   3      28.597   8.800  54.7640  0.00  0.00     0.000 OA
ATOM     55   O  SGN C   3      28.037  10.453  53.0240  0.00  0.00     0.000 O
ATOM     56   S  SGN C   3      27.485   9.578  54.3040  0.00  0.00     0.000 S
ENDBRANCH 41 51
BRANCH 37 57
ATOM     57  O4  IDS C   4      28.330  12.545  49.0610  0.00  0.00     0.000 O
BRANCH 57 61
ATOM     58  C1  IDS C   4      25.696  13.600  46.5280  0.00  0.00     0.000 C
ATOM     59  C2  IDS C   4      26.294  14.643  47.4180  0.00  0.00     0.000 C
ATOM     60  C3  IDS C   4      26.497  14.149  48.8530  0.00  0.00     0.000 C
ATOM     61  C4  IDS C   4      26.897  12.690  49.0210  0.00  0.00     0.000 C
ATOM     62  C5  IDS C   4      26.290  11.828  47.9080  0.00  0.00     0.000 C
ATOM     63  O5  IDS C   4      26.471  12.417  46.6280  0.00  0.00     0.000 O
ATOM     64   O  IDS C   4      25.251  14.347  49.4950  0.00  0.00     0.000 O
ATOM     66  HD  IDS C   4      24.890  13.586  49.6950  0.00  0.00     0.000 HD
BRANCH 59 66
ATOM     66   O  IDS C   4      27.619  15.075  46.9330  0.00  0.00     0.000 O
ATOM     67   S  IDS C   4      27.735  16.583  46.4360  0.00  0.00     0.000 S
ATOM     68   O  IDS C   4      27.495  17.345  47.6370  0.00  0.00     0.000 OA
ATOM     69   O  IDS C   4      29.077  16.695  45.8990  0.00  0.00     0.000 OA
ATOM     70   O  IDS C   4      26.687  16.792  45.4490  0.00  0.00     0.000 OA
ENDBRANCH 59 66
BRANCH 62 71
ATOM     71   C  IDS C   4      26.916  10.450  47.8150  0.00  0.00     0.000 C
ATOM     72   O  IDS C   4      27.689  10.190  46.9130  0.00  0.00     0.000 OA
ATOM     73   O  IDS C   4      26.539   9.571  48.6170  0.00  0.00     0.000 OA
ENDBRANCH 62 71
BRANCH 58 74
ATOM     74  O4  SGN C   5      24.336  13.512  46.5780  0.00  0.00     0.000 O
BRANCH 74 78
ATOM     75  C1  SGN C   5      20.919  12.730  44.3080  0.00  0.00     0.000 C
ATOM     76  C2  SGN C   5      21.356  11.615  45.2770  0.00  0.00     0.000 C
ATOM     77  C3  SGN C   5      22.391  12.143  46.2800  0.00  0.00     0.000 C
ATOM     78  C4  SGN C   5      23.500  12.920  45.5840  0.00  0.00     0.000 C
ATOM     79  C5  SGN C   5      22.888  13.990  44.6920  0.00  0.00     0.000 C
ATOM     80  O5  SGN C   5      22.036  13.363  43.6980  0.00  0.00     0.000 O
ATOM     81   O  SGN C   5      22.930  11.045  47.0080  0.00  0.00     0.000 O
ATOM     83  HD  SGN C   5      22.441  10.370  47.2410  0.00  0.00     0.000 HD
BRANCH 76 85
ATOM     83   N  SGN C   5      20.653  10.333  45.1470  0.00  0.00     0.000 N
ATOM     85  HD  SGN C   5      19.948   9.858  44.9810  0.00  0.00     0.000 HD
ATOM     85   S  SGN C   5      19.165   9.930  45.6140  0.00  0.00     0.000 S
ATOM     86   O  SGN C   5      18.875   8.588  45.2460  0.00  0.00     0.000 OA
ATOM     87   O  SGN C   5      19.053  10.263  46.9890  0.00  0.00     0.000 OA
ATOM     88   O  SGN C   5      18.434  10.908  44.6970  0.00  0.00     0.000 OA
ENDBRANCH 76 85
BRANCH 79 89
ATOM     89   C  SGN C   5      23.918  14.836  43.9710  0.00  0.00     0.000 C
ATOM     90   O  SGN C   5      24.753  13.991  43.1430  0.00  0.00     0.000 O
ATOM     91   S  SGN C   5      25.327  14.646  41.7940  0.00  0.00     0.000 S
ATOM     92   O  SGN C   5      24.194  15.188  41.0910  0.00  0.00     0.000 OA
ATOM     93   O  SGN C   5      26.271  15.661  42.1840  0.00  0.00     0.000 OA
ATOM     94   O  SGN C   5      25.938  13.532  41.1210  0.00  0.00     0.000 OA
ENDBRANCH 79 89
BRANCH 75 95
ATOM     95  O4  BDP C   6      20.236  13.637  45.0680  0.00  0.00     0.000 O
BRANCH 95 99
ATOM     96  C1  BDP C   6      17.266  16.409  43.6770  0.00  0.00     0.000 C
ATOM     97  C2  BDP C   6      17.693  15.292  42.7660  0.00  0.00     0.000 C
ATOM     98  C3  BDP C   6      18.450  14.155  43.4700  0.00  0.00     0.000 C
ATOM     99  C4  BDP C   6      19.556  14.697  44.3630  0.00  0.00     0.000 C
ATOM    100  C5  BDP C   6      18.949  15.805  45.2570  0.00  0.00     0.000 C
ATOM    101  O5  BDP C   6      18.476  16.778  44.3110  0.00  0.00     0.000 O
BRANCH 100 102
ATOM    102   C  BDP C   6      19.978  16.472  46.1340  0.00  0.00     0.000 C
ATOM    103   O  BDP C   6      21.057  16.890  45.6900  0.00  0.00     0.000 OA
ATOM    104   O  BDP C   6      19.693  16.599  47.3310  0.00  0.00     0.000 OA
ENDBRANCH 100 102
ENDBRANCH 95 99
ENDBRANCH 75 95
ENDBRANCH 74 78
ENDBRANCH 58 74
ENDBRANCH 57 61
ENDBRANCH 37 57
ENDBRANCH 36 40
ENDBRANCH 23 36
ENDBRANCH 22 26
ENDBRANCH 1 22
TORSDOF 20
ENDMDL
MODEL 66
REMARK VINA RESULT:      -5.5     35.114     42.492
ROOT
ATOM      1  C1  NGY C   1      20.958  12.135  59.2650  0.00  0.00     0.000 C
ATOM      2  C2  NGY C   1      22.175  11.223  59.3300  0.00  0.00     0.000 C
ATOM      3  C3  NGY C   1      23.237  11.824  60.2450  0.00  0.00     0.000 C
ATOM      4  C4  NGY C   1      23.543  13.229  59.7620  0.00  0.00     0.000 C
ATOM      5  C5  NGY C   1      22.262  14.057  59.8240  0.00  0.00     0.000 C
ATOM      6  O5  NGY C   1      21.293  13.463  58.9220  0.00  0.00     0.000 O
ATOM      7   O  NGY C   1      24.389  10.993  60.2320  0.00  0.00     0.000 O
ATOM      9  HD  NGY C   1      24.818  10.508  59.6570  0.00  0.00     0.000 HD
ATOM      9   O  NGY C   1      24.553  13.832  60.5570  0.00  0.00     0.000 O
ATOM     11  HD  NGY C   1      24.983  13.346  59.9820  0.00  0.00     0.000 HD
ENDROOT
BRANCH 2 13
ATOM     11   N  NGY C   1      22.554   9.984  58.6930  0.00  0.00     0.000 N
ATOM     13  HD  NGY C   1      22.155   9.431  59.2260  0.00  0.00     0.000 HD
ATOM     13   C  NGY C   1      22.164   8.804  59.1730  0.00  0.00     0.000 C
ATOM     14   O  NGY C   1      21.585   8.718  60.2570  0.00  0.00     0.000 OA
ATOM     15   C  NGY C   1      22.439   7.605  58.3170  0.00  0.00     0.000 C
ENDBRANCH 2 13
BRANCH 5 16
ATOM     16   C  NGY C   1      22.404  15.479  59.3840  0.00  0.00     0.000 C
ATOM     17   O  NGY C   1      19.692  17.440  57.8810  0.00  0.00     0.000 OA
ATOM     18   O  NGY C   1      21.233  15.854  58.6550  0.00  0.00     0.000 O
ATOM     19   S  NGY C   1      20.992  17.399  58.5020  0.00  0.00     0.000 S
ATOM     20   O  NGY C   1      22.027  17.908  57.6410  0.00  0.00     0.000 OA
ATOM     21   O  NGY C   1      21.060  17.916  59.8590  0.00  0.00     0.000 OA
ENDBRANCH 5 16
BRANCH 1 22
ATOM     22  O4  BDP C   2      20.291  12.053  60.4350  0.00  0.00     0.000 O
BRANCH 22 26
ATOM     23  C1  BDP C   2      16.793  12.135  62.6080  0.00  0.00     0.000 C
ATOM     24  C2  BDP C   2      16.822  11.155  61.4600  0.00  0.00     0.000 C
ATOM     25  C3  BDP C   2      18.241  10.962  60.9950  0.00  0.00     0.000 C
ATOM     26  C4  BDP C   2      18.884  12.311  60.6880  0.00  0.00     0.000 C
ATOM     27  C5  BDP C   2      18.642  13.273  61.8430  0.00  0.00     0.000 C
ATOM     28  O5  BDP C   2      17.233  13.443  62.1450  0.00  0.00     0.000 O
ATOM     29   O  BDP C   2      16.415   9.844  61.8530  0.00  0.00     0.000 O
ATOM     31  HD  BDP C   2      16.821   9.181  61.4700  0.00  0.00     0.000 HD
ATOM     31   O  BDP C   2      18.186  10.168  59.8160  0.00  0.00     0.000 O
ATOM     33  HD  BDP C   2      18.591   9.506  59.4330  0.00  0.00     0.000 HD
BRANCH 27 33
ATOM     33   C  BDP C   2      19.170  14.659  61.5610  0.00  0.00     0.000 C
ATOM     34   O  BDP C   2      19.977  15.234  62.3300  0.00  0.00     0.000 OA
ATOM     35   O  BDP C   2      18.767  15.243  60.5680  0.00  0.00     0.000 OA
ENDBRANCH 27 33
BRANCH 23 36
ATOM     36  O4  SGN C   3      15.588  12.296  63.2030  0.00  0.00     0.000 O
BRANCH 36 40
ATOM     37  C1  SGN C   3      13.607  12.909  66.8270  0.00  0.00     0.000 C
ATOM     38  C2  SGN C   3      14.157  14.144  66.0950  0.00  0.00     0.000 C
ATOM     39  C3  SGN C   3      14.442  13.817  64.6370  0.00  0.00     0.000 C
ATOM     40  C4  SGN C   3      15.392  12.640  64.5770  0.00  0.00     0.000 C
ATOM     41  C5  SGN C   3      14.783  11.483  65.3380  0.00  0.00     0.000 C
ATOM     42  O5  SGN C   3      14.560  11.864  66.7040  0.00  0.00     0.000 O
ATOM     43   O  SGN C   3      15.004  14.958  64.0020  0.00  0.00     0.000 O
ATOM     45  HD  SGN C   3      15.276  14.237  63.6070  0.00  0.00     0.000 HD
BRANCH 38 47
ATOM     45   N  SGN C   3      14.416  15.499  66.6140  0.00  0.00     0.000 N
ATOM     47  HD  SGN C   3      14.619  14.872  66.0530  0.00  0.00     0.000 HD
ATOM     47   S  SGN C   3      13.231  16.023  67.5350  0.00  0.00     0.000 S
ATOM     48   O  SGN C   3      12.038  16.212  66.7880  0.00  0.00     0.000 OA
ATOM     49   O  SGN C   3      13.156  15.134  68.6480  0.00  0.00     0.000 OA
ATOM     50   O  SGN C   3      13.723  17.341  67.9320  0.00  0.00     0.000 OA
ENDBRANCH 38 47
BRANCH 41 51
ATOM     51   C  SGN C   3      15.632  10.241  65.3510  0.00  0.00     0.000 C
ATOM     52   O  SGN C   3      14.841   6.952  63.7900  0.00  0.00     0.000 OA
ATOM     53   O  SGN C   3      16.956   8.039  64.0660  0.00  0.00     0.000 OA
ATOM     54   O  SGN C   3      15.696   7.325  65.9810  0.00  0.00     0.000 OA
ATOM     55   O  SGN C   3      14.984   9.238  64.6010  0.00  0.00     0.000 O
ATOM     56   S  SGN C   3      15.686   7.749  64.6120  0.00  0.00     0.000 S
ENDBRANCH 41 51
BRANCH 37 57
ATOM     57  O4  IDS C   4      12.419  12.456  66.3570  0.00  0.00     0.000 O
BRANCH 57 61
ATOM     58  C1  IDS C   4       8.689  11.800  66.7140  0.00  0.00     0.000 C
ATOM     59  C2  IDS C   4       9.234  13.114  67.1760  0.00  0.00     0.000 C
ATOM     60  C3  IDS C   4      10.584  12.977  67.8850  0.00  0.00     0.000 C
ATOM     61  C4  IDS C   4      11.530  11.911  67.3510  0.00  0.00     0.000 C
ATOM     62  C5  IDS C   4      10.744  10.720  66.7900  0.00  0.00     0.000 C
ATOM     63  O5  IDS C   4       9.681  11.140  65.9470  0.00  0.00     0.000 O
ATOM     64   O  IDS C   4      10.268  12.661  69.2280  0.00  0.00     0.000 O
ATOM     66  HD  IDS C   4      10.524  11.855  69.4180  0.00  0.00     0.000 HD
BRANCH 59 66
ATOM     66   O  IDS C   4       9.447  14.040  66.0470  0.00  0.00     0.000 O
ATOM     67   S  IDS C   4       8.443  15.270  65.9390  0.00  0.00     0.000 S
ATOM     68   O  IDS C   4       8.732  16.036  67.1270  0.00  0.00     0.000 OA
ATOM     69   O  IDS C   4       8.787  15.924  64.6920  0.00  0.00     0.000 OA
ATOM     70   O  IDS C   4       7.093  14.727  65.9650  0.00  0.00     0.000 OA
ENDBRANCH 59 66
BRANCH 62 71
ATOM     71   C  IDS C   4      11.595   9.792  65.9430  0.00  0.00     0.000 C
ATOM     72   O  IDS C   4      12.450   9.103  66.4650  0.00  0.00     0.000 OA
ATOM     73   O  IDS C   4      11.467   9.834  64.7030  0.00  0.00     0.000 OA
ENDBRANCH 62 71
BRANCH 58 74
ATOM     74  O4  SGN C   5       8.001  11.098  67.6590  0.00  0.00     0.000 O
BRANCH 74 78
ATOM     75  C1  SGN C   5       5.067   8.214  68.3790  0.00  0.00     0.000 C
ATOM     76  C2  SGN C   5       6.216   7.790  67.4440  0.00  0.00     0.000 C
ATOM     77  C3  SGN C   5       7.381   8.785  67.5310  0.00  0.00     0.000 C
ATOM     78  C4  SGN C   5       6.899  10.225  67.4150  0.00  0.00     0.000 C
ATOM     79  C5  SGN C   5       5.787  10.471  68.4240  0.00  0.00     0.000 C
ATOM     80  O5  SGN C   5       4.683   9.565  68.1600  0.00  0.00     0.000 O
ATOM     81   O  SGN C   5       8.320   8.488  66.5030  0.00  0.00     0.000 O
ATOM     83  HD  SGN C   5       8.493   7.673  66.2680  0.00  0.00     0.000 HD
BRANCH 76 85
ATOM     83   N  SGN C   5       6.782   6.458  67.6910  0.00  0.00     0.000 N
ATOM     85  HD  SGN C   5       6.955   5.643  67.4550  0.00  0.00     0.000 HD
ATOM     85   S  SGN C   5       6.181   5.009  67.3290  0.00  0.00     0.000 S
ATOM     86   O  SGN C   5       7.089   3.984  67.7110  0.00  0.00     0.000 OA
ATOM     87   O  SGN C   5       4.873   4.949  67.8770  0.00  0.00     0.000 OA
ATOM     88   O  SGN C   5       6.190   5.199  65.8140  0.00  0.00     0.000 OA
ENDBRANCH 76 85
BRANCH 79 89
ATOM     89   C  SGN C   5       5.255  11.889  68.4020  0.00  0.00     0.000 C
ATOM     90   O  SGN C   5       4.914  12.264  67.0450  0.00  0.00     0.000 O
ATOM     91   S  SGN C   5       3.699  13.297  66.8660  0.00  0.00     0.000 S
ATOM     92   O  SGN C   5       2.588  12.750  67.6000  0.00  0.00     0.000 OA
ATOM     93   O  SGN C   5       4.138  14.563  67.3940  0.00  0.00     0.000 OA
ATOM     94   O  SGN C   5       3.490  13.318  65.4430  0.00  0.00     0.000 OA
ENDBRANCH 79 89
BRANCH 75 95
ATOM     95  O4  BDP C   6       5.551   8.075  69.6490  0.00  0.00     0.000 O
BRANCH 95 99
ATOM     96  C1  BDP C   6       3.594   7.072  73.3390  0.00  0.00     0.000 C
ATOM     97  C2  BDP C   6       3.194   6.341  72.0880  0.00  0.00     0.000 C
ATOM     98  C3  BDP C   6       4.188   6.484  70.9260  0.00  0.00     0.000 C
ATOM     99  C4  BDP C   6       4.576   7.939  70.7060  0.00  0.00     0.000 C
ATOM    100  C5  BDP C   6       4.993   8.533  72.0720  0.00  0.00     0.000 C
ATOM    101  O5  BDP C   6       3.810   8.392  72.8750  0.00  0.00     0.000 O
BRANCH 100 102
ATOM    102   C  BDP C   6       5.326  10.001  71.9900  0.00  0.00     0.000 C
ATOM    103   O  BDP C   6       6.494  10.415  71.9700  0.00  0.00     0.000 OA
ATOM    104   O  BDP C   6       4.374  10.788  71.9300  0.00  0.00     0.000 OA
ENDBRANCH 100 102
ENDBRANCH 95 99
ENDBRANCH 75 95
ENDBRANCH 74 78
ENDBRANCH 58 74
ENDBRANCH 57 61
ENDBRANCH 37 57
ENDBRANCH 36 40
ENDBRANCH 23 36
ENDBRANCH 22 26
ENDBRANCH 1 22
TORSDOF 20
ENDMDL
MODEL 67
REMARK VINA RESULT:      -5.5     34.236     42.407
ROOT
ATOM      1  C1  NGY C   1      23.438   8.027  58.6120  0.00  0.00     0.000 C
ATOM      2  C2  NGY C   1      24.463   6.903  58.6680  0.00  0.00     0.000 C
ATOM      3  C3  NGY C   1      25.590   7.262  59.6320  0.00  0.00     0.000 C
ATOM      4  C4  NGY C   1      26.164   8.602  59.2140  0.00  0.00     0.000 C
ATOM      5  C5  NGY C   1      25.058   9.651  59.2800  0.00  0.00     0.000 C
ATOM      6  O5  NGY C   1      24.023   9.281  58.3320  0.00  0.00     0.000 O
ATOM      7   O  NGY C   1      26.567   6.232  59.6110  0.00  0.00     0.000 O
ATOM      9  HD  NGY C   1      26.917   5.696  59.0270  0.00  0.00     0.000 HD
ATOM      9   O  NGY C   1      27.244   8.977  60.0560  0.00  0.00     0.000 O
ATOM     11  HD  NGY C   1      27.594   8.441  59.4720  0.00  0.00     0.000 HD
ENDROOT
BRANCH 2 13
ATOM     11   N  NGY C   1      23.571   5.767  58.6670  0.00  0.00     0.000 N
ATOM     13  HD  NGY C   1      24.143   5.146  58.4770  0.00  0.00     0.000 HD
ATOM     13   C  NGY C   1      24.008   4.535  58.4110  0.00  0.00     0.000 C
ATOM     14   O  NGY C   1      25.162   4.336  58.0260  0.00  0.00     0.000 OA
ATOM     15   C  NGY C   1      23.040   3.416  58.6430  0.00  0.00     0.000 C
ENDBRANCH 2 13
BRANCH 5 16
ATOM     16   C  NGY C   1      25.474  11.037  58.9030  0.00  0.00     0.000 C
ATOM     17   O  NGY C   1      26.075  12.130  55.4520  0.00  0.00     0.000 OA
ATOM     18   O  NGY C   1      25.826  11.051  57.5160  0.00  0.00     0.000 O
ATOM     19   S  NGY C   1      25.854  12.466  56.8360  0.00  0.00     0.000 S
ATOM     20   O  NGY C   1      26.959  13.191  57.4070  0.00  0.00     0.000 OA
ATOM     21   O  NGY C   1      24.557  13.047  57.1450  0.00  0.00     0.000 OA
ENDBRANCH 5 16
BRANCH 1 22
ATOM     22  O4  BDP C   2      22.732   8.029  59.7620  0.00  0.00     0.000 O
BRANCH 22 26
ATOM     23  C1  BDP C   2      19.260   8.714  61.8700  0.00  0.00     0.000 C
ATOM     24  C2  BDP C   2      19.138   7.754  60.7100  0.00  0.00     0.000 C
ATOM     25  C3  BDP C   2      20.510   7.316  60.2700  0.00  0.00     0.000 C
ATOM     26  C4  BDP C   2      21.389   8.530  59.9920  0.00  0.00     0.000 C
ATOM     27  C5  BDP C   2      21.297   9.511  61.1540  0.00  0.00     0.000 C
ATOM     28  O5  BDP C   2      19.935   9.926  61.4310  0.00  0.00     0.000 O
ATOM     29   O  BDP C   2      18.497   6.533  61.0800  0.00  0.00     0.000 O
ATOM     31  HD  BDP C   2      18.786   5.812  60.6970  0.00  0.00     0.000 HD
ATOM     31   O  BDP C   2      20.339   6.554  59.0810  0.00  0.00     0.000 O
ATOM     33  HD  BDP C   2      20.628   5.833  58.6980  0.00  0.00     0.000 HD
BRANCH 27 33
ATOM     33   C  BDP C   2      22.070  10.783  60.8980  0.00  0.00     0.000 C
ATOM     34   O  BDP C   2      21.919  11.454  59.8490  0.00  0.00     0.000 OA
ATOM     35   O  BDP C   2      22.888  11.142  61.7280  0.00  0.00     0.000 OA
ENDBRANCH 27 33
BRANCH 23 36
ATOM     36  O4  SGN C   3      18.091   9.082  62.4440  0.00  0.00     0.000 O
BRANCH 36 40
ATOM     37  C1  SGN C   3      16.127   9.922  66.0310  0.00  0.00     0.000 C
ATOM     38  C2  SGN C   3      17.067  10.997  65.4620  0.00  0.00     0.000 C
ATOM     39  C3  SGN C   3      17.346  10.736  63.9890  0.00  0.00     0.000 C
ATOM     40  C4  SGN C   3      17.908   9.339  63.8390  0.00  0.00     0.000 C
ATOM     41  C5  SGN C   3      16.933   8.353  64.4430  0.00  0.00     0.000 C
ATOM     42  O5  SGN C   3      16.735   8.656  65.8330  0.00  0.00     0.000 O
ATOM     43   O  SGN C   3      18.263  11.710  63.5060  0.00  0.00     0.000 O
ATOM     45  HD  SGN C   3      18.338  10.980  63.0460  0.00  0.00     0.000 HD
BRANCH 38 47
ATOM     45   N  SGN C   3      16.415  12.311  65.6130  0.00  0.00     0.000 N
ATOM     47  HD  SGN C   3      16.504  11.578  65.1600  0.00  0.00     0.000 HD
ATOM     47   S  SGN C   3      16.637  12.925  67.0620  0.00  0.00     0.000 S
ATOM     48   O  SGN C   3      15.985  12.152  68.0580  0.00  0.00     0.000 OA
ATOM     49   O  SGN C   3      18.043  13.112  67.2150  0.00  0.00     0.000 OA
ATOM     50   O  SGN C   3      15.933  14.201  66.9550  0.00  0.00     0.000 OA
ENDBRANCH 38 47
BRANCH 41 51
ATOM     51   C  SGN C   3      17.374   6.918  64.3530  0.00  0.00     0.000 C
ATOM     52   O  SGN C   3      20.736   5.536  65.1730  0.00  0.00     0.000 OA
ATOM     53   O  SGN C   3      18.574   4.542  65.4360  0.00  0.00     0.000 OA
ATOM     54   O  SGN C   3      19.421   5.050  63.2480  0.00  0.00     0.000 OA
ATOM     55   O  SGN C   3      18.707   6.822  64.8030  0.00  0.00     0.000 O
ATOM     56   S  SGN C   3      19.426   5.349  64.6490  0.00  0.00     0.000 S
ENDBRANCH 41 51
BRANCH 37 57
ATOM     57  O4  IDS C   4      14.895   9.893  65.4670  0.00  0.00     0.000 O
BRANCH 57 61
ATOM     58  C1  IDS C   4      11.163  10.362  66.0400  0.00  0.00     0.000 C
ATOM     59  C2  IDS C   4      12.123  11.109  66.9110  0.00  0.00     0.000 C
ATOM     60  C3  IDS C   4      13.336  10.266  67.3130  0.00  0.00     0.000 C
ATOM     61  C4  IDS C   4      13.863   9.290  66.2700  0.00  0.00     0.000 C
ATOM     62  C5  IDS C   4      12.721   8.764  65.3920  0.00  0.00     0.000 C
ATOM     63  O5  IDS C   4      11.876   9.814  64.9440  0.00  0.00     0.000 O
ATOM     64   O  IDS C   4      12.918   9.527  68.4450  0.00  0.00     0.000 O
ATOM     66  HD  IDS C   4      12.879   8.682  68.2580  0.00  0.00     0.000 HD
BRANCH 59 66
ATOM     66   O  IDS C   4      12.652  12.307  66.2320  0.00  0.00     0.000 O
ATOM     67   S  IDS C   4      12.261  13.713  66.8650  0.00  0.00     0.000 S
ATOM     68   O  IDS C   4      12.907  13.683  68.1560  0.00  0.00     0.000 OA
ATOM     69   O  IDS C   4      12.789  14.698  65.9410  0.00  0.00     0.000 OA
ATOM     70   O  IDS C   4      10.812  13.741  66.9900  0.00  0.00     0.000 OA
ENDBRANCH 59 66
BRANCH 62 71
ATOM     71   C  IDS C   4      13.209   8.068  64.1360  0.00  0.00     0.000 C
ATOM     72   O  IDS C   4      12.960   8.537  63.0430  0.00  0.00     0.000 OA
ATOM     73   O  IDS C   4      13.773   6.961  64.2520  0.00  0.00     0.000 OA
ENDBRANCH 62 71
BRANCH 58 74
ATOM     74  O4  SGN C   5      10.267   9.582  66.7090  0.00  0.00     0.000 O
BRANCH 74 78
ATOM     75  C1  SGN C   5       6.454   7.880  66.6380  0.00  0.00     0.000 C
ATOM     76  C2  SGN C   5       7.591   7.013  66.0650  0.00  0.00     0.000 C
ATOM     77  C3  SGN C   5       8.960   7.588  66.4540  0.00  0.00     0.000 C
ATOM     78  C4  SGN C   5       9.037   9.084  66.1840  0.00  0.00     0.000 C
ATOM     79  C5  SGN C   5       7.854   9.780  66.8420  0.00  0.00     0.000 C
ATOM     80  O5  SGN C   5       6.616   9.250  66.2980  0.00  0.00     0.000 O
ATOM     81   O  SGN C   5       9.973   6.897  65.7310  0.00  0.00     0.000 O
ATOM     83  HD  SGN C   5       9.916   6.049  65.5670  0.00  0.00     0.000 HD
BRANCH 76 85
ATOM     83   N  SGN C   5       7.752   5.557  66.1650  0.00  0.00     0.000 N
ATOM     85  HD  SGN C   5       7.593   4.748  65.9010  0.00  0.00     0.000 HD
ATOM     85   S  SGN C   5       6.653   4.393  65.9920  0.00  0.00     0.000 S
ATOM     86   O  SGN C   5       7.259   3.113  66.1290  0.00  0.00     0.000 OA
ATOM     87   O  SGN C   5       5.579   4.696  66.8680  0.00  0.00     0.000 OA
ATOM     88   O  SGN C   5       6.334   4.683  64.5270  0.00  0.00     0.000 OA
ENDBRANCH 76 85
BRANCH 79 89
ATOM     89   C  SGN C   5       7.854  11.283  66.6490  0.00  0.00     0.000 C
ATOM     90   O  SGN C   5       7.883  11.596  65.2350  0.00  0.00     0.000 O
ATOM     91   S  SGN C   5       7.144  12.946  64.7790  0.00  0.00     0.000 S
ATOM     92   O  SGN C   5       5.811  12.881  65.3200  0.00  0.00     0.000 OA
ATOM     93   O  SGN C   5       7.903  14.046  65.3160  0.00  0.00     0.000 OA
ATOM     94   O  SGN C   5       7.183  12.876  63.3440  0.00  0.00     0.000 OA
ENDBRANCH 79 89
BRANCH 75 95
ATOM     95  O4  BDP C   6       6.521   7.732  67.9950  0.00  0.00     0.000 O
BRANCH 95 99
ATOM     96  C1  BDP C   6       3.525   7.878  71.0680  0.00  0.00     0.000 C
ATOM     97  C2  BDP C   6       3.266   7.041  69.8470  0.00  0.00     0.000 C
ATOM     98  C3  BDP C   6       4.516   6.745  69.0050  0.00  0.00     0.000 C
ATOM     99  C4  BDP C   6       5.317   8.012  68.7410  0.00  0.00     0.000 C
ATOM    100  C5  BDP C   6       5.527   8.734  70.0920  0.00  0.00     0.000 C
ATOM    101  O5  BDP C   6       4.190   9.009  70.5380  0.00  0.00     0.000 O
BRANCH 100 102
ATOM    102   C  BDP C   6       6.247  10.050  69.9420  0.00  0.00     0.000 C
ATOM    103   O  BDP C   6       7.409  10.218  70.3380  0.00  0.00     0.000 OA
ATOM    104   O  BDP C   6       5.627  10.966  69.3880  0.00  0.00     0.000 OA
ENDBRANCH 100 102
ENDBRANCH 95 99
ENDBRANCH 75 95
ENDBRANCH 74 78
ENDBRANCH 58 74
ENDBRANCH 57 61
ENDBRANCH 37 57
ENDBRANCH 36 40
ENDBRANCH 23 36
ENDBRANCH 22 26
ENDBRANCH 1 22
TORSDOF 20
ENDMDL
MODEL 68
REMARK VINA RESULT:      -5.5     16.691     22.599
ROOT
ATOM      1  C1  NGY C   1      36.127   5.775  25.4750  0.00  0.00     0.000 C
ATOM      2  C2  NGY C   1      37.332   4.923  25.8450  0.00  0.00     0.000 C
ATOM      3  C3  NGY C   1      38.624   5.673  25.5350  0.00  0.00     0.000 C
ATOM      4  C4  NGY C   1      38.591   6.098  24.0800  0.00  0.00     0.000 C
ATOM      5  C5  NGY C   1      37.387   7.010  23.8630  0.00  0.00     0.000 C
ATOM      6  O5  NGY C   1      36.184   6.249  24.1460  0.00  0.00     0.000 O
ATOM      7   O  NGY C   1      39.732   4.831  25.8200  0.00  0.00     0.000 O
ATOM      9  HD  NGY C   1      39.926   3.989  25.7570  0.00  0.00     0.000 HD
ATOM      9   O  NGY C   1      39.787   6.775  23.7200  0.00  0.00     0.000 O
ATOM     11  HD  NGY C   1      39.980   5.933  23.6570  0.00  0.00     0.000 HD
ENDROOT
BRANCH 2 13
ATOM     11   N  NGY C   1      36.933   3.695  26.4900  0.00  0.00     0.000 N
ATOM     13  HD  NGY C   1      37.431   3.746  27.1970  0.00  0.00     0.000 HD
ATOM     13   C  NGY C   1      37.452   3.319  27.6580  0.00  0.00     0.000 C
ATOM     14   O  NGY C   1      38.394   3.932  28.1630  0.00  0.00     0.000 OA
ATOM     15   C  NGY C   1      36.814   2.142  28.3300  0.00  0.00     0.000 C
ENDBRANCH 2 13
BRANCH 5 16
ATOM     16   C  NGY C   1      37.221   7.524  22.4690  0.00  0.00     0.000 C
ATOM     17   O  NGY C   1      35.435   5.723  19.8190  0.00  0.00     0.000 OA
ATOM     18   O  NGY C   1      36.671   6.482  21.6570  0.00  0.00     0.000 O
ATOM     19   S  NGY C   1      36.017   6.947  20.3060  0.00  0.00     0.000 S
ATOM     20   O  NGY C   1      37.080   7.423  19.4610  0.00  0.00     0.000 OA
ATOM     21   O  NGY C   1      35.075   7.984  20.6940  0.00  0.00     0.000 OA
ENDBRANCH 5 16
BRANCH 1 22
ATOM     22  O4  BDP C   2      36.006   6.772  26.3760  0.00  0.00     0.000 O
BRANCH 22 26
ATOM     23  C1  BDP C   2      33.676   9.249  28.7010  0.00  0.00     0.000 C
ATOM     24  C2  BDP C   2      33.317   7.783  28.7510  0.00  0.00     0.000 C
ATOM     25  C3  BDP C   2      34.441   6.966  28.1700  0.00  0.00     0.000 C
ATOM     26  C4  BDP C   2      34.804   7.479  26.7810  0.00  0.00     0.000 C
ATOM     27  C5  BDP C   2      34.972   8.992  26.8160  0.00  0.00     0.000 C
ATOM     28  O5  BDP C   2      33.793   9.676  27.3150  0.00  0.00     0.000 O
ATOM     29   O  BDP C   2      33.203   7.295  30.0880  0.00  0.00     0.000 O
ATOM     31  HD  BDP C   2      33.470   6.484  30.2290  0.00  0.00     0.000 HD
ATOM     31   O  BDP C   2      33.979   5.623  28.0900  0.00  0.00     0.000 O
ATOM     33  HD  BDP C   2      34.246   4.812  28.2310  0.00  0.00     0.000 HD
BRANCH 27 33
ATOM     33   C  BDP C   2      35.236   9.576  25.4490  0.00  0.00     0.000 C
ATOM     34   O  BDP C   2      34.363   9.584  24.5480  0.00  0.00     0.000 OA
ATOM     35   O  BDP C   2      36.347  10.020  25.2120  0.00  0.00     0.000 OA
ENDBRANCH 27 33
BRANCH 23 36
ATOM     36  O4  SGN C   3      32.802  10.081  29.3130  0.00  0.00     0.000 O
BRANCH 36 40
ATOM     37  C1  SGN C   3      32.427  13.608  31.5150  0.00  0.00     0.000 C
ATOM     38  C2  SGN C   3      32.344  13.710  29.9830  0.00  0.00     0.000 C
ATOM     39  C3  SGN C   3      32.059  12.345  29.3740  0.00  0.00     0.000 C
ATOM     40  C4  SGN C   3      33.127  11.374  29.8300  0.00  0.00     0.000 C
ATOM     41  C5  SGN C   3      33.154  11.355  31.3430  0.00  0.00     0.000 C
ATOM     42  O5  SGN C   3      33.442  12.671  31.8390  0.00  0.00     0.000 O
ATOM     43   O  SGN C   3      32.047  12.458  27.9560  0.00  0.00     0.000 O
ATOM     45  HD  SGN C   3      32.278  11.656  28.1860  0.00  0.00     0.000 HD
BRANCH 38 47
ATOM     45   N  SGN C   3      32.875  15.082  29.8890  0.00  0.00     0.000 N
ATOM     47  HD  SGN C   3      33.025  14.229  29.8750  0.00  0.00     0.000 HD
ATOM     47   S  SGN C   3      31.722  16.156  29.6840  0.00  0.00     0.000 S
ATOM     48   O  SGN C   3      31.083  15.997  28.4260  0.00  0.00     0.000 OA
ATOM     49   O  SGN C   3      30.888  16.086  30.8400  0.00  0.00     0.000 OA
ATOM     50   O  SGN C   3      32.482  17.404  29.6440  0.00  0.00     0.000 OA
ENDBRANCH 38 47
BRANCH 41 51
ATOM     51   C  SGN C   3      34.176  10.419  31.9280  0.00  0.00     0.000 C
ATOM     52   O  SGN C   3      33.532   7.338  33.9220  0.00  0.00     0.000 OA
ATOM     53   O  SGN C   3      35.292   7.809  32.3690  0.00  0.00     0.000 OA
ATOM     54   O  SGN C   3      35.108   9.055  34.4130  0.00  0.00     0.000 OA
ATOM     55   O  SGN C   3      33.506   9.353  32.5650  0.00  0.00     0.000 O
ATOM     56   S  SGN C   3      34.449   8.291  33.3950  0.00  0.00     0.000 S
ENDBRANCH 41 51
BRANCH 37 57
ATOM     57  O4  IDS C   4      31.279  13.215  32.1190  0.00  0.00     0.000 O
BRANCH 57 61
ATOM     58  C1  IDS C   4      29.287  13.424  35.3530  0.00  0.00     0.000 C
ATOM     59  C2  IDS C   4      30.289  14.494  35.0560  0.00  0.00     0.000 C
ATOM     60  C3  IDS C   4      31.575  13.945  34.4330  0.00  0.00     0.000 C
ATOM     61  C4  IDS C   4      31.421  12.767  33.4810  0.00  0.00     0.000 C
ATOM     62  C5  IDS C   4      30.236  11.885  33.8940  0.00  0.00     0.000 C
ATOM     63  O5  IDS C   4      29.079  12.657  34.1790  0.00  0.00     0.000 O
ATOM     64   O  IDS C   4      32.372  13.532  35.5270  0.00  0.00     0.000 O
ATOM     66  HD  IDS C   4      32.463  12.671  35.5280  0.00  0.00     0.000 HD
BRANCH 59 66
ATOM     66   O  IDS C   4      29.755  15.488  34.1060  0.00  0.00     0.000 O
ATOM     67   S  IDS C   4      29.531  16.960  34.6680  0.00  0.00     0.000 S
ATOM     68   O  IDS C   4      30.870  17.401  34.9770  0.00  0.00     0.000 OA
ATOM     69   O  IDS C   4      28.886  17.678  33.5870  0.00  0.00     0.000 OA
ATOM     70   O  IDS C   4      28.714  16.843  35.8660  0.00  0.00     0.000 OA
ENDBRANCH 59 66
BRANCH 62 71
ATOM     71   C  IDS C   4      29.819  10.906  32.8130  0.00  0.00     0.000 C
ATOM     72   O  IDS C   4      29.067  11.261  31.9260  0.00  0.00     0.000 OA
ATOM     73   O  IDS C   4      30.179   9.717  32.9190  0.00  0.00     0.000 OA
ENDBRANCH 62 71
BRANCH 58 74
ATOM     74  O4  SGN C   5      29.465  12.784  36.5440  0.00  0.00     0.000 O
BRANCH 74 78
ATOM     75  C1  SGN C   5      27.665  10.557  39.5840  0.00  0.00     0.000 C
ATOM     76  C2  SGN C   5      27.523   9.992  38.1590  0.00  0.00     0.000 C
ATOM     77  C3  SGN C   5      28.495  10.691  37.1990  0.00  0.00     0.000 C
ATOM     78  C4  SGN C   5      28.434  12.205  37.3440  0.00  0.00     0.000 C
ATOM     79  C5  SGN C   5      28.616  12.583  38.8060  0.00  0.00     0.000 C
ATOM     80  O5  SGN C   5      27.562  11.975  39.5990  0.00  0.00     0.000 O
ATOM     81   O  SGN C   5      28.185  10.304  35.8640  0.00  0.00     0.000 O
ATOM     83  HD  SGN C   5      27.926   9.499  35.6730  0.00  0.00     0.000 HD
BRANCH 76 85
ATOM     83   N  SGN C   5      26.577   8.908  38.4510  0.00  0.00     0.000 N
ATOM     85  HD  SGN C   5      26.372   8.142  38.7990  0.00  0.00     0.000 HD
ATOM     85   S  SGN C   5      26.806   7.314  38.4190  0.00  0.00     0.000 S
ATOM     86   O  SGN C   5      25.623   6.634  38.8180  0.00  0.00     0.000 OA
ATOM     87   O  SGN C   5      27.337   6.992  37.1430  0.00  0.00     0.000 OA
ATOM     88   O  SGN C   5      27.850   7.275  39.5320  0.00  0.00     0.000 OA
ENDBRANCH 76 85
BRANCH 79 89
ATOM     89   C  SGN C   5      28.595  14.078  39.0510  0.00  0.00     0.000 C
ATOM     90   O  SGN C   5      27.415  14.657  38.4410  0.00  0.00     0.000 O
ATOM     91   S  SGN C   5      26.788  15.945  39.1640  0.00  0.00     0.000 S
ATOM     92   O  SGN C   5      26.593  15.582  40.5440  0.00  0.00     0.000 OA
ATOM     93   O  SGN C   5      27.732  17.022  39.0060  0.00  0.00     0.000 OA
ATOM     94   O  SGN C   5      25.559  16.159  38.4500  0.00  0.00     0.000 OA
ENDBRANCH 79 89
BRANCH 75 95
ATOM     95  O4  BDP C   6      28.907  10.183  40.0120  0.00  0.00     0.000 O
BRANCH 95 99
ATOM     96  C1  BDP C   6      30.019   9.383  44.0830  0.00  0.00     0.000 C
ATOM     97  C2  BDP C   6      28.564   9.565  43.7550  0.00  0.00     0.000 C
ATOM     98  C3  BDP C   6      28.234   9.462  42.2580  0.00  0.00     0.000 C
ATOM     99  C4  BDP C   6      29.178  10.316  41.4240  0.00  0.00     0.000 C
ATOM    100  C5  BDP C   6      30.627   9.987  41.8550  0.00  0.00     0.000 C
ATOM    101  O5  BDP C   6      30.651  10.336  43.2480  0.00  0.00     0.000 O
BRANCH 100 102
ATOM    102   C  BDP C   6      31.651  10.835  41.1450  0.00  0.00     0.000 C
ATOM    103   O  BDP C   6      31.449  12.027  40.8700  0.00  0.00     0.000 OA
ATOM    104   O  BDP C   6      32.723  10.291  40.8550  0.00  0.00     0.000 OA
ENDBRANCH 100 102
ENDBRANCH 95 99
ENDBRANCH 75 95
ENDBRANCH 74 78
ENDBRANCH 58 74
ENDBRANCH 57 61
ENDBRANCH 37 57
ENDBRANCH 36 40
ENDBRANCH 23 36
ENDBRANCH 22 26
ENDBRANCH 1 22
TORSDOF 20
ENDMDL
MODEL 69
REMARK VINA RESULT:      -5.5     17.026     20.208
ROOT
ATOM      1  C1  NGY C   1      28.333  40.503  12.4220  0.00  0.00     0.000 C
ATOM      2  C2  NGY C   1      27.719  41.322  13.5480  0.00  0.00     0.000 C
ATOM      3  C3  NGY C   1      26.206  41.408  13.3750  0.00  0.00     0.000 C
ATOM      4  C4  NGY C   1      25.916  41.948  11.9880  0.00  0.00     0.000 C
ATOM      5  C5  NGY C   1      26.512  40.995  10.9560  0.00  0.00     0.000 C
ATOM      6  O5  NGY C   1      27.951  40.964  11.1440  0.00  0.00     0.000 O
ATOM      7   O  NGY C   1      25.666  42.236  14.3950  0.00  0.00     0.000 O
ATOM      9  HD  NGY C   1      25.897  42.953  14.8220  0.00  0.00     0.000 HD
ATOM      9   O  NGY C   1      24.518  42.084  11.7780  0.00  0.00     0.000 O
ATOM     11  HD  NGY C   1      24.748  42.800  12.2050  0.00  0.00     0.000 HD
ENDROOT
BRANCH 2 13
ATOM     11   N  NGY C   1      27.513  41.483  14.9680  0.00  0.00     0.000 N
ATOM     13  HD  NGY C   1      28.336  41.422  15.2310  0.00  0.00     0.000 HD
ATOM     13   C  NGY C   1      28.530  41.457  15.8290  0.00  0.00     0.000 C
ATOM     14   O  NGY C   1      29.666  41.153  15.4630  0.00  0.00     0.000 OA
ATOM     15   C  NGY C   1      28.223  41.841  17.2440  0.00  0.00     0.000 C
ENDBRANCH 2 13
BRANCH 5 16
ATOM     16   C  NGY C   1      26.299  41.389   9.5300  0.00  0.00     0.000 C
ATOM     17   O  NGY C   1      26.791  44.791   8.2470  0.00  0.00     0.000 OA
ATOM     18   O  NGY C   1      26.369  42.814   9.4310  0.00  0.00     0.000 O
ATOM     19   S  NGY C   1      26.616  43.384   7.9880  0.00  0.00     0.000 S
ATOM     20   O  NGY C   1      25.433  43.112   7.2150  0.00  0.00     0.000 OA
ATOM     21   O  NGY C   1      27.795  42.679   7.5130  0.00  0.00     0.000 OA
ENDBRANCH 5 16
BRANCH 1 22
ATOM     22  O4  BDP C   2      28.030  39.202  12.6160  0.00  0.00     0.000 O
BRANCH 22 26
ATOM     23  C1  BDP C   2      28.884  35.191  12.2280  0.00  0.00     0.000 C
ATOM     24  C2  BDP C   2      29.902  36.001  12.9960  0.00  0.00     0.000 C
ATOM     25  C3  BDP C   2      29.307  37.332  13.3750  0.00  0.00     0.000 C
ATOM     26  C4  BDP C   2      28.747  38.031  12.1420  0.00  0.00     0.000 C
ATOM     27  C5  BDP C   2      27.874  37.065  11.3510  0.00  0.00     0.000 C
ATOM     28  O5  BDP C   2      28.580  35.856  10.9690  0.00  0.00     0.000 O
ATOM     29   O  BDP C   2      30.232  35.409  14.2520  0.00  0.00     0.000 O
ATOM     31  HD  BDP C   2      30.386  35.953  14.9080  0.00  0.00     0.000 HD
ATOM     31   O  BDP C   2      30.356  38.107  13.9420  0.00  0.00     0.000 O
ATOM     33  HD  BDP C   2      30.510  38.651  14.5980  0.00  0.00     0.000 HD
BRANCH 27 33
ATOM     33   C  BDP C   2      27.366  37.667  10.0630  0.00  0.00     0.000 C
ATOM     34   O  BDP C   2      26.143  37.842   9.8470  0.00  0.00     0.000 OA
ATOM     35   O  BDP C   2      28.176  37.957   9.1990  0.00  0.00     0.000 OA
ENDBRANCH 27 33
BRANCH 23 36
ATOM     36  O4  SGN C   3      29.252  33.921  11.9400  0.00  0.00     0.000 O
BRANCH 36 40
ATOM     37  C1  SGN C   3      28.098  29.909  11.9350  0.00  0.00     0.000 C
ATOM     38  C2  SGN C   3      27.349  30.868  10.9950  0.00  0.00     0.000 C
ATOM     39  C3  SGN C   3      28.150  32.146  10.7920  0.00  0.00     0.000 C
ATOM     40  C4  SGN C   3      28.434  32.765  12.1440  0.00  0.00     0.000 C
ATOM     41  C5  SGN C   3      29.148  31.748  13.0060  0.00  0.00     0.000 C
ATOM     42  O5  SGN C   3      28.324  30.582  13.1630  0.00  0.00     0.000 O
ATOM     43   O  SGN C   3      27.409  33.038   9.9690  0.00  0.00     0.000 O
ATOM     45  HD  SGN C   3      27.936  33.486  10.4890  0.00  0.00     0.000 HD
BRANCH 38 47
ATOM     45   N  SGN C   3      27.152  30.209   9.6920  0.00  0.00     0.000 N
ATOM     47  HD  SGN C   3      27.668  30.661  10.2210  0.00  0.00     0.000 HD
ATOM     47   S  SGN C   3      25.886  29.247   9.6960  0.00  0.00     0.000 S
ATOM     48   O  SGN C   3      26.079  28.140  10.5650  0.00  0.00     0.000 OA
ATOM     49   O  SGN C   3      24.749  30.069   9.9480  0.00  0.00     0.000 OA
ATOM     50   O  SGN C   3      25.892  28.743   8.3240  0.00  0.00     0.000 OA
ENDBRANCH 38 47
BRANCH 41 51
ATOM     51   C  SGN C   3      29.493  32.243  14.3840  0.00  0.00     0.000 C
ATOM     52   O  SGN C   3      29.156  30.390  17.5980  0.00  0.00     0.000 OA
ATOM     53   O  SGN C   3      30.797  32.001  16.9320  0.00  0.00     0.000 OA
ATOM     54   O  SGN C   3      28.494  32.636  17.1670  0.00  0.00     0.000 OA
ATOM     55   O  SGN C   3      29.261  31.208  15.3120  0.00  0.00     0.000 O
ATOM     56   S  SGN C   3      29.444  31.597  16.9010  0.00  0.00     0.000 S
ENDBRANCH 41 51
BRANCH 37 57
ATOM     57  O4  IDS C   4      29.292  29.473  11.4640  0.00  0.00     0.000 O
BRANCH 57 61
ATOM     58  C1  IDS C   4      31.793  26.608  11.3600  0.00  0.00     0.000 C
ATOM     59  C2  IDS C   4      30.344  26.290  11.5530  0.00  0.00     0.000 C
ATOM     60  C3  IDS C   4      29.640  27.279  12.4850  0.00  0.00     0.000 C
ATOM     61  C4  IDS C   4      30.092  28.731  12.4040  0.00  0.00     0.000 C
ATOM     62  C5  IDS C   4      31.580  28.817  12.0460  0.00  0.00     0.000 C
ATOM     63  O5  IDS C   4      31.911  27.963  10.9610  0.00  0.00     0.000 O
ATOM     64   O  IDS C   4      29.896  26.804  13.7930  0.00  0.00     0.000 O
ATOM     66  HD  IDS C   4      30.405  27.358  14.2230  0.00  0.00     0.000 HD
BRANCH 59 66
ATOM     66   O  IDS C   4      29.607  26.322  10.2750  0.00  0.00     0.000 O
ATOM     67   S  IDS C   4      29.155  24.917   9.6800  0.00  0.00     0.000 S
ATOM     68   O  IDS C   4      28.211  24.434  10.6590  0.00  0.00     0.000 OA
ATOM     69   O  IDS C   4      28.585  25.227   8.3830  0.00  0.00     0.000 OA
ATOM     70   O  IDS C   4      30.339  24.076   9.6160  0.00  0.00     0.000 OA
ENDBRANCH 59 66
BRANCH 62 71
ATOM     71   C  IDS C   4      32.008  30.208  11.6180  0.00  0.00     0.000 C
ATOM     72   O  IDS C   4      32.155  30.465  10.4390  0.00  0.00     0.000 OA
ATOM     73   O  IDS C   4      32.303  31.037  12.5020  0.00  0.00     0.000 OA
ENDBRANCH 62 71
BRANCH 58 74
ATOM     74  O4  SGN C   5      32.622  26.123  12.3280  0.00  0.00     0.000 O
BRANCH 74 78
ATOM     75  C1  SGN C   5      36.392  24.562  13.2180  0.00  0.00     0.000 C
ATOM     76  C2  SGN C   5      36.321  26.088  13.0220  0.00  0.00     0.000 C
ATOM     77  C3  SGN C   5      34.865  26.571  13.0440  0.00  0.00     0.000 C
ATOM     78  C4  SGN C   5      33.980  25.724  12.1410  0.00  0.00     0.000 C
ATOM     79  C5  SGN C   5      34.158  24.254  12.4910  0.00  0.00     0.000 C
ATOM     80  O5  SGN C   5      35.547  23.876  12.3030  0.00  0.00     0.000 O
ATOM     81   O  SGN C   5      34.826  27.937  12.6440  0.00  0.00     0.000 O
ATOM     83  HD  SGN C   5      35.447  28.496  12.8720  0.00  0.00     0.000 HD
BRANCH 76 85
ATOM     83   N  SGN C   5      37.044  26.934  13.9810  0.00  0.00     0.000 N
ATOM     85  HD  SGN C   5      37.676  27.487  14.1910  0.00  0.00     0.000 HD
ATOM     85   S  SGN C   5      38.629  27.156  14.1570  0.00  0.00     0.000 S
ATOM     86   O  SGN C   5      38.887  28.102  15.1870  0.00  0.00     0.000 OA
ATOM     87   O  SGN C   5      39.218  25.872  14.2970  0.00  0.00     0.000 OA
ATOM     88   O  SGN C   5      38.863  27.779  12.7830  0.00  0.00     0.000 OA
ENDBRANCH 76 85
BRANCH 79 89
ATOM     89   C  SGN C   5      33.295  23.327  11.6590  0.00  0.00     0.000 C
ATOM     90   O  SGN C   5      33.244  22.018  12.2780  0.00  0.00     0.000 O
ATOM     91   S  SGN C   5      31.893  21.176  12.0730  0.00  0.00     0.000 S
ATOM     92   O  SGN C   5      30.812  22.038  12.4750  0.00  0.00     0.000 OA
ATOM     93   O  SGN C   5      31.824  20.819  10.6790  0.00  0.00     0.000 OA
ATOM     94   O  SGN C   5      32.075  20.044  12.9400  0.00  0.00     0.000 OA
ENDBRANCH 79 89
BRANCH 75 95
ATOM     95  O4  BDP C   6      35.967  24.331  14.4960  0.00  0.00     0.000 O
BRANCH 95 99
ATOM     96  C1  BDP C   6      37.408  21.342  17.2230  0.00  0.00     0.000 C
ATOM     97  C2  BDP C   6      38.250  21.696  16.0290  0.00  0.00     0.000 C
ATOM     98  C3  BDP C   6      37.853  23.011  15.3420  0.00  0.00     0.000 C
ATOM     99  C4  BDP C   6      36.353  23.075  15.0940  0.00  0.00     0.000 C
ATOM    100  C5  BDP C   6      35.635  22.722  16.4180  0.00  0.00     0.000 C
ATOM    101  O5  BDP C   6      36.092  21.390  16.7040  0.00  0.00     0.000 O
BRANCH 100 102
ATOM    102   C  BDP C   6      34.135  22.677  16.2710  0.00  0.00     0.000 C
ATOM    103   O  BDP C   6      33.562  21.814  15.5910  0.00  0.00     0.000 OA
ATOM    104   O  BDP C   6      33.489  23.541  16.8750  0.00  0.00     0.000 OA
ENDBRANCH 100 102
ENDBRANCH 95 99
ENDBRANCH 75 95
ENDBRANCH 74 78
ENDBRANCH 58 74
ENDBRANCH 57 61
ENDBRANCH 37 57
ENDBRANCH 36 40
ENDBRANCH 23 36
ENDBRANCH 22 26
ENDBRANCH 1 22
TORSDOF 20
ENDMDL
MODEL 70
REMARK VINA RESULT:      -5.5     15.595     20.405
ROOT
ATOM      1  C1  NGY C   1      29.478  43.305  11.9840  0.00  0.00     0.000 C
ATOM      2  C2  NGY C   1      28.870  44.289  12.9740  0.00  0.00     0.000 C
ATOM      3  C3  NGY C   1      27.378  44.458  12.7030  0.00  0.00     0.000 C
ATOM      4  C4  NGY C   1      27.201  44.853  11.2490  0.00  0.00     0.000 C
ATOM      5  C5  NGY C   1      27.776  43.748  10.3670  0.00  0.00     0.000 C
ATOM      6  O5  NGY C   1      29.197  43.642  10.6420  0.00  0.00     0.000 O
ATOM      7   O  NGY C   1      26.849  45.433  13.5890  0.00  0.00     0.000 O
ATOM      9  HD  NGY C   1      27.111  46.177  13.9470  0.00  0.00     0.000 HD
ATOM      9   O  NGY C   1      25.829  45.058  10.9420  0.00  0.00     0.000 O
ATOM     11  HD  NGY C   1      26.090  45.802  11.3000  0.00  0.00     0.000 HD
ENDROOT
BRANCH 2 13
ATOM     11   N  NGY C   1      29.398  43.814  14.2310  0.00  0.00     0.000 N
ATOM     13  HD  NGY C   1      29.382  44.559  14.6730  0.00  0.00     0.000 HD
ATOM     13   C  NGY C   1      29.570  44.631  15.2690  0.00  0.00     0.000 C
ATOM     14   O  NGY C   1      29.420  45.849  15.1540  0.00  0.00     0.000 OA
ATOM     15   C  NGY C   1      29.924  43.991  16.5770  0.00  0.00     0.000 C
ENDBRANCH 2 13
BRANCH 5 16
ATOM     16   C  NGY C   1      27.667  43.989   8.8950  0.00  0.00     0.000 C
ATOM     17   O  NGY C   1      24.543  43.687   6.9960  0.00  0.00     0.000 OA
ATOM     18   O  NGY C   1      26.370  43.574   8.4570  0.00  0.00     0.000 O
ATOM     19   S  NGY C   1      25.907  44.147   7.0690  0.00  0.00     0.000 S
ATOM     20   O  NGY C   1      26.742  43.549   6.0620  0.00  0.00     0.000 OA
ATOM     21   O  NGY C   1      26.082  45.585   7.1900  0.00  0.00     0.000 OA
ENDBRANCH 5 16
BRANCH 1 22
ATOM     22  O4  BDP C   2      29.070  42.059  12.3040  0.00  0.00     0.000 O
BRANCH 22 26
ATOM     23  C1  BDP C   2      29.607  37.976  12.3470  0.00  0.00     0.000 C
ATOM     24  C2  BDP C   2      30.680  38.780  13.0420  0.00  0.00     0.000 C
ATOM     25  C3  BDP C   2      30.190  40.185  13.2720  0.00  0.00     0.000 C
ATOM     26  C4  BDP C   2      29.694  40.793  11.9650  0.00  0.00     0.000 C
ATOM     27  C5  BDP C   2      28.753  39.820  11.2660  0.00  0.00     0.000 C
ATOM     28  O5  BDP C   2      29.364  38.527  11.0220  0.00  0.00     0.000 O
ATOM     29   O  BDP C   2      30.954  38.299  14.3580  0.00  0.00     0.000 O
ATOM     31  HD  BDP C   2      31.147  38.895  14.9560  0.00  0.00     0.000 HD
ATOM     31   O  BDP C   2      31.293  40.932  13.7710  0.00  0.00     0.000 O
ATOM     33  HD  BDP C   2      31.485  41.528  14.3690  0.00  0.00     0.000 HD
BRANCH 27 33
ATOM     33   C  BDP C   2      28.302  40.322   9.9150  0.00  0.00     0.000 C
ATOM     34   O  BDP C   2      27.095  40.326   9.5760  0.00  0.00     0.000 OA
ATOM     35   O  BDP C   2      29.151  40.700   9.1240  0.00  0.00     0.000 OA
ENDBRANCH 27 33
BRANCH 23 36
ATOM     36  O4  SGN C   3      29.875  36.658  12.1990  0.00  0.00     0.000 O
BRANCH 36 40
ATOM     37  C1  SGN C   3      28.267  32.810  11.9940  0.00  0.00     0.000 C
ATOM     38  C2  SGN C   3      28.045  33.742  10.7920  0.00  0.00     0.000 C
ATOM     39  C3  SGN C   3      29.031  34.901  10.8270  0.00  0.00     0.000 C
ATOM     40  C4  SGN C   3      28.890  35.622  12.1500  0.00  0.00     0.000 C
ATOM     41  C5  SGN C   3      29.100  34.629  13.2720  0.00  0.00     0.000 C
ATOM     42  O5  SGN C   3      28.125  33.578  13.1790  0.00  0.00     0.000 O
ATOM     43   O  SGN C   3      28.764  35.776   9.7390  0.00  0.00     0.000 O
ATOM     45  HD  SGN C   3      29.125  36.218  10.3910  0.00  0.00     0.000 HD
BRANCH 38 47
ATOM     45   N  SGN C   3      26.876  32.876  10.5540  0.00  0.00     0.000 N
ATOM     47  HD  SGN C   3      27.247  33.506  11.0190  0.00  0.00     0.000 HD
ATOM     47   S  SGN C   3      26.943  32.159   9.1370  0.00  0.00     0.000 S
ATOM     48   O  SGN C   3      26.842  33.097   8.0760  0.00  0.00     0.000 OA
ATOM     49   O  SGN C   3      28.106  31.332   9.1520  0.00  0.00     0.000 OA
ATOM     50   O  SGN C   3      25.717  31.363   9.1490  0.00  0.00     0.000 OA
ENDBRANCH 38 47
BRANCH 41 51
ATOM     51   C  SGN C   3      28.990  35.224  14.6490  0.00  0.00     0.000 C
ATOM     52   O  SGN C   3      30.546  33.952  17.7860  0.00  0.00     0.000 OA
ATOM     53   O  SGN C   3      30.115  36.205  17.1040  0.00  0.00     0.000 OA
ATOM     54   O  SGN C   3      28.299  34.685  17.5010  0.00  0.00     0.000 OA
ATOM     55   O  SGN C   3      29.772  34.459  15.5400  0.00  0.00     0.000 O
ATOM     56   S  SGN C   3      29.672  34.864  17.1320  0.00  0.00     0.000 S
ENDBRANCH 41 51
BRANCH 37 57
ATOM     57  O4  IDS C   4      29.480  32.205  12.0240  0.00  0.00     0.000 O
BRANCH 57 61
ATOM     58  C1  IDS C   4      30.945  28.760  12.6980  0.00  0.00     0.000 C
ATOM     59  C2  IDS C   4      29.476  28.878  12.4440  0.00  0.00     0.000 C
ATOM     60  C3  IDS C   4      28.857  30.107  13.1140  0.00  0.00     0.000 C
ATOM     61  C4  IDS C   4      29.719  31.361  13.1670  0.00  0.00     0.000 C
ATOM     62  C5  IDS C   4      31.204  30.995  13.2760  0.00  0.00     0.000 C
ATOM     63  O5  IDS C   4      31.567  29.984  12.3470  0.00  0.00     0.000 O
ATOM     64   O  IDS C   4      28.574  29.705  14.4420  0.00  0.00     0.000 O
ATOM     66  HD  IDS C   4      29.077  30.133  15.0020  0.00  0.00     0.000 HD
BRANCH 59 66
ATOM     66   O  IDS C   4      29.182  28.994  11.0030  0.00  0.00     0.000 O
ATOM     67   S  IDS C   4      28.737  27.660  10.2590  0.00  0.00     0.000 S
ATOM     68   O  IDS C   4      27.478  27.338  10.8860  0.00  0.00     0.000 OA
ATOM     69   O  IDS C   4      28.646  28.026   8.8590  0.00  0.00     0.000 OA
ATOM     70   O  IDS C   4      29.749  26.654  10.5390  0.00  0.00     0.000 OA
ENDBRANCH 59 66
BRANCH 62 71
ATOM     71   C  IDS C   4      32.128  32.164  12.9900  0.00  0.00     0.000 C
ATOM     72   O  IDS C   4      32.218  33.079  13.7860  0.00  0.00     0.000 OA
ATOM     73   O  IDS C   4      32.702  32.210  11.8840  0.00  0.00     0.000 OA
ENDBRANCH 62 71
BRANCH 58 74
ATOM     74  O4  SGN C   5      31.279  28.156  13.8740  0.00  0.00     0.000 O
BRANCH 74 78
ATOM     75  C1  SGN C   5      33.843  25.492  15.8170  0.00  0.00     0.000 C
ATOM     76  C2  SGN C   5      34.482  26.802  15.3180  0.00  0.00     0.000 C
ATOM     77  C3  SGN C   5      33.400  27.824  14.9420  0.00  0.00     0.000 C
ATOM     78  C4  SGN C   5      32.328  27.204  14.0560  0.00  0.00     0.000 C
ATOM     79  C5  SGN C   5      31.795  25.940  14.7130  0.00  0.00     0.000 C
ATOM     80  O5  SGN C   5      32.881  24.993  14.8970  0.00  0.00     0.000 O
ATOM     81   O  SGN C   5      34.016  28.927  14.2850  0.00  0.00     0.000 O
ATOM     83  HD  SGN C   5      34.794  29.222  14.5250  0.00  0.00     0.000 HD
BRANCH 76 85
ATOM     83   N  SGN C   5      35.902  26.513  15.5520  0.00  0.00     0.000 N
ATOM     85  HD  SGN C   5      36.578  26.357  16.0710  0.00  0.00     0.000 HD
ATOM     85   S  SGN C   5      36.892  27.096  16.6810  0.00  0.00     0.000 S
ATOM     86   O  SGN C   5      38.180  26.506  16.5650  0.00  0.00     0.000 OA
ATOM     87   O  SGN C   5      36.822  28.512  16.6090  0.00  0.00     0.000 OA
ATOM     88   O  SGN C   5      36.140  26.516  17.8760  0.00  0.00     0.000 OA
ENDBRANCH 76 85
BRANCH 79 89
ATOM     89   C  SGN C   5      30.700  25.260  13.9160  0.00  0.00     0.000 C
ATOM     90   O  SGN C   5      31.263  24.667  12.7200  0.00  0.00     0.000 O
ATOM     91   S  SGN C   5      30.554  23.334  12.1740  0.00  0.00     0.000 S
ATOM     92   O  SGN C   5      30.494  22.422  13.2870  0.00  0.00     0.000 OA
ATOM     93   O  SGN C   5      29.247  23.712  11.7010  0.00  0.00     0.000 OA
ATOM     94   O  SGN C   5      31.433  22.898  11.1240  0.00  0.00     0.000 OA
ENDBRANCH 79 89
BRANCH 75 95
ATOM     95  O4  BDP C   6      33.231  25.803  16.9980  0.00  0.00     0.000 O
BRANCH 95 99
ATOM     96  C1  BDP C   6      33.148  22.915  20.1760  0.00  0.00     0.000 C
ATOM     97  C2  BDP C   6      33.572  22.467  18.8050  0.00  0.00     0.000 C
ATOM     98  C3  BDP C   6      33.936  23.613  17.8490  0.00  0.00     0.000 C
ATOM     99  C4  BDP C   6      32.869  24.698  17.8550  0.00  0.00     0.000 C
ATOM    100  C5  BDP C   6      32.573  25.070  19.3260  0.00  0.00     0.000 C
ATOM    101  O5  BDP C   6      32.110  23.836  19.8990  0.00  0.00     0.000 O
BRANCH 100 102
ATOM    102   C  BDP C   6      31.468  26.087  19.4580  0.00  0.00     0.000 C
ATOM    103   O  BDP C   6      31.423  26.898  20.3940  0.00  0.00     0.000 OA
ATOM    104   O  BDP C   6      30.601  26.087  18.5760  0.00  0.00     0.000 OA
ENDBRANCH 100 102
ENDBRANCH 95 99
ENDBRANCH 75 95
ENDBRANCH 74 78
ENDBRANCH 58 74
ENDBRANCH 57 61
ENDBRANCH 37 57
ENDBRANCH 36 40
ENDBRANCH 23 36
ENDBRANCH 22 26
ENDBRANCH 1 22
TORSDOF 20
ENDMDL
MODEL 71
REMARK VINA RESULT:      -5.4      3.035      4.149
ROOT
ATOM      1  C1  NGY C   1      17.923  32.935  24.6880  0.00  0.00     0.000 C
ATOM      2  C2  NGY C   1      17.255  34.127  25.3600  0.00  0.00     0.000 C
ATOM      3  C3  NGY C   1      15.739  34.032  25.2170  0.00  0.00     0.000 C
ATOM      4  C4  NGY C   1      15.408  33.888  23.7440  0.00  0.00     0.000 C
ATOM      5  C5  NGY C   1      16.069  32.618  23.2150  0.00  0.00     0.000 C
ATOM      6  O5  NGY C   1      17.506  32.763  23.3500  0.00  0.00     0.000 O
ATOM      7   O  NGY C   1      15.144  35.189  25.7870  0.00  0.00     0.000 O
ATOM      9  HD  NGY C   1      15.324  36.034  25.8490  0.00  0.00     0.000 HD
ATOM      9   O  NGY C   1      14.004  33.829  23.5410  0.00  0.00     0.000 O
ATOM     11  HD  NGY C   1      14.184  34.674  23.6030  0.00  0.00     0.000 HD
ENDROOT
BRANCH 2 13
ATOM     11   N  NGY C   1      18.031  35.164  25.9970  0.00  0.00     0.000 N
ATOM     13  HD  NGY C   1      17.843  34.984  26.8230  0.00  0.00     0.000 HD
ATOM     13   C  NGY C   1      18.058  35.301  27.3220  0.00  0.00     0.000 C
ATOM     14   O  NGY C   1      17.312  34.640  28.0470  0.00  0.00     0.000 OA
ATOM     15   C  NGY C   1      19.055  36.272  27.8770  0.00  0.00     0.000 C
ENDBRANCH 2 13
BRANCH 5 16
ATOM     16   C  NGY C   1      15.825  32.330  21.7680  0.00  0.00     0.000 C
ATOM     17   O  NGY C   1      18.428  32.462  19.1860  0.00  0.00     0.000 OA
ATOM     18   O  NGY C   1      16.995  32.684  21.0260  0.00  0.00     0.000 O
ATOM     19   S  NGY C   1      17.107  32.054  19.5910  0.00  0.00     0.000 S
ATOM     20   O  NGY C   1      16.077  32.651  18.7830  0.00  0.00     0.000 OA
ATOM     21   O  NGY C   1      16.924  30.627  19.8030  0.00  0.00     0.000 OA
ENDBRANCH 5 16
BRANCH 1 22
ATOM     22  O4  BDP C   2      17.713  31.836  25.4430  0.00  0.00     0.000 O
BRANCH 22 26
ATOM     23  C1  BDP C   2      19.340  28.182  26.4250  0.00  0.00     0.000 C
ATOM     24  C2  BDP C   2      20.202  29.064  25.5540  0.00  0.00     0.000 C
ATOM     25  C3  BDP C   2      19.670  30.473  25.5760  0.00  0.00     0.000 C
ATOM     26  C4  BDP C   2      18.189  30.484  25.2130  0.00  0.00     0.000 C
ATOM     27  C5  BDP C   2      17.448  29.433  26.0310  0.00  0.00     0.000 C
ATOM     28  O5  BDP C   2      18.000  28.102  25.8640  0.00  0.00     0.000 O
ATOM     29   O  BDP C   2      21.530  29.198  26.0600  0.00  0.00     0.000 O
ATOM     31  HD  BDP C   2      21.910  29.969  25.9530  0.00  0.00     0.000 HD
ATOM     31   O  BDP C   2      20.414  31.211  24.6150  0.00  0.00     0.000 O
ATOM     33  HD  BDP C   2      20.793  31.982  24.5070  0.00  0.00     0.000 HD
BRANCH 27 33
ATOM     33   C  BDP C   2      15.992  29.325  25.6490  0.00  0.00     0.000 C
ATOM     34   O  BDP C   2      15.628  29.090  24.4720  0.00  0.00     0.000 OA
ATOM     35   O  BDP C   2      15.150  29.507  26.5140  0.00  0.00     0.000 OA
ENDBRANCH 27 33
BRANCH 23 36
ATOM     36  O4  SGN C   3      19.790  26.917  26.5940  0.00  0.00     0.000 O
BRANCH 36 40
ATOM     37  C1  SGN C   3      20.630  23.921  29.3770  0.00  0.00     0.000 C
ATOM     38  C2  SGN C   3      19.184  24.039  28.8700  0.00  0.00     0.000 C
ATOM     39  C3  SGN C   3      19.136  24.849  27.5830  0.00  0.00     0.000 C
ATOM     40  C4  SGN C   3      19.773  26.199  27.8310  0.00  0.00     0.000 C
ATOM     41  C5  SGN C   3      21.179  25.987  28.3470  0.00  0.00     0.000 C
ATOM     42  O5  SGN C   3      21.139  25.232  29.5670  0.00  0.00     0.000 O
ATOM     43   O  SGN C   3      17.782  24.992  27.1690  0.00  0.00     0.000 O
ATOM     45  HD  SGN C   3      18.251  25.661  26.8820  0.00  0.00     0.000 HD
BRANCH 38 47
ATOM     45   N  SGN C   3      18.748  23.439  30.1430  0.00  0.00     0.000 N
ATOM     47  HD  SGN C   3      19.000  24.143  29.7070  0.00  0.00     0.000 HD
ATOM     47   S  SGN C   3      18.118  21.994  29.9380  0.00  0.00     0.000 S
ATOM     48   O  SGN C   3      16.902  22.058  29.2060  0.00  0.00     0.000 OA
ATOM     49   O  SGN C   3      19.149  21.172  29.3950  0.00  0.00     0.000 OA
ATOM     50   O  SGN C   3      17.792  21.613  31.3110  0.00  0.00     0.000 OA
ENDBRANCH 38 47
BRANCH 41 51
ATOM     51   C  SGN C   3      21.928  27.261  28.6310  0.00  0.00     0.000 C
ATOM     52   O  SGN C   3      25.584  27.862  28.2340  0.00  0.00     0.000 OA
ATOM     53   O  SGN C   3      23.748  29.366  27.9160  0.00  0.00     0.000 OA
ATOM     54   O  SGN C   3      24.228  28.475  30.0940  0.00  0.00     0.000 OA
ATOM     55   O  SGN C   3      23.286  27.074  28.2990  0.00  0.00     0.000 O
ATOM     56   S  SGN C   3      24.306  28.310  28.6720  0.00  0.00     0.000 S
ENDBRANCH 41 51
BRANCH 37 57
ATOM     57  O4  IDS C   4      21.469  23.258  28.5440  0.00  0.00     0.000 O
BRANCH 57 61
ATOM     58  C1  IDS C   4      24.251  20.813  29.4130  0.00  0.00     0.000 C
ATOM     59  C2  IDS C   4      23.416  21.374  30.5200  0.00  0.00     0.000 C
ATOM     60  C3  IDS C   4      23.094  22.858  30.3260  0.00  0.00     0.000 C
ATOM     61  C4  IDS C   4      22.865  23.323  28.8940  0.00  0.00     0.000 C
ATOM     62  C5  IDS C   4      23.715  22.505  27.9140  0.00  0.00     0.000 C
ATOM     63  O5  IDS C   4      23.627  21.112  28.1760  0.00  0.00     0.000 O
ATOM     64   O  IDS C   4      24.212  23.553  30.8460  0.00  0.00     0.000 O
ATOM     66  HD  IDS C   4      24.639  23.959  30.2110  0.00  0.00     0.000 HD
BRANCH 59 66
ATOM     66   O  IDS C   4      22.121  20.676  30.6300  0.00  0.00     0.000 O
ATOM     67   S  IDS C   4      21.757  20.072  32.0560  0.00  0.00     0.000 S
ATOM     68   O  IDS C   4      21.636  21.244  32.8890  0.00  0.00     0.000 OA
ATOM     69   O  IDS C   4      20.523  19.340  31.8480  0.00  0.00     0.000 OA
ATOM     70   O  IDS C   4      22.874  19.235  32.4660  0.00  0.00     0.000 OA
ENDBRANCH 59 66
BRANCH 62 71
ATOM     71   C  IDS C   4      23.287  22.677  26.4690  0.00  0.00     0.000 C
ATOM     72   O  IDS C   4      22.762  21.756  25.8740  0.00  0.00     0.000 OA
ATOM     73   O  IDS C   4      23.580  23.740  25.8860  0.00  0.00     0.000 OA
ENDBRANCH 62 71
BRANCH 58 74
ATOM     74  O4  SGN C   5      25.593  21.013  29.5480  0.00  0.00     0.000 O
BRANCH 74 78
ATOM     75  C1  SGN C   5      29.365  19.228  29.3620  0.00  0.00     0.000 C
ATOM     76  C2  SGN C   5      28.891  19.942  28.0820  0.00  0.00     0.000 C
ATOM     77  C3  SGN C   5      27.677  20.833  28.3750  0.00  0.00     0.000 C
ATOM     78  C4  SGN C   5      26.617  20.090  29.1760  0.00  0.00     0.000 C
ATOM     79  C5  SGN C   5      27.254  19.472  30.4120  0.00  0.00     0.000 C
ATOM     80  O5  SGN C   5      28.297  18.546  30.0070  0.00  0.00     0.000 O
ATOM     81   O  SGN C   5      27.137  21.299  27.1430  0.00  0.00     0.000 O
ATOM     83  HD  SGN C   5      27.646  21.506  26.4730  0.00  0.00     0.000 HD
BRANCH 76 85
ATOM     83   N  SGN C   5      30.338  20.074  27.8720  0.00  0.00     0.000 N
ATOM     85  HD  SGN C   5      31.030  20.453  27.5140  0.00  0.00     0.000 HD
ATOM     85   S  SGN C   5      31.152  20.376  26.5150  0.00  0.00     0.000 S
ATOM     86   O  SGN C   5      32.546  20.465  26.7810  0.00  0.00     0.000 OA
ATOM     87   O  SGN C   5      30.737  19.415  25.5560  0.00  0.00     0.000 OA
ATOM     88   O  SGN C   5      30.561  21.762  26.2720  0.00  0.00     0.000 OA
ENDBRANCH 76 85
BRANCH 79 89
ATOM     89   C  SGN C   5      26.270  18.727  31.2910  0.00  0.00     0.000 C
ATOM     90   O  SGN C   5      26.238  17.329  30.9140  0.00  0.00     0.000 O
ATOM     91   S  SGN C   5      25.931  16.274  32.0840  0.00  0.00     0.000 S
ATOM     92   O  SGN C   5      26.867  16.556  33.1410  0.00  0.00     0.000 OA
ATOM     93   O  SGN C   5      24.564  16.477  32.4890  0.00  0.00     0.000 OA
ATOM     94   O  SGN C   5      26.152  15.003  31.4490  0.00  0.00     0.000 OA
ENDBRANCH 79 89
BRANCH 75 95
ATOM     95  O4  BDP C   6      29.843  20.211  30.1810  0.00  0.00     0.000 O
BRANCH 95 99
ATOM     96  C1  BDP C   6      32.610  19.959  33.4560  0.00  0.00     0.000 C
ATOM     97  C2  BDP C   6      32.741  18.979  32.3240  0.00  0.00     0.000 C
ATOM     98  C3  BDP C   6      31.980  19.377  31.0510  0.00  0.00     0.000 C
ATOM     99  C4  BDP C   6      30.548  19.785  31.3670  0.00  0.00     0.000 C
ATOM    100  C5  BDP C   6      30.588  20.815  32.5200  0.00  0.00     0.000 C
ATOM    101  O5  BDP C   6      31.208  20.092  33.5960  0.00  0.00     0.000 O
BRANCH 100 102
ATOM    102   C  BDP C   6      29.213  21.234  32.9740  0.00  0.00     0.000 C
ATOM    103   O  BDP C   6      28.566  22.118  32.3940  0.00  0.00     0.000 OA
ATOM    104   O  BDP C   6      28.744  20.644  33.9540  0.00  0.00     0.000 OA
ENDBRANCH 100 102
ENDBRANCH 95 99
ENDBRANCH 75 95
ENDBRANCH 74 78
ENDBRANCH 58 74
ENDBRANCH 57 61
ENDBRANCH 37 57
ENDBRANCH 36 40
ENDBRANCH 23 36
ENDBRANCH 22 26
ENDBRANCH 1 22
TORSDOF 20
ENDMDL
MODEL 72
REMARK VINA RESULT:      -5.4     11.143     20.582
ROOT
ATOM      1  C1  NGY C   1      14.625  33.913  22.7990  0.00  0.00     0.000 C
ATOM      2  C2  NGY C   1      13.679  34.103  23.9770  0.00  0.00     0.000 C
ATOM      3  C3  NGY C   1      14.228  33.399  25.2140  0.00  0.00     0.000 C
ATOM      4  C4  NGY C   1      14.491  31.948  24.8590  0.00  0.00     0.000 C
ATOM      5  C5  NGY C   1      15.512  31.898  23.7260  0.00  0.00     0.000 C
ATOM      6  O5  NGY C   1      14.938  32.556  22.5670  0.00  0.00     0.000 O
ATOM      7   O  NGY C   1      13.296  33.528  26.2770  0.00  0.00     0.000 O
ATOM      9  HD  NGY C   1      12.435  33.537  26.3720  0.00  0.00     0.000 HD
ATOM      9   O  NGY C   1      14.974  31.229  25.9840  0.00  0.00     0.000 O
ATOM     11  HD  NGY C   1      14.113  31.238  26.0790  0.00  0.00     0.000 HD
ENDROOT
BRANCH 2 13
ATOM     11   N  NGY C   1      12.540  34.746  24.5870  0.00  0.00     0.000 N
ATOM     13  HD  NGY C   1      12.655  35.546  24.2760  0.00  0.00     0.000 HD
ATOM     13   C  NGY C   1      12.284  36.039  24.3970  0.00  0.00     0.000 C
ATOM     14   O  NGY C   1      13.087  36.768  23.8120  0.00  0.00     0.000 OA
ATOM     15   C  NGY C   1      10.968  36.546  24.9040  0.00  0.00     0.000 C
ENDBRANCH 2 13
BRANCH 5 16
ATOM     16   C  NGY C   1      15.885  30.525  23.2670  0.00  0.00     0.000 C
ATOM     17   O  NGY C   1      18.952  28.786  24.2810  0.00  0.00     0.000 OA
ATOM     18   O  NGY C   1      17.228  30.251  23.6760  0.00  0.00     0.000 O
ATOM     19   S  NGY C   1      17.640  28.735  23.6870  0.00  0.00     0.000 S
ATOM     20   O  NGY C   1      17.674  28.294  22.3180  0.00  0.00     0.000 OA
ATOM     21   O  NGY C   1      16.613  28.082  24.4820  0.00  0.00     0.000 OA
ENDBRANCH 5 16
BRANCH 1 22
ATOM     22  O4  BDP C   2      15.723  34.673  22.9970  0.00  0.00     0.000 O
BRANCH 22 26
ATOM     23  C1  BDP C   2      18.839  36.964  21.5810  0.00  0.00     0.000 C
ATOM     24  C2  BDP C   2      17.457  37.446  21.2090  0.00  0.00     0.000 C
ATOM     25  C3  BDP C   2      16.432  36.758  22.0720  0.00  0.00     0.000 C
ATOM     26  C4  BDP C   2      16.612  35.245  22.0020  0.00  0.00     0.000 C
ATOM     27  C5  BDP C   2      18.077  34.888  22.2200  0.00  0.00     0.000 C
ATOM     28  O5  BDP C   2      18.961  35.546  21.2760  0.00  0.00     0.000 O
ATOM     29   O  BDP C   2      17.267  38.831  21.5000  0.00  0.00     0.000 O
ATOM     31  HD  BDP C   2      16.478  39.065  21.7720  0.00  0.00     0.000 HD
ATOM     31   O  BDP C   2      15.154  37.122  21.5660  0.00  0.00     0.000 O
ATOM     33  HD  BDP C   2      14.366  37.356  21.8390  0.00  0.00     0.000 HD
BRANCH 27 33
ATOM     33   C  BDP C   2      18.340  33.409  22.0650  0.00  0.00     0.000 C
ATOM     34   O  BDP C   2      18.962  32.750  22.9320  0.00  0.00     0.000 OA
ATOM     35   O  BDP C   2      17.962  32.856  21.0460  0.00  0.00     0.000 OA
ENDBRANCH 27 33
BRANCH 23 36
ATOM     36  O4  SGN C   3      19.861  37.604  20.9660  0.00  0.00     0.000 O
BRANCH 36 40
ATOM     37  C1  SGN C   3      23.684  39.220  21.4180  0.00  0.00     0.000 C
ATOM     38  C2  SGN C   3      23.488  37.738  21.7770  0.00  0.00     0.000 C
ATOM     39  C3  SGN C   3      22.203  37.206  21.1590  0.00  0.00     0.000 C
ATOM     40  C4  SGN C   3      21.047  38.069  21.6160  0.00  0.00     0.000 C
ATOM     41  C5  SGN C   3      21.334  39.507  21.2440  0.00  0.00     0.000 C
ATOM     42  O5  SGN C   3      22.549  39.938  21.8770  0.00  0.00     0.000 O
ATOM     43   O  SGN C   3      22.018  35.853  21.5550  0.00  0.00     0.000 O
ATOM     45  HD  SGN C   3      21.250  36.221  21.3940  0.00  0.00     0.000 HD
BRANCH 38 47
ATOM     45   N  SGN C   3      24.751  38.122  22.4320  0.00  0.00     0.000 N
ATOM     47  HD  SGN C   3      23.901  38.252  22.3340  0.00  0.00     0.000 HD
ATOM     47   S  SGN C   3      25.882  37.021  22.2380  0.00  0.00     0.000 S
ATOM     48   O  SGN C   3      25.551  35.815  22.9110  0.00  0.00     0.000 OA
ATOM     49   O  SGN C   3      26.125  36.926  20.8360  0.00  0.00     0.000 OA
ATOM     50   O  SGN C   3      27.011  37.628  22.9410  0.00  0.00     0.000 OA
ENDBRANCH 38 47
BRANCH 41 51
ATOM     51   C  SGN C   3      20.252  40.473  21.6420  0.00  0.00     0.000 C
ATOM     52   O  SGN C   3      19.169  41.348  25.0980  0.00  0.00     0.000 OA
ATOM     53   O  SGN C   3      19.253  42.716  23.1350  0.00  0.00     0.000 OA
ATOM     54   O  SGN C   3      17.762  40.837  23.2460  0.00  0.00     0.000 OA
ATOM     55   O  SGN C   3      20.201  40.546  23.0500  0.00  0.00     0.000 O
ATOM     56   S  SGN C   3      18.981  41.445  23.6910  0.00  0.00     0.000 S
ENDBRANCH 41 51
BRANCH 37 57
ATOM     57  O4  IDS C   4      23.834  39.466  20.0940  0.00  0.00     0.000 O
BRANCH 57 61
ATOM     58  C1  IDS C   4      25.838  40.700  17.1050  0.00  0.00     0.000 C
ATOM     59  C2  IDS C   4      26.521  39.844  18.1240  0.00  0.00     0.000 C
ATOM     60  C3  IDS C   4      26.108  40.186  19.5570  0.00  0.00     0.000 C
ATOM     61  C4  IDS C   4      24.658  40.602  19.7670  0.00  0.00     0.000 C
ATOM     62  C5  IDS C   4      24.118  41.334  18.5330  0.00  0.00     0.000 C
ATOM     63  O5  IDS C   4      24.439  40.648  17.3310  0.00  0.00     0.000 O
ATOM     64   O  IDS C   4      26.940  41.266  19.9370  0.00  0.00     0.000 O
ATOM     66  HD  IDS C   4      26.472  41.987  20.0420  0.00  0.00     0.000 HD
BRANCH 59 66
ATOM     66   O  IDS C   4      26.210  38.415  17.9280  0.00  0.00     0.000 O
ATOM     67   S  IDS C   4      27.412  37.484  17.4590  0.00  0.00     0.000 S
ATOM     68   O  IDS C   4      28.321  37.532  18.5780  0.00  0.00     0.000 OA
ATOM     69   O  IDS C   4      26.808  36.188  17.2180  0.00  0.00     0.000 OA
ATOM     70   O  IDS C   4      27.990  38.094  16.2710  0.00  0.00     0.000 OA
ENDBRANCH 59 66
BRANCH 62 71
ATOM     71   C  IDS C   4      22.608  41.469  18.5350  0.00  0.00     0.000 C
ATOM     72   O  IDS C   4      22.067  42.262  19.2820  0.00  0.00     0.000 OA
ATOM     73   O  IDS C   4      21.940  40.681  17.8360  0.00  0.00     0.000 OA
ENDBRANCH 62 71
BRANCH 58 74
ATOM     74  O4  SGN C   5      26.431  41.906  16.8760  0.00  0.00     0.000 O
BRANCH 74 78
ATOM     75  C1  SGN C   5      27.111  44.959  14.1080  0.00  0.00     0.000 C
ATOM     76  C2  SGN C   5      25.817  45.073  14.9350  0.00  0.00     0.000 C
ATOM     77  C3  SGN C   5      25.849  44.108  16.1280  0.00  0.00     0.000 C
ATOM     78  C4  SGN C   5      26.270  42.708  15.7060  0.00  0.00     0.000 C
ATOM     79  C5  SGN C   5      27.574  42.784  14.9260  0.00  0.00     0.000 C
ATOM     80  O5  SGN C   5      27.387  43.612  13.7470  0.00  0.00     0.000 O
ATOM     81   O  SGN C   5      24.561  44.081  16.7340  0.00  0.00     0.000 O
ATOM     83  HD  SGN C   5      24.072  44.794  16.7950  0.00  0.00     0.000 HD
BRANCH 76 85
ATOM     83   N  SGN C   5      25.401  46.366  15.4920  0.00  0.00     0.000 N
ATOM     85  HD  SGN C   5      24.895  47.069  15.5030  0.00  0.00     0.000 HD
ATOM     85   S  SGN C   5      24.955  47.713  14.7290  0.00  0.00     0.000 S
ATOM     86   O  SGN C   5      24.588  48.717  15.6660  0.00  0.00     0.000 OA
ATOM     87   O  SGN C   5      25.987  48.034  13.8090  0.00  0.00     0.000 OA
ATOM     88   O  SGN C   5      23.716  47.122  14.0600  0.00  0.00     0.000 OA
ENDBRANCH 76 85
BRANCH 79 89
ATOM     89   C  SGN C   5      28.091  41.431  14.4800  0.00  0.00     0.000 C
ATOM     90   O  SGN C   5      27.215  40.882  13.4650  0.00  0.00     0.000 O
ATOM     91   S  SGN C   5      27.896  39.943  12.3560  0.00  0.00     0.000 S
ATOM     92   O  SGN C   5      28.998  40.692  11.8100  0.00  0.00     0.000 OA
ATOM     93   O  SGN C   5      28.325  38.741  13.0230  0.00  0.00     0.000 OA
ATOM     94   O  SGN C   5      26.833  39.721  11.4140  0.00  0.00     0.000 OA
ENDBRANCH 79 89
BRANCH 75 95
ATOM     95  O4  BDP C   6      28.109  45.432  14.9120  0.00  0.00     0.000 O
BRANCH 95 99
ATOM     96  C1  BDP C   6      31.767  47.343  13.7220  0.00  0.00     0.000 C
ATOM     97  C2  BDP C   6      30.626  47.296  12.7440  0.00  0.00     0.000 C
ATOM     98  C3  BDP C   6      29.268  46.950  13.3720  0.00  0.00     0.000 C
ATOM     99  C4  BDP C   6      29.371  45.731  14.2770  0.00  0.00     0.000 C
ATOM    100  C5  BDP C   6      30.562  45.949  15.2390  0.00  0.00     0.000 C
ATOM    101  O5  BDP C   6      31.688  46.080  14.3570  0.00  0.00     0.000 O
BRANCH 100 102
ATOM    102   C  BDP C   6      30.810  44.763  16.1360  0.00  0.00     0.000 C
ATOM    103   O  BDP C   6      30.928  43.612  15.6930  0.00  0.00     0.000 OA
ATOM    104   O  BDP C   6      30.904  44.989  17.3480  0.00  0.00     0.000 OA
ENDBRANCH 100 102
ENDBRANCH 95 99
ENDBRANCH 75 95
ENDBRANCH 74 78
ENDBRANCH 58 74
ENDBRANCH 57 61
ENDBRANCH 37 57
ENDBRANCH 36 40
ENDBRANCH 23 36
ENDBRANCH 22 26
ENDBRANCH 1 22
TORSDOF 20
ENDMDL
MODEL 73
REMARK VINA RESULT:      -5.4     32.566     37.532
ROOT
ATOM      1  C1  NGY C   1      35.543   4.819  52.6990  0.00  0.00     0.000 C
ATOM      2  C2  NGY C   1      36.467   3.667  53.0660  0.00  0.00     0.000 C
ATOM      3  C3  NGY C   1      37.873   4.186  53.3510  0.00  0.00     0.000 C
ATOM      4  C4  NGY C   1      38.335   4.990  52.1500  0.00  0.00     0.000 C
ATOM      5  C5  NGY C   1      37.373   6.156  51.9420  0.00  0.00     0.000 C
ATOM      6  O5  NGY C   1      36.058   5.615  51.6520  0.00  0.00     0.000 O
ATOM      7   O  NGY C   1      38.732   3.087  53.6200  0.00  0.00     0.000 O
ATOM      9  HD  NGY C   1      38.832   2.273  53.3400  0.00  0.00     0.000 HD
ATOM      9   O  NGY C   1      39.656   5.475  52.3410  0.00  0.00     0.000 O
ATOM     11  HD  NGY C   1      39.756   4.661  52.0610  0.00  0.00     0.000 HD
ENDROOT
BRANCH 2 13
ATOM     11   N  NGY C   1      35.647   2.938  54.0050  0.00  0.00     0.000 N
ATOM     13  HD  NGY C   1      36.013   2.158  53.9270  0.00  0.00     0.000 HD
ATOM     13   C  NGY C   1      35.835   1.640  54.2370  0.00  0.00     0.000 C
ATOM     14   O  NGY C   1      36.620   0.979  53.5560  0.00  0.00     0.000 OA
ATOM     15   C  NGY C   1      35.068   1.042  55.3760  0.00  0.00     0.000 C
ENDBRANCH 2 13
BRANCH 5 16
ATOM     16   C  NGY C   1      37.702   7.054  50.7930  0.00  0.00     0.000 C
ATOM     17   O  NGY C   1      36.618  10.550  50.5460  0.00  0.00     0.000 OA
ATOM     18   O  NGY C   1      36.946   8.261  50.9210  0.00  0.00     0.000 O
ATOM     19   S  NGY C   1      37.471   9.484  50.0860  0.00  0.00     0.000 S
ATOM     20   O  NGY C   1      37.260   9.173  48.6970  0.00  0.00     0.000 OA
ATOM     21   O  NGY C   1      38.875   9.599  50.4480  0.00  0.00     0.000 OA
ENDBRANCH 5 16
BRANCH 1 22
ATOM     22  O4  BDP C   2      35.277   5.534  53.8120  0.00  0.00     0.000 O
BRANCH 22 26
ATOM     23  C1  BDP C   2      32.279   7.764  55.5450  0.00  0.00     0.000 C
ATOM     24  C2  BDP C   2      31.942   7.153  54.2050  0.00  0.00     0.000 C
ATOM     25  C3  BDP C   2      32.955   6.091  53.8660  0.00  0.00     0.000 C
ATOM     26  C4  BDP C   2      34.367   6.656  53.9640  0.00  0.00     0.000 C
ATOM     27  C5  BDP C   2      34.536   7.400  55.2820  0.00  0.00     0.000 C
ATOM     28  O5  BDP C   2      33.557   8.456  55.4590  0.00  0.00     0.000 O
ATOM     29   O  BDP C   2      30.704   6.444  54.2260  0.00  0.00     0.000 O
ATOM     31  HD  BDP C   2      30.660   5.727  53.7420  0.00  0.00     0.000 HD
ATOM     31   O  BDP C   2      32.686   5.675  52.5330  0.00  0.00     0.000 O
ATOM     33  HD  BDP C   2      32.642   4.958  52.0490  0.00  0.00     0.000 HD
BRANCH 27 33
ATOM     33   C  BDP C   2      35.885   8.069  55.3990  0.00  0.00     0.000 C
ATOM     34   O  BDP C   2      36.507   8.127  56.4870  0.00  0.00     0.000 OA
ATOM     35   O  BDP C   2      36.360   8.596  54.4070  0.00  0.00     0.000 OA
ENDBRANCH 27 33
BRANCH 23 36
ATOM     36  O4  SGN C   3      31.369   8.644  56.0250  0.00  0.00     0.000 O
BRANCH 36 40
ATOM     37  C1  SGN C   3      29.537  10.076  59.4920  0.00  0.00     0.000 C
ATOM     38  C2  SGN C   3      30.778  10.824  58.9790  0.00  0.00     0.000 C
ATOM     39  C3  SGN C   3      31.050  10.469  57.5250  0.00  0.00     0.000 C
ATOM     40  C4  SGN C   3      31.192   8.967  57.4070  0.00  0.00     0.000 C
ATOM     41  C5  SGN C   3      29.941   8.315  57.9530  0.00  0.00     0.000 C
ATOM     42  O5  SGN C   3      29.762   8.685  59.3290  0.00  0.00     0.000 O
ATOM     43   O  SGN C   3      32.235  11.128  57.0960  0.00  0.00     0.000 O
ATOM     45  HD  SGN C   3      32.121  10.400  56.6400  0.00  0.00     0.000 HD
BRANCH 38 47
ATOM     45   N  SGN C   3      30.707  11.244  60.3900  0.00  0.00     0.000 N
ATOM     47  HD  SGN C   3      30.807  10.605  59.8140  0.00  0.00     0.000 HD
ATOM     47   S  SGN C   3      30.836  12.820  60.5510  0.00  0.00     0.000 S
ATOM     48   O  SGN C   3      32.125  13.276  60.1680  0.00  0.00     0.000 OA
ATOM     49   O  SGN C   3      29.724  13.393  59.8660  0.00  0.00     0.000 OA
ATOM     50   O  SGN C   3      30.718  12.981  61.9990  0.00  0.00     0.000 OA
ENDBRANCH 38 47
BRANCH 41 51
ATOM     51   C  SGN C   3      29.952   6.812  57.8890  0.00  0.00     0.000 C
ATOM     52   O  SGN C   3      28.339   4.652  55.3170  0.00  0.00     0.000 OA
ATOM     53   O  SGN C   3      30.376   4.317  56.5290  0.00  0.00     0.000 OA
ATOM     54   O  SGN C   3      28.269   4.357  57.6790  0.00  0.00     0.000 OA
ATOM     55   O  SGN C   3      29.265   6.400  56.7280  0.00  0.00     0.000 O
ATOM     56   S  SGN C   3      29.041   4.780  56.5490  0.00  0.00     0.000 S
ENDBRANCH 41 51
BRANCH 37 57
ATOM     57  O4  IDS C   4      28.382  10.395  58.8580  0.00  0.00     0.000 O
BRANCH 57 61
ATOM     58  C1  IDS C   4      24.825  11.733  58.6810  0.00  0.00     0.000 C
ATOM     59  C2  IDS C   4      25.880  12.580  59.3210  0.00  0.00     0.000 C
ATOM     60  C3  IDS C   4      26.851  11.766  60.1810  0.00  0.00     0.000 C
ATOM     61  C4  IDS C   4      27.199  10.372  59.6800  0.00  0.00     0.000 C
ATOM     62  C5  IDS C   4      26.018   9.754  58.9240  0.00  0.00     0.000 C
ATOM     63  O5  IDS C   4      25.454  10.666  57.9920  0.00  0.00     0.000 O
ATOM     64   O  IDS C   4      26.217  11.642  61.4400  0.00  0.00     0.000 O
ATOM     66  HD  IDS C   4      26.000  10.818  61.5910  0.00  0.00     0.000 HD
BRANCH 59 66
ATOM     66   O  IDS C   4      26.700  13.278  58.3120  0.00  0.00     0.000 O
ATOM     67   S  IDS C   4      26.510  14.855  58.2100  0.00  0.00     0.000 S
ATOM     68   O  IDS C   4      26.985  15.326  59.4890  0.00  0.00     0.000 OA
ATOM     69   O  IDS C   4      27.316  15.255  57.0740  0.00  0.00     0.000 OA
ATOM     70   O  IDS C   4      25.088  15.107  58.0400  0.00  0.00     0.000 OA
ENDBRANCH 59 66
BRANCH 62 71
ATOM     71   C  IDS C   4      26.403   8.530  58.1150  0.00  0.00     0.000 C
ATOM     72   O  IDS C   4      26.432   8.585  56.9010  0.00  0.00     0.000 OA
ATOM     73   O  IDS C   4      26.585   7.453  58.7180  0.00  0.00     0.000 OA
ENDBRANCH 62 71
BRANCH 58 74
ATOM     74  O4  SGN C   5      23.743  11.472  59.4680  0.00  0.00     0.000 O
BRANCH 74 78
ATOM     75  C1  SGN C   5      19.618  10.832  59.6050  0.00  0.00     0.000 C
ATOM     76  C2  SGN C   5      20.475   9.625  59.1790  0.00  0.00     0.000 C
ATOM     77  C3  SGN C   5      21.956   9.873  59.4940  0.00  0.00     0.000 C
ATOM     78  C4  SGN C   5      22.411  11.242  59.0080  0.00  0.00     0.000 C
ATOM     79  C5  SGN C   5      21.468  12.310  59.5420  0.00  0.00     0.000 C
ATOM     80  O5  SGN C   5      20.121  12.049  59.0690  0.00  0.00     0.000 O
ATOM     81   O  SGN C   5      22.735   8.845  58.8930  0.00  0.00     0.000 O
ATOM     83  HD  SGN C   5      22.455   8.026  58.8550  0.00  0.00     0.000 HD
BRANCH 76 85
ATOM     83   N  SGN C   5      19.970   8.465  59.9240  0.00  0.00     0.000 N
ATOM     85  HD  SGN C   5      19.720   7.638  59.9780  0.00  0.00     0.000 HD
ATOM     85   S  SGN C   5      18.887   7.358  59.4810  0.00  0.00     0.000 S
ATOM     86   O  SGN C   5      18.730   6.381  60.5030  0.00  0.00     0.000 OA
ATOM     87   O  SGN C   5      17.722   8.053  59.0670  0.00  0.00     0.000 OA
ATOM     88   O  SGN C   5      19.696   6.792  58.3170  0.00  0.00     0.000 OA
ENDBRANCH 76 85
BRANCH 79 89
ATOM     89   C  SGN C   5      21.853  13.717  59.1300  0.00  0.00     0.000 C
ATOM     90   O  SGN C   5      21.215  14.051  57.8740  0.00  0.00     0.000 O
ATOM     91   S  SGN C   5      20.834  15.594  57.6470  0.00  0.00     0.000 S
ATOM     92   O  SGN C   5      20.069  15.997  58.7980  0.00  0.00     0.000 OA
ATOM     93   O  SGN C   5      22.071  16.322  57.5250  0.00  0.00     0.000 OA
ATOM     94   O  SGN C   5      20.068  15.569  56.4300  0.00  0.00     0.000 OA
ENDBRANCH 79 89
BRANCH 75 95
ATOM     95  O4  BDP C   6      19.682  10.870  60.9690  0.00  0.00     0.000 O
BRANCH 95 99
ATOM     96  C1  BDP C   6      16.473  11.919  63.6240  0.00  0.00     0.000 C
ATOM     97  C2  BDP C   6      16.159  11.672  62.1750  0.00  0.00     0.000 C
ATOM     98  C3  BDP C   6      17.269  10.943  61.4020  0.00  0.00     0.000 C
ATOM     99  C4  BDP C   6      18.627  11.583  61.6510  0.00  0.00     0.000 C
ATOM    100  C5  BDP C   6      18.810  11.735  63.1790  0.00  0.00     0.000 C
ATOM    101  O5  BDP C   6      17.720  12.586  63.5660  0.00  0.00     0.000 O
BRANCH 100 102
ATOM    102   C  BDP C   6      20.096  12.432  63.5440  0.00  0.00     0.000 C
ATOM    103   O  BDP C   6      20.221  13.664  63.4830  0.00  0.00     0.000 OA
ATOM    104   O  BDP C   6      21.031  11.718  63.9230  0.00  0.00     0.000 OA
ENDBRANCH 100 102
ENDBRANCH 95 99
ENDBRANCH 75 95
ENDBRANCH 74 78
ENDBRANCH 58 74
ENDBRANCH 57 61
ENDBRANCH 37 57
ENDBRANCH 36 40
ENDBRANCH 23 36
ENDBRANCH 22 26
ENDBRANCH 1 22
TORSDOF 20
ENDMDL
MODEL 74
REMARK VINA RESULT:      -5.3     16.714     25.012
ROOT
ATOM      1  C1  NGY C   1      34.661  26.356  20.2900  0.00  0.00     0.000 C
ATOM      2  C2  NGY C   1      35.473  25.076  20.4260  0.00  0.00     0.000 C
ATOM      3  C3  NGY C   1      34.546  23.879  20.6110  0.00  0.00     0.000 C
ATOM      4  C4  NGY C   1      33.634  24.161  21.7890  0.00  0.00     0.000 C
ATOM      5  C5  NGY C   1      32.821  25.417  21.4900  0.00  0.00     0.000 C
ATOM      6  O5  NGY C   1      33.741  26.530  21.3460  0.00  0.00     0.000 O
ATOM      7   O  NGY C   1      35.327  22.709  20.8080  0.00  0.00     0.000 O
ATOM      9  HD  NGY C   1      36.068  22.497  21.2020  0.00  0.00     0.000 HD
ATOM      9   O  NGY C   1      32.765  23.064  22.0330  0.00  0.00     0.000 O
ATOM     11  HD  NGY C   1      33.507  22.852  22.4270  0.00  0.00     0.000 HD
ENDROOT
BRANCH 2 13
ATOM     11   N  NGY C   1      36.910  25.195  20.3390  0.00  0.00     0.000 N
ATOM     13  HD  NGY C   1      37.041  24.722  19.6260  0.00  0.00     0.000 HD
ATOM     13   C  NGY C   1      37.601  24.608  19.3630  0.00  0.00     0.000 C
ATOM     14   O  NGY C   1      37.060  23.824  18.5820  0.00  0.00     0.000 OA
ATOM     15   C  NGY C   1      39.050  24.971  19.2530  0.00  0.00     0.000 C
ENDBRANCH 2 13
BRANCH 5 16
ATOM     16   C  NGY C   1      31.860  25.823  22.5610  0.00  0.00     0.000 C
ATOM     17   O  NGY C   1      30.633  29.249  23.0250  0.00  0.00     0.000 OA
ATOM     18   O  NGY C   1      31.772  27.250  22.5830  0.00  0.00     0.000 O
ATOM     19   S  NGY C   1      30.511  27.842  23.3110  0.00  0.00     0.000 S
ATOM     20   O  NGY C   1      30.655  27.554  24.7140  0.00  0.00     0.000 OA
ATOM     21   O  NGY C   1      29.381  27.168  22.6920  0.00  0.00     0.000 OA
ENDBRANCH 5 16
BRANCH 1 22
ATOM     22  O4  BDP C   2      34.068  26.367  19.0770  0.00  0.00     0.000 O
BRANCH 22 26
ATOM     23  C1  BDP C   2      32.646  28.416  15.7990  0.00  0.00     0.000 C
ATOM     24  C2  BDP C   2      34.020  28.825  16.2750  0.00  0.00     0.000 C
ATOM     25  C3  BDP C   2      34.561  27.780  17.2160  0.00  0.00     0.000 C
ATOM     26  C4  BDP C   2      33.562  27.508  18.3350  0.00  0.00     0.000 C
ATOM     27  C5  BDP C   2      32.175  27.281  17.7460  0.00  0.00     0.000 C
ATOM     28  O5  BDP C   2      31.726  28.391  16.9270  0.00  0.00     0.000 O
ATOM     29   O  BDP C   2      34.977  28.853  15.2160  0.00  0.00     0.000 O
ATOM     31  HD  BDP C   2      35.783  28.606  15.4160  0.00  0.00     0.000 HD
ATOM     31   O  BDP C   2      35.771  28.297  17.7560  0.00  0.00     0.000 O
ATOM     33  HD  BDP C   2      36.577  28.050  17.9560  0.00  0.00     0.000 HD
BRANCH 27 33
ATOM     33   C  BDP C   2      31.118  27.102  18.8090  0.00  0.00     0.000 C
ATOM     34   O  BDP C   2      30.830  28.013  19.6210  0.00  0.00     0.000 OA
ATOM     35   O  BDP C   2      30.558  26.022  18.8950  0.00  0.00     0.000 OA
ENDBRANCH 27 33
BRANCH 23 36
ATOM     36  O4  SGN C   3      32.103  29.208  14.8460  0.00  0.00     0.000 O
BRANCH 36 40
ATOM     37  C1  SGN C   3      30.158  29.333  11.1540  0.00  0.00     0.000 C
ATOM     38  C2  SGN C   3      29.399  28.716  12.3410  0.00  0.00     0.000 C
ATOM     39  C3  SGN C   3      30.039  29.135  13.6570  0.00  0.00     0.000 C
ATOM     40  C4  SGN C   3      31.500  28.739  13.6370  0.00  0.00     0.000 C
ATOM     41  C5  SGN C   3      32.159  29.369  12.4300  0.00  0.00     0.000 C
ATOM     42  O5  SGN C   3      31.511  28.914  11.2310  0.00  0.00     0.000 O
ATOM     43   O  SGN C   3      29.355  28.503  14.7320  0.00  0.00     0.000 O
ATOM     45  HD  SGN C   3      30.175  28.664  14.9580  0.00  0.00     0.000 HD
BRANCH 38 47
ATOM     45   N  SGN C   3      28.310  27.739  12.1680  0.00  0.00     0.000 N
ATOM     47  HD  SGN C   3      29.034  27.972  12.5820  0.00  0.00     0.000 HD
ATOM     47   S  SGN C   3      27.107  28.330  11.3140  0.00  0.00     0.000 S
ATOM     48   O  SGN C   3      26.453  29.386  12.0020  0.00  0.00     0.000 OA
ATOM     49   O  SGN C   3      27.633  28.634  10.0240  0.00  0.00     0.000 OA
ATOM     50   O  SGN C   3      26.189  27.193  11.2670  0.00  0.00     0.000 OA
ENDBRANCH 38 47
BRANCH 41 51
ATOM     51   C  SGN C   3      33.624  29.055  12.2950  0.00  0.00     0.000 C
ATOM     52   O  SGN C   3      36.327  31.354  11.1590  0.00  0.00     0.000 OA
ATOM     53   O  SGN C   3      36.405  29.592  12.7780  0.00  0.00     0.000 OA
ATOM     54   O  SGN C   3      35.981  29.102  10.4660  0.00  0.00     0.000 OA
ATOM     55   O  SGN C   3      34.304  30.220  11.8830  0.00  0.00     0.000 O
ATOM     56   S  SGN C   3      35.904  30.049  11.5390  0.00  0.00     0.000 S
ENDBRANCH 41 51
BRANCH 37 57
ATOM     57  O4  IDS C   4      30.135  30.688  11.1110  0.00  0.00     0.000 O
BRANCH 57 61
ATOM     58  C1  IDS C   4      29.849  33.495   8.5600  0.00  0.00     0.000 C
ATOM     59  C2  IDS C   4      29.455  32.111   8.1510  0.00  0.00     0.000 C
ATOM     60  C3  IDS C   4      30.398  31.040   8.7060  0.00  0.00     0.000 C
ATOM     61  C4  IDS C   4      30.965  31.286  10.0970  0.00  0.00     0.000 C
ATOM     62  C5  IDS C   4      31.146  32.787  10.3520  0.00  0.00     0.000 C
ATOM     63  O5  IDS C   4      29.997  33.529   9.9690  0.00  0.00     0.000 O
ATOM     64   O  IDS C   4      31.475  30.981   7.7900  0.00  0.00     0.000 O
ATOM     66  HD  IDS C   4      32.204  31.264   8.1600  0.00  0.00     0.000 HD
BRANCH 59 66
ATOM     66   O  IDS C   4      28.103  31.767   8.6320  0.00  0.00     0.000 O
ATOM     67   S  IDS C   4      27.001  31.495   7.5170  0.00  0.00     0.000 S
ATOM     68   O  IDS C   4      27.489  30.309   6.8550  0.00  0.00     0.000 OA
ATOM     69   O  IDS C   4      25.763  31.319   8.2510  0.00  0.00     0.000 OA
ATOM     70   O  IDS C   4      26.997  32.644   6.6260  0.00  0.00     0.000 OA
ENDBRANCH 59 66
BRANCH 62 71
ATOM     71   C  IDS C   4      31.377  33.118  11.8140  0.00  0.00     0.000 C
ATOM     72   O  IDS C   4      30.495  33.640  12.4690  0.00  0.00     0.000 OA
ATOM     73   O  IDS C   4      32.516  32.939  12.2910  0.00  0.00     0.000 OA
ENDBRANCH 62 71
BRANCH 58 74
ATOM     74  O4  SGN C   5      30.800  34.077   7.7750  0.00  0.00     0.000 O
BRANCH 74 78
ATOM     75  C1  SGN C   5      32.238  37.633   6.1220  0.00  0.00     0.000 C
ATOM     76  C2  SGN C   5      32.150  37.589   7.6600  0.00  0.00     0.000 C
ATOM     77  C3  SGN C   5      31.944  36.150   8.1510  0.00  0.00     0.000 C
ATOM     78  C4  SGN C   5      30.833  35.449   7.3810  0.00  0.00     0.000 C
ATOM     79  C5  SGN C   5      31.096  35.570   5.8880  0.00  0.00     0.000 C
ATOM     80  O5  SGN C   5      31.135  36.973   5.5140  0.00  0.00     0.000 O
ATOM     81   O  SGN C   5      31.649  36.176   9.5430  0.00  0.00     0.000 O
ATOM     83  HD  SGN C   5      32.028  36.742  10.0780  0.00  0.00     0.000 HD
BRANCH 76 85
ATOM     83   N  SGN C   5      33.273  38.122   8.4410  0.00  0.00     0.000 N
ATOM     85  HD  SGN C   5      33.630  38.708   8.9690  0.00  0.00     0.000 HD
ATOM     85   S  SGN C   5      33.763  39.646   8.6200  0.00  0.00     0.000 S
ATOM     86   O  SGN C   5      34.872  39.710   9.5070  0.00  0.00     0.000 OA
ATOM     87   O  SGN C   5      33.944  40.183   7.3190  0.00  0.00     0.000 OA
ATOM     88   O  SGN C   5      32.495  40.148   9.3070  0.00  0.00     0.000 OA
ENDBRANCH 76 85
BRANCH 79 89
ATOM     89   C  SGN C   5      30.053  34.879   5.0330  0.00  0.00     0.000 C
ATOM     90   O  SGN C   5      30.696  34.205   3.9240  0.00  0.00     0.000 O
ATOM     91   S  SGN C   5      29.994  32.865   3.3880  0.00  0.00     0.000 S
ATOM     92   O  SGN C   5      29.807  32.018   4.5370  0.00  0.00     0.000 OA
ATOM     93   O  SGN C   5      28.746  33.254   2.7830  0.00  0.00     0.000 OA
ATOM     94   O  SGN C   5      30.946  32.348   2.4440  0.00  0.00     0.000 OA
ENDBRANCH 79 89
BRANCH 75 95
ATOM     95  O4  BDP C   6      33.396  36.985   5.7980  0.00  0.00     0.000 O
BRANCH 95 99
ATOM     96  C1  BDP C   6      35.960  37.629   2.4130  0.00  0.00     0.000 C
ATOM     97  C2  BDP C   6      35.056  38.745   2.8560  0.00  0.00     0.000 C
ATOM     98  C3  BDP C   6      34.476  38.568   4.2670  0.00  0.00     0.000 C
ATOM     99  C4  BDP C   6      33.895  37.175   4.4560  0.00  0.00     0.000 C
ATOM    100  C5  BDP C   6      34.954  36.148   3.9910  0.00  0.00     0.000 C
ATOM    101  O5  BDP C   6      35.159  36.479   2.6080  0.00  0.00     0.000 O
BRANCH 100 102
ATOM    102   C  BDP C   6      34.456  34.727   4.0600  0.00  0.00     0.000 C
ATOM    103   O  BDP C   6      33.881  34.180   3.1090  0.00  0.00     0.000 OA
ATOM    104   O  BDP C   6      34.659  34.114   5.1150  0.00  0.00     0.000 OA
ENDBRANCH 100 102
ENDBRANCH 95 99
ENDBRANCH 75 95
ENDBRANCH 74 78
ENDBRANCH 58 74
ENDBRANCH 57 61
ENDBRANCH 37 57
ENDBRANCH 36 40
ENDBRANCH 23 36
ENDBRANCH 22 26
ENDBRANCH 1 22
TORSDOF 20
ENDMDL
MODEL 75
REMARK VINA RESULT:      -5.3     21.430     29.069
ROOT
ATOM      1  C1  NGY C   1      23.248  16.925  56.8040  0.00  0.00     0.000 C
ATOM      2  C2  NGY C   1      23.688  18.147  57.5990  0.00  0.00     0.000 C
ATOM      3  C3  NGY C   1      24.310  17.720  58.9250  0.00  0.00     0.000 C
ATOM      4  C4  NGY C   1      23.317  16.833  59.6520  0.00  0.00     0.000 C
ATOM      5  C5  NGY C   1      23.027  15.610  58.7860  0.00  0.00     0.000 C
ATOM      6  O5  NGY C   1      22.416  16.063  57.5500  0.00  0.00     0.000 O
ATOM      7   O  NGY C   1      24.644  18.876  59.6780  0.00  0.00     0.000 O
ATOM      9  HD  NGY C   1      24.314  19.665  59.8140  0.00  0.00     0.000 HD
ATOM      9   O  NGY C   1      23.827  16.428  60.9140  0.00  0.00     0.000 O
ATOM     11  HD  NGY C   1      23.497  17.217  61.0510  0.00  0.00     0.000 HD
ENDROOT
BRANCH 2 13
ATOM     11   N  NGY C   1      24.292  19.451  57.7350  0.00  0.00     0.000 N
ATOM     13  HD  NGY C   1      24.279  19.692  56.9030  0.00  0.00     0.000 HD
ATOM     13   C  NGY C   1      24.496  20.240  56.6800  0.00  0.00     0.000 C
ATOM     14   O  NGY C   1      24.308  19.830  55.5330  0.00  0.00     0.000 OA
ATOM     15   C  NGY C   1      24.933  21.644  56.9650  0.00  0.00     0.000 C
ENDBRANCH 2 13
BRANCH 5 16
ATOM     16   C  NGY C   1      22.065  14.628  59.3760  0.00  0.00     0.000 C
ATOM     17   O  NGY C   1      18.779  15.538  60.7300  0.00  0.00     0.000 OA
ATOM     18   O  NGY C   1      20.995  15.348  59.9940  0.00  0.00     0.000 O
ATOM     19   S  NGY C   1      19.688  14.520  60.2670  0.00  0.00     0.000 S
ATOM     20   O  NGY C   1      20.000  13.557  61.2910  0.00  0.00     0.000 OA
ATOM     21   O  NGY C   1      19.361  13.918  58.9850  0.00  0.00     0.000 OA
ENDBRANCH 5 16
BRANCH 1 22
ATOM     22  O4  BDP C   2      24.345  16.302  56.3250  0.00  0.00     0.000 O
BRANCH 22 26
ATOM     23  C1  BDP C   2      25.869  13.911  53.3370  0.00  0.00     0.000 C
ATOM     24  C2  BDP C   2      24.552  14.582  53.0250  0.00  0.00     0.000 C
ATOM     25  C3  BDP C   2      24.299  15.685  54.0180  0.00  0.00     0.000 C
ATOM     26  C4  BDP C   2      24.412  15.151  55.4420  0.00  0.00     0.000 C
ATOM     27  C5  BDP C   2      25.695  14.344  55.5910  0.00  0.00     0.000 C
ATOM     28  O5  BDP C   2      25.788  13.257  54.6350  0.00  0.00     0.000 O
ATOM     29   O  BDP C   2      24.571  15.258  51.7670  0.00  0.00     0.000 O
ATOM     31  HD  BDP C   2      24.123  15.997  51.7190  0.00  0.00     0.000 HD
ATOM     31   O  BDP C   2      22.981  16.163  53.7780  0.00  0.00     0.000 O
ATOM     33  HD  BDP C   2      22.533  16.903  53.7290  0.00  0.00     0.000 HD
BRANCH 27 33
ATOM     33   C  BDP C   2      25.819  13.704  56.9530  0.00  0.00     0.000 C
ATOM     34   O  BDP C   2      25.336  12.574  57.2040  0.00  0.00     0.000 OA
ATOM     35   O  BDP C   2      26.379  14.329  57.8390  0.00  0.00     0.000 OA
ENDBRANCH 27 33
BRANCH 23 36
ATOM     36  O4  SGN C   3      26.275  12.985  52.4380  0.00  0.00     0.000 O
BRANCH 36 40
ATOM     37  C1  SGN C   3      29.532  11.386  50.3720  0.00  0.00     0.000 C
ATOM     38  C2  SGN C   3      29.347  10.975  51.8410  0.00  0.00     0.000 C
ATOM     39  C3  SGN C   3      27.928  11.272  52.3020  0.00  0.00     0.000 C
ATOM     40  C4  SGN C   3      27.636  12.739  52.0720  0.00  0.00     0.000 C
ATOM     41  C5  SGN C   3      27.865  13.059  50.6120  0.00  0.00     0.000 C
ATOM     42  O5  SGN C   3      29.227  12.768  50.2590  0.00  0.00     0.000 O
ATOM     43   O  SGN C   3      27.802  10.937  53.6790  0.00  0.00     0.000 O
ATOM     45  HD  SGN C   3      27.241  11.564  53.4750  0.00  0.00     0.000 HD
BRANCH 38 47
ATOM     45   N  SGN C   3      30.802  10.744  51.8790  0.00  0.00     0.000 N
ATOM     47  HD  SGN C   3      30.142  11.304  51.9130  0.00  0.00     0.000 HD
ATOM     47   S  SGN C   3      31.158   9.210  52.0920  0.00  0.00     0.000 S
ATOM     48   O  SGN C   3      30.750   8.756  53.3740  0.00  0.00     0.000 OA
ATOM     49   O  SGN C   3      30.631   8.509  50.9670  0.00  0.00     0.000 OA
ATOM     50   O  SGN C   3      32.619   9.238  52.0730  0.00  0.00     0.000 OA
ENDBRANCH 38 47
BRANCH 41 51
ATOM     51   C  SGN C   3      27.604  14.495  50.2480  0.00  0.00     0.000 C
ATOM     52   O  SGN C   3      25.319  15.769  47.5950  0.00  0.00     0.000 OA
ATOM     53   O  SGN C   3      25.864  16.721  49.7230  0.00  0.00     0.000 OA
ATOM     54   O  SGN C   3      27.548  16.487  48.0280  0.00  0.00     0.000 OA
ATOM     55   O  SGN C   3      26.635  14.536  49.2240  0.00  0.00     0.000 O
ATOM     56   S  SGN C   3      26.313  16.018  48.5830  0.00  0.00     0.000 S
ENDBRANCH 41 51
BRANCH 37 57
ATOM     57  O4  IDS C   4      28.756  10.708  49.4920  0.00  0.00     0.000 O
BRANCH 57 61
ATOM     58  C1  IDS C   4      30.002   9.466  46.1190  0.00  0.00     0.000 C
ATOM     59  C2  IDS C   4      30.929  10.266  46.9770  0.00  0.00     0.000 C
ATOM     60  C3  IDS C   4      30.228  11.432  47.6800  0.00  0.00     0.000 C
ATOM     61  C4  IDS C   4      28.796  11.189  48.1350  0.00  0.00     0.000 C
ATOM     62  C5  IDS C   4      28.081  10.218  47.1880  0.00  0.00     0.000 C
ATOM     63  O5  IDS C   4      28.881   9.081  46.8970  0.00  0.00     0.000 O
ATOM     64   O  IDS C   4      30.223  12.487  46.7370  0.00  0.00     0.000 O
ATOM     66  HD  IDS C   4      29.415  12.661  46.4800  0.00  0.00     0.000 HD
BRANCH 59 66
ATOM     66   O  IDS C   4      31.535   9.441  48.0390  0.00  0.00     0.000 O
ATOM     67   S  IDS C   4      33.123   9.344  48.0460  0.00  0.00     0.000 S
ATOM     68   O  IDS C   4      33.534  10.699  48.3270  0.00  0.00     0.000 OA
ATOM     69   O  IDS C   4      33.434   8.383  49.0850  0.00  0.00     0.000 OA
ATOM     70   O  IDS C   4      33.534   8.925  46.7150  0.00  0.00     0.000 OA
ENDBRANCH 59 66
BRANCH 62 71
ATOM     71   C  IDS C   4      26.787   9.672  47.7610  0.00  0.00     0.000 C
ATOM     72   O  IDS C   4      26.730   8.522  48.1510  0.00  0.00     0.000 OA
ATOM     73   O  IDS C   4      25.770  10.393  47.7240  0.00  0.00     0.000 OA
ENDBRANCH 62 71
BRANCH 58 74
ATOM     74  O4  SGN C   5      29.803   9.964  44.8660  0.00  0.00     0.000 O
BRANCH 74 78
ATOM     75  C1  SGN C   5      29.344   9.049  40.8170  0.00  0.00     0.000 C
ATOM     76  C2  SGN C   5      28.052   9.070  41.6560  0.00  0.00     0.000 C
ATOM     77  C3  SGN C   5      28.298   9.742  43.0130  0.00  0.00     0.000 C
ATOM     78  C4  SGN C   5      29.546   9.194  43.6920  0.00  0.00     0.000 C
ATOM     79  C5  SGN C   5      30.722   9.273  42.7300  0.00  0.00     0.000 C
ATOM     80  O5  SGN C   5      30.431   8.491  41.5420  0.00  0.00     0.000 O
ATOM     81   O  SGN C   5      27.154   9.547  43.8380  0.00  0.00     0.000 O
ATOM     83  HD  SGN C   5      26.351   9.561  43.5130  0.00  0.00     0.000 HD
BRANCH 76 85
ATOM     83   N  SGN C   5      27.182   8.562  40.5870  0.00  0.00     0.000 N
ATOM     85  HD  SGN C   5      26.731   8.658  39.8540  0.00  0.00     0.000 HD
ATOM     85   S  SGN C   5      25.929   9.269  39.8650  0.00  0.00     0.000 S
ATOM     86   O  SGN C   5      25.402   8.428  38.8470  0.00  0.00     0.000 OA
ATOM     87   O  SGN C   5      25.035   9.684  40.8870  0.00  0.00     0.000 OA
ATOM     88   O  SGN C   5      26.719  10.423  39.2530  0.00  0.00     0.000 OA
ENDBRANCH 76 85
BRANCH 79 89
ATOM     89   C  SGN C   5      32.023   8.771  43.3250  0.00  0.00     0.000 C
ATOM     90   O  SGN C   5      32.486   7.616  42.5830  0.00  0.00     0.000 O
ATOM     91   S  SGN C   5      34.075   7.407  42.4920  0.00  0.00     0.000 S
ATOM     92   O  SGN C   5      34.620   8.649  42.0090  0.00  0.00     0.000 OA
ATOM     93   O  SGN C   5      34.536   7.082  43.8180  0.00  0.00     0.000 OA
ATOM     94   O  SGN C   5      34.213   6.321  41.5610  0.00  0.00     0.000 OA
ENDBRANCH 79 89
BRANCH 75 95
ATOM     95  O4  BDP C   6      29.614  10.354  40.5160  0.00  0.00     0.000 O
BRANCH 95 99
ATOM     96  C1  BDP C   6      31.216  11.739  36.7800  0.00  0.00     0.000 C
ATOM     97  C2  BDP C   6      30.824  10.294  36.9060  0.00  0.00     0.000 C
ATOM     98  C3  BDP C   6      29.925   9.984  38.1120  0.00  0.00     0.000 C
ATOM     99  C4  BDP C   6      30.482  10.597  39.3880  0.00  0.00     0.000 C
ATOM    100  C5  BDP C   6      30.799  12.084  39.1040  0.00  0.00     0.000 C
ATOM    101  O5  BDP C   6      31.773  12.025  38.0500  0.00  0.00     0.000 O
BRANCH 100 102
ATOM    102   C  BDP C   6      31.433  12.779  40.2830  0.00  0.00     0.000 C
ATOM    103   O  BDP C   6      32.646  12.700  40.5240  0.00  0.00     0.000 OA
ATOM    104   O  BDP C   6      30.685  13.451  41.0040  0.00  0.00     0.000 OA
ENDBRANCH 100 102
ENDBRANCH 95 99
ENDBRANCH 75 95
ENDBRANCH 74 78
ENDBRANCH 58 74
ENDBRANCH 57 61
ENDBRANCH 37 57
ENDBRANCH 36 40
ENDBRANCH 23 36
ENDBRANCH 22 26
ENDBRANCH 1 22
TORSDOF 20
ENDMDL
MODEL 76
REMARK VINA RESULT:      -5.3     16.968     25.551
ROOT
ATOM      1  C1  NGY C   1      24.179  16.664  42.8080  0.00  0.00     0.000 C
ATOM      2  C2  NGY C   1      24.369  16.940  41.3230  0.00  0.00     0.000 C
ATOM      3  C3  NGY C   1      24.712  15.650  40.5850  0.00  0.00     0.000 C
ATOM      4  C4  NGY C   1      25.920  15.024  41.2570  0.00  0.00     0.000 C
ATOM      5  C5  NGY C   1      25.570  14.723  42.7110  0.00  0.00     0.000 C
ATOM      6  O5  NGY C   1      25.275  15.979  43.3770  0.00  0.00     0.000 O
ATOM      7   O  NGY C   1      24.955  15.945  39.2170  0.00  0.00     0.000 O
ATOM      9  HD  NGY C   1      25.316  16.584  38.7580  0.00  0.00     0.000 HD
ATOM      9   O  NGY C   1      26.310  13.832  40.5920  0.00  0.00     0.000 O
ATOM     11  HD  NGY C   1      26.671  14.471  40.1320  0.00  0.00     0.000 HD
ENDROOT
BRANCH 2 13
ATOM     11   N  NGY C   1      23.192  17.463  40.6700  0.00  0.00     0.000 N
ATOM     13  HD  NGY C   1      23.528  18.197  40.3550  0.00  0.00     0.000 HD
ATOM     13   C  NGY C   1      23.213  18.626  40.0200  0.00  0.00     0.000 C
ATOM     14   O  NGY C   1      24.196  19.367  40.0730  0.00  0.00     0.000 OA
ATOM     15   C  NGY C   1      22.000  18.965  39.2090  0.00  0.00     0.000 C
ENDBRANCH 2 13
BRANCH 5 16
ATOM     16   C  NGY C   1      26.664  14.090  43.5100  0.00  0.00     0.000 C
ATOM     17   O  NGY C   1      26.688  10.563  44.5180  0.00  0.00     0.000 OA
ATOM     18   O  NGY C   1      26.248  12.779  43.9020  0.00  0.00     0.000 O
ATOM     19   S  NGY C   1      27.397  11.806  44.3480  0.00  0.00     0.000 S
ATOM     20   O  NGY C   1      27.924  12.310  45.5890  0.00  0.00     0.000 OA
ATOM     21   O  NGY C   1      28.353  11.842  43.2540  0.00  0.00     0.000 OA
ENDBRANCH 5 16
BRANCH 1 22
ATOM     22  O4  BDP C   2      23.011  16.010  42.9830  0.00  0.00     0.000 O
BRANCH 22 26
ATOM     23  C1  BDP C   2      19.618  15.268  45.1960  0.00  0.00     0.000 C
ATOM     24  C2  BDP C   2      19.978  16.725  45.0280  0.00  0.00     0.000 C
ATOM     25  C3  BDP C   2      20.992  16.871  43.9230  0.00  0.00     0.000 C
ATOM     26  C4  BDP C   2      22.183  15.952  44.1740  0.00  0.00     0.000 C
ATOM     27  C5  BDP C   2      21.692  14.549  44.5040  0.00  0.00     0.000 C
ATOM     28  O5  BDP C   2      20.788  14.523  45.6380  0.00  0.00     0.000 O
ATOM     29   O  BDP C   2      18.874  17.511  44.5780  0.00  0.00     0.000 O
ATOM     31  HD  BDP C   2      19.057  18.158  44.0330  0.00  0.00     0.000 HD
ATOM     31   O  BDP C   2      21.414  18.229  43.9260  0.00  0.00     0.000 O
ATOM     33  HD  BDP C   2      21.596  18.877  43.3810  0.00  0.00     0.000 HD
BRANCH 27 33
ATOM     33   C  BDP C   2      22.821  13.611  44.8590  0.00  0.00     0.000 C
ATOM     34   O  BDP C   2      23.653  13.881  45.7580  0.00  0.00     0.000 OA
ATOM     35   O  BDP C   2      22.938  12.577  44.2220  0.00  0.00     0.000 OA
ENDBRANCH 27 33
BRANCH 23 36
ATOM     36  O4  SGN C   3      18.617  15.016  46.0720  0.00  0.00     0.000 O
BRANCH 36 40
ATOM     37  C1  SGN C   3      15.203  12.732  46.8200  0.00  0.00     0.000 C
ATOM     38  C2  SGN C   3      16.568  12.101  47.1390  0.00  0.00     0.000 C
ATOM     39  C3  SGN C   3      17.642  13.175  47.2310  0.00  0.00     0.000 C
ATOM     40  C4  SGN C   3      17.658  13.963  45.9390  0.00  0.00     0.000 C
ATOM     41  C5  SGN C   3      16.275  14.526  45.6940  0.00  0.00     0.000 C
ATOM     42  O5  SGN C   3      15.325  13.453  45.6030  0.00  0.00     0.000 O
ATOM     43   O  SGN C   3      18.902  12.559  47.4670  0.00  0.00     0.000 O
ATOM     45  HD  SGN C   3      19.015  13.311  47.0520  0.00  0.00     0.000 HD
BRANCH 38 47
ATOM     45   N  SGN C   3      15.930  10.790  46.9280  0.00  0.00     0.000 N
ATOM     47  HD  SGN C   3      16.294  11.498  46.5860  0.00  0.00     0.000 HD
ATOM     47   S  SGN C   3      15.861   9.938  48.2680  0.00  0.00     0.000 S
ATOM     48   O  SGN C   3      17.157   9.570  48.7160  0.00  0.00     0.000 OA
ATOM     49   O  SGN C   3      15.053  10.678  49.1820  0.00  0.00     0.000 OA
ATOM     50   O  SGN C   3      15.185   8.724  47.8140  0.00  0.00     0.000 OA
ENDBRANCH 38 47
BRANCH 41 51
ATOM     51   C  SGN C   3      16.157  15.340  44.4340  0.00  0.00     0.000 C
ATOM     52   O  SGN C   3      13.475  15.127  41.8560  0.00  0.00     0.000 OA
ATOM     53   O  SGN C   3      14.715  17.030  42.6120  0.00  0.00     0.000 OA
ATOM     54   O  SGN C   3      15.823  15.232  41.4710  0.00  0.00     0.000 OA
ATOM     55   O  SGN C   3      14.968  14.977  43.7680  0.00  0.00     0.000 O
ATOM     56   S  SGN C   3      14.724  15.655  42.2880  0.00  0.00     0.000 S
ENDBRANCH 41 51
BRANCH 37 57
ATOM     57  O4  IDS C   4      14.736  13.579  47.7690  0.00  0.00     0.000 O
BRANCH 57 61
ATOM     58  C1  IDS C   4      10.959  13.709  48.2080  0.00  0.00     0.000 C
ATOM     59  C2  IDS C   4      11.520  12.981  47.0280  0.00  0.00     0.000 C
ATOM     60  C3  IDS C   4      12.714  13.704  46.4000  0.00  0.00     0.000 C
ATOM     61  C4  IDS C   4      13.650  14.431  47.3560  0.00  0.00     0.000 C
ATOM     62  C5  IDS C   4      12.880  14.965  48.5690  0.00  0.00     0.000 C
ATOM     63  O5  IDS C   4      12.013  13.983  49.1170  0.00  0.00     0.000 O
ATOM     64   O  IDS C   4      12.151  14.656  45.5170  0.00  0.00     0.000 O
ATOM     66  HD  IDS C   4      12.306  15.460  45.7990  0.00  0.00     0.000 HD
BRANCH 59 66
ATOM     66   O  IDS C   4      11.994  11.633  47.3980  0.00  0.00     0.000 O
ATOM     67   S  IDS C   4      11.801  10.489  46.3090  0.00  0.00     0.000 S
ATOM     68   O  IDS C   4      12.655  10.917  45.2270  0.00  0.00     0.000 OA
ATOM     69   O  IDS C   4      12.219   9.269  46.9720  0.00  0.00     0.000 OA
ATOM     70   O  IDS C   4      10.399  10.497  45.9210  0.00  0.00     0.000 OA
ENDBRANCH 59 66
BRANCH 62 71
ATOM     71   C  IDS C   4      13.786  15.391  49.7080  0.00  0.00     0.000 C
ATOM     72   O  IDS C   4      14.497  16.370  49.5890  0.00  0.00     0.000 OA
ATOM     73   O  IDS C   4      13.859  14.659  50.7150  0.00  0.00     0.000 OA
ENDBRANCH 62 71
BRANCH 58 74
ATOM     74  O4  SGN C   5      10.068  14.695  47.9050  0.00  0.00     0.000 O
BRANCH 74 78
ATOM     75  C1  SGN C   5       7.167  17.271  49.4520  0.00  0.00     0.000 C
ATOM     76  C2  SGN C   5       8.569  17.876  49.2480  0.00  0.00     0.000 C
ATOM     77  C3  SGN C   5       9.433  16.959  48.3730  0.00  0.00     0.000 C
ATOM     78  C4  SGN C   5       9.375  15.514  48.8470  0.00  0.00     0.000 C
ATOM     79  C5  SGN C   5       7.922  15.078  48.9680  0.00  0.00     0.000 C
ATOM     80  O5  SGN C   5       7.237  15.931  49.9230  0.00  0.00     0.000 O
ATOM     81   O  SGN C   5      10.775  17.436  48.3890  0.00  0.00     0.000 O
ATOM     83  HD  SGN C   5      10.956  18.283  48.4000  0.00  0.00     0.000 HD
BRANCH 76 85
ATOM     83   N  SGN C   5       8.477  19.193  48.6040  0.00  0.00     0.000 N
ATOM     85  HD  SGN C   5       8.654  20.039  48.5610  0.00  0.00     0.000 HD
ATOM     85   S  SGN C   5       8.264  20.644  49.2690  0.00  0.00     0.000 S
ATOM     86   O  SGN C   5       8.283  21.656  48.2700  0.00  0.00     0.000 OA
ATOM     87   O  SGN C   5       7.107  20.564  50.0860  0.00  0.00     0.000 OA
ATOM     88   O  SGN C   5       9.565  20.653  50.0670  0.00  0.00     0.000 OA
ENDBRANCH 76 85
BRANCH 79 89
ATOM     89   C  SGN C   5       7.758  13.638  49.4120  0.00  0.00     0.000 C
ATOM     90   O  SGN C   5       6.676  13.018  48.6750  0.00  0.00     0.000 O
ATOM     91   S  SGN C   5       6.807  11.444  48.3890  0.00  0.00     0.000 S
ATOM     92   O  SGN C   5       8.096  11.249  47.7780  0.00  0.00     0.000 OA
ATOM     93   O  SGN C   5       6.692  10.772  49.6580  0.00  0.00     0.000 OA
ATOM     94   O  SGN C   5       5.707  11.177  47.5030  0.00  0.00     0.000 OA
ENDBRANCH 79 89
BRANCH 75 95
ATOM     95  O4  BDP C   6       6.569  17.295  48.2240  0.00  0.00     0.000 O
BRANCH 95 99
ATOM     96  C1  BDP C   6       2.436  18.293  47.6130  0.00  0.00     0.000 C
ATOM     97  C2  BDP C   6       2.990  18.338  49.0090  0.00  0.00     0.000 C
ATOM     98  C3  BDP C   6       4.525  18.346  49.0810  0.00  0.00     0.000 C
ATOM     99  C4  BDP C   6       5.125  17.259  48.2020  0.00  0.00     0.000 C
ATOM    100  C5  BDP C   6       4.481  17.369  46.8000  0.00  0.00     0.000 C
ATOM    101  O5  BDP C   6       3.083  17.164  47.0550  0.00  0.00     0.000 O
BRANCH 100 102
ATOM    102   C  BDP C   6       4.946  16.286  45.8590  0.00  0.00     0.000 C
ATOM    103   O  BDP C   6       6.102  15.841  45.8830  0.00  0.00     0.000 OA
ATOM    104   O  BDP C   6       4.113  15.845  45.0600  0.00  0.00     0.000 OA
ENDBRANCH 100 102
ENDBRANCH 95 99
ENDBRANCH 75 95
ENDBRANCH 74 78
ENDBRANCH 58 74
ENDBRANCH 57 61
ENDBRANCH 37 57
ENDBRANCH 36 40
ENDBRANCH 23 36
ENDBRANCH 22 26
ENDBRANCH 1 22
TORSDOF 20
ENDMDL
MODEL 77
REMARK VINA RESULT:      -5.3     34.208     38.235
ROOT
ATOM      1  C1  NGY C   1      19.238  13.410  64.8190  0.00  0.00     0.000 C
ATOM      2  C2  NGY C   1      18.231  13.017  65.8910  0.00  0.00     0.000 C
ATOM      3  C3  NGY C   1      16.901  12.631  65.2510  0.00  0.00     0.000 C
ATOM      4  C4  NGY C   1      16.449  13.777  64.3660  0.00  0.00     0.000 C
ATOM      5  C5  NGY C   1      17.505  14.012  63.2900  0.00  0.00     0.000 C
ATOM      6  O5  NGY C   1      18.741  14.399  63.9430  0.00  0.00     0.000 O
ATOM      7   O  NGY C   1      15.958  12.340  66.2720  0.00  0.00     0.000 O
ATOM      9  HD  NGY C   1      15.764  12.635  67.0620  0.00  0.00     0.000 HD
ATOM      9   O  NGY C   1      15.194  13.490  63.7650  0.00  0.00     0.000 O
ATOM     11  HD  NGY C   1      14.999  13.785  64.5560  0.00  0.00     0.000 HD
ENDROOT
BRANCH 2 13
ATOM     11   N  NGY C   1      18.690  11.896  66.6760  0.00  0.00     0.000 N
ATOM     13  HD  NGY C   1      18.596  12.238  67.4660  0.00  0.00     0.000 HD
ATOM     13   C  NGY C   1      18.734  11.947  68.0070  0.00  0.00     0.000 C
ATOM     14   O  NGY C   1      18.520  12.999  68.6120  0.00  0.00     0.000 OA
ATOM     15   C  NGY C   1      19.025  10.662  68.7200  0.00  0.00     0.000 C
ENDBRANCH 2 13
BRANCH 5 16
ATOM     16   C  NGY C   1      17.195  15.112  62.3260  0.00  0.00     0.000 C
ATOM     17   O  NGY C   1      16.889  18.643  63.2760  0.00  0.00     0.000 OA
ATOM     18   O  NGY C   1      16.938  16.311  63.0630  0.00  0.00     0.000 O
ATOM     19   S  NGY C   1      17.037  17.648  62.2440  0.00  0.00     0.000 S
ATOM     20   O  NGY C   1      15.940  17.657  61.3120  0.00  0.00     0.000 OA
ATOM     21   O  NGY C   1      18.341  17.590  61.6050  0.00  0.00     0.000 OA
ENDBRANCH 5 16
BRANCH 1 22
ATOM     22  O4  BDP C   2      19.639  12.296  64.1710  0.00  0.00     0.000 O
BRANCH 22 26
ATOM     23  C1  BDP C   2      22.759  10.348  62.3180  0.00  0.00     0.000 C
ATOM     24  C2  BDP C   2      23.155  11.464  63.2550  0.00  0.00     0.000 C
ATOM     25  C3  BDP C   2      21.982  11.835  64.1240  0.00  0.00     0.000 C
ATOM     26  C4  BDP C   2      20.761  12.138  63.2630  0.00  0.00     0.000 C
ATOM     27  C5  BDP C   2      20.562  11.028  62.2390  0.00  0.00     0.000 C
ATOM     28  O5  BDP C   2      21.730  10.820  61.4040  0.00  0.00     0.000 O
ATOM     29   O  BDP C   2      24.154  11.060  64.1920  0.00  0.00     0.000 O
ATOM     31  HD  BDP C   2      24.098  11.398  64.9870  0.00  0.00     0.000 HD
ATOM     31   O  BDP C   2      22.361  12.991  64.8600  0.00  0.00     0.000 O
ATOM     33  HD  BDP C   2      22.305  13.329  65.6550  0.00  0.00     0.000 HD
BRANCH 27 33
ATOM     33   C  BDP C   2      19.425  11.316  61.2880  0.00  0.00     0.000 C
ATOM     34   O  BDP C   2      19.600  11.923  60.2040  0.00  0.00     0.000 OA
ATOM     35   O  BDP C   2      18.298  10.975  61.6100  0.00  0.00     0.000 OA
ENDBRANCH 27 33
BRANCH 23 36
ATOM     36  O4  SGN C   3      23.765   9.834  61.5720  0.00  0.00     0.000 O
BRANCH 36 40
ATOM     37  C1  SGN C   3      25.431   6.374  59.9360  0.00  0.00     0.000 C
ATOM     38  C2  SGN C   3      24.038   6.798  59.4430  0.00  0.00     0.000 C
ATOM     39  C3  SGN C   3      23.773   8.256  59.7850  0.00  0.00     0.000 C
ATOM     40  C4  SGN C   3      23.940   8.446  61.2770  0.00  0.00     0.000 C
ATOM     41  C5  SGN C   3      25.324   7.984  61.6760  0.00  0.00     0.000 C
ATOM     42  O5  SGN C   3      25.490   6.599  61.3350  0.00  0.00     0.000 O
ATOM     43   O  SGN C   3      22.458   8.604  59.3710  0.00  0.00     0.000 O
ATOM     45  HD  SGN C   3      22.698   9.100  60.0390  0.00  0.00     0.000 HD
BRANCH 38 47
ATOM     45   N  SGN C   3      24.082   5.370  59.0800  0.00  0.00     0.000 N
ATOM     47  HD  SGN C   3      24.089   5.975  59.6990  0.00  0.00     0.000 HD
ATOM     47   S  SGN C   3      23.646   5.124  57.5710  0.00  0.00     0.000 S
ATOM     48   O  SGN C   3      22.277   5.441  57.3690  0.00  0.00     0.000 OA
ATOM     49   O  SGN C   3      24.590   5.814  56.7550  0.00  0.00     0.000 OA
ATOM     50   O  SGN C   3      23.791   3.674  57.4530  0.00  0.00     0.000 OA
ENDBRANCH 38 47
BRANCH 41 51
ATOM     51   C  SGN C   3      25.621   8.125  63.1440  0.00  0.00     0.000 C
ATOM     52   O  SGN C   3      23.852   6.466  65.9720  0.00  0.00     0.000 OA
ATOM     53   O  SGN C   3      26.162   7.053  65.7550  0.00  0.00     0.000 OA
ATOM     54   O  SGN C   3      24.474   8.759  65.8240  0.00  0.00     0.000 OA
ATOM     55   O  SGN C   3      24.748   7.287  63.8680  0.00  0.00     0.000 O
ATOM     56   S  SGN C   3      24.816   7.404  65.5080  0.00  0.00     0.000 S
ENDBRANCH 41 51
BRANCH 37 57
ATOM     57  O4  IDS C   4      26.462   7.036  59.3560  0.00  0.00     0.000 O
BRANCH 57 61
ATOM     58  C1  IDS C   4      29.692   7.377  57.3760  0.00  0.00     0.000 C
ATOM     59  C2  IDS C   4      28.507   6.750  56.7130  0.00  0.00     0.000 C
ATOM     60  C3  IDS C   4      27.726   5.825  57.6500  0.00  0.00     0.000 C
ATOM     61  C4  IDS C   4      27.642   6.247  59.1100  0.00  0.00     0.000 C
ATOM     62  C5  IDS C   4      28.906   7.006  59.5300  0.00  0.00     0.000 C
ATOM     63  O5  IDS C   4      29.267   7.996  58.5780  0.00  0.00     0.000 O
ATOM     64   O  IDS C   4      28.394   4.579  57.5840  0.00  0.00     0.000 O
ATOM     66  HD  IDS C   4      28.768   4.395  58.3430  0.00  0.00     0.000 HD
BRANCH 59 66
ATOM     66   O  IDS C   4      27.550   7.768  56.2380  0.00  0.00     0.000 O
ATOM     67   S  IDS C   4      27.309   7.839  54.6670  0.00  0.00     0.000 S
ATOM     68   O  IDS C   4      26.698   6.565  54.3710  0.00  0.00     0.000 OA
ATOM     69   O  IDS C   4      26.449   8.989  54.4720  0.00  0.00     0.000 OA
ATOM     70   O  IDS C   4      28.614   7.967  54.0370  0.00  0.00     0.000 OA
ENDBRANCH 59 66
BRANCH 62 71
ATOM     71   C  IDS C   4      28.747   7.743  60.8470  0.00  0.00     0.000 C
ATOM     72   O  IDS C   4      28.683   8.957  60.8620  0.00  0.00     0.000 OA
ATOM     73   O  IDS C   4      28.791   7.084  61.9050  0.00  0.00     0.000 OA
ENDBRANCH 62 71
BRANCH 58 74
ATOM     74  O4  SGN C   5      30.819   6.610  57.3840  0.00  0.00     0.000 O
BRANCH 74 78
ATOM     75  C1  SGN C   5      34.959   6.543  56.8340  0.00  0.00     0.000 C
ATOM     76  C2  SGN C   5      34.471   6.863  58.2600  0.00  0.00     0.000 C
ATOM     77  C3  SGN C   5      32.983   6.524  58.4130  0.00  0.00     0.000 C
ATOM     78  C4  SGN C   5      32.158   7.090  57.2650  0.00  0.00     0.000 C
ATOM     79  C5  SGN C   5      32.767   6.655  55.9410  0.00  0.00     0.000 C
ATOM     80  O5  SGN C   5      34.130   7.146  55.8490  0.00  0.00     0.000 O
ATOM     81   O  SGN C   5      32.519   7.033  59.6600  0.00  0.00     0.000 O
ATOM     83  HD  SGN C   5      33.018   7.024  60.3680  0.00  0.00     0.000 HD
BRANCH 76 85
ATOM     83   N  SGN C   5      35.365   6.025  59.0690  0.00  0.00     0.000 N
ATOM     85  HD  SGN C   5      35.832   5.867  59.7810  0.00  0.00     0.000 HD
ATOM     85   S  SGN C   5      36.634   6.451  59.9640  0.00  0.00     0.000 S
ATOM     86   O  SGN C   5      37.185   5.315  60.6190  0.00  0.00     0.000 OA
ATOM     87   O  SGN C   5      37.504   7.200  59.1290  0.00  0.00     0.000 OA
ATOM     88   O  SGN C   5      35.857   7.317  60.9530  0.00  0.00     0.000 OA
ENDBRANCH 76 85
BRANCH 79 89
ATOM     89   C  SGN C   5      32.000   7.150  54.7310  0.00  0.00     0.000 C
ATOM     90   O  SGN C   5      32.913   7.373  53.6290  0.00  0.00     0.000 O
ATOM     91   S  SGN C   5      32.330   7.138  52.1520  0.00  0.00     0.000 S
ATOM     92   O  SGN C   5      31.747   5.822  52.1500  0.00  0.00     0.000 OA
ATOM     93   O  SGN C   5      31.357   8.172  51.9110  0.00  0.00     0.000 OA
ATOM     94   O  SGN C   5      33.495   7.249  51.3160  0.00  0.00     0.000 OA
ENDBRANCH 79 89
BRANCH 75 95
ATOM     95  O4  BDP C   6      34.896   5.183  56.7160  0.00  0.00     0.000 O
BRANCH 95 99
ATOM     96  C1  BDP C   6      38.022   3.114  54.6200  0.00  0.00     0.000 C
ATOM     97  C2  BDP C   6      37.926   4.607  54.4810  0.00  0.00     0.000 C
ATOM     98  C3  BDP C   6      37.047   5.287  55.5410  0.00  0.00     0.000 C
ATOM     99  C4  BDP C   6      35.707   4.581  55.6830  0.00  0.00     0.000 C
ATOM    100  C5  BDP C   6      35.979   3.068  55.8530  0.00  0.00     0.000 C
ATOM    101  O5  BDP C   6      36.665   2.712  54.6420  0.00  0.00     0.000 O
BRANCH 100 102
ATOM    102   C  BDP C   6      34.712   2.254  55.9250  0.00  0.00     0.000 C
ATOM    103   O  BDP C   6      34.049   2.152  56.9680  0.00  0.00     0.000 OA
ATOM    104   O  BDP C   6      34.348   1.693  54.8850  0.00  0.00     0.000 OA
ENDBRANCH 100 102
ENDBRANCH 95 99
ENDBRANCH 75 95
ENDBRANCH 74 78
ENDBRANCH 58 74
ENDBRANCH 57 61
ENDBRANCH 37 57
ENDBRANCH 36 40
ENDBRANCH 23 36
ENDBRANCH 22 26
ENDBRANCH 1 22
TORSDOF 20
ENDMDL
MODEL 78
REMARK VINA RESULT:      -5.2      7.590     13.659
ROOT
ATOM      1  C1  NGY C   1      15.780  33.708  21.4950  0.00  0.00     0.000 C
ATOM      2  C2  NGY C   1      16.114  33.128  20.1280  0.00  0.00     0.000 C
ATOM      3  C3  NGY C   1      17.600  33.299  19.8300  0.00  0.00     0.000 C
ATOM      4  C4  NGY C   1      17.950  34.767  19.9820  0.00  0.00     0.000 C
ATOM      5  C5  NGY C   1      17.645  35.198  21.4140  0.00  0.00     0.000 C
ATOM      6  O5  NGY C   1      16.220  35.041  21.6420  0.00  0.00     0.000 O
ATOM      7   O  NGY C   1      17.873  32.818  18.5220  0.00  0.00     0.000 O
ATOM      9  HD  NGY C   1      17.477  32.806  17.7520  0.00  0.00     0.000 HD
ATOM      9   O  NGY C   1      19.319  34.997  19.6830  0.00  0.00     0.000 O
ATOM     11  HD  NGY C   1      18.923  34.985  18.9130  0.00  0.00     0.000 HD
ENDROOT
BRANCH 2 13
ATOM     11   N  NGY C   1      15.051  32.530  19.3540  0.00  0.00     0.000 N
ATOM     13  HD  NGY C   1      15.329  31.710  19.3560  0.00  0.00     0.000 HD
ATOM     13   C  NGY C   1      15.039  31.227  19.0750  0.00  0.00     0.000 C
ATOM     14   O  NGY C   1      16.004  30.509  19.3430  0.00  0.00     0.000 OA
ATOM     15   C  NGY C   1      13.790  30.685  18.4510  0.00  0.00     0.000 C
ENDBRANCH 2 13
BRANCH 5 16
ATOM     16   C  NGY C   1      17.948  36.629  21.7250  0.00  0.00     0.000 C
ATOM     17   O  NGY C   1      15.409  39.105  22.6640  0.00  0.00     0.000 OA
ATOM     18   O  NGY C   1      16.716  37.347  21.8350  0.00  0.00     0.000 O
ATOM     19   S  NGY C   1      16.797  38.726  22.5830  0.00  0.00     0.000 S
ATOM     20   O  NGY C   1      17.561  39.617  21.7510  0.00  0.00     0.000 OA
ATOM     21   O  NGY C   1      17.442  38.418  23.8490  0.00  0.00     0.000 OA
ENDBRANCH 5 16
BRANCH 1 22
ATOM     22  O4  BDP C   2      16.275  32.889  22.4470  0.00  0.00     0.000 O
BRANCH 22 26
ATOM     23  C1  BDP C   2      14.778  30.775  25.6490  0.00  0.00     0.000 C
ATOM     24  C2  BDP C   2      13.828  31.771  25.0270  0.00  0.00     0.000 C
ATOM     25  C3  BDP C   2      14.351  32.194  23.6790  0.00  0.00     0.000 C
ATOM     26  C4  BDP C   2      15.789  32.685  23.8000  0.00  0.00     0.000 C
ATOM     27  C5  BDP C   2      16.613  31.681  24.5960  0.00  0.00     0.000 C
ATOM     28  O5  BDP C   2      16.057  31.417  25.9100  0.00  0.00     0.000 O
ATOM     29   O  BDP C   2      12.555  31.198  24.7300  0.00  0.00     0.000 O
ATOM     31  HD  BDP C   2      12.161  31.479  24.0110  0.00  0.00     0.000 HD
ATOM     31   O  BDP C   2      13.511  33.247  23.2220  0.00  0.00     0.000 O
ATOM     33  HD  BDP C   2      13.118  33.529  22.5040  0.00  0.00     0.000 HD
BRANCH 27 33
ATOM     33   C  BDP C   2      18.026  32.155  24.8370  0.00  0.00     0.000 C
ATOM     34   O  BDP C   2      19.021  31.424  24.6140  0.00  0.00     0.000 OA
ATOM     35   O  BDP C   2      18.193  33.274  25.2940  0.00  0.00     0.000 OA
ENDBRANCH 27 33
BRANCH 23 36
ATOM     36  O4  SGN C   3      14.355  30.218  26.8080  0.00  0.00     0.000 O
BRANCH 36 40
ATOM     37  C1  SGN C   3      13.910  26.679  28.9780  0.00  0.00     0.000 C
ATOM     38  C2  SGN C   3      15.336  27.214  28.7690  0.00  0.00     0.000 C
ATOM     39  C3  SGN C   3      15.300  28.681  28.3660  0.00  0.00     0.000 C
ATOM     40  C4  SGN C   3      14.442  28.827  27.1280  0.00  0.00     0.000 C
ATOM     41  C5  SGN C   3      13.070  28.256  27.4150  0.00  0.00     0.000 C
ATOM     42  O5  SGN C   3      13.187  26.870  27.7720  0.00  0.00     0.000 O
ATOM     43   O  SGN C   3      16.627  29.132  28.1220  0.00  0.00     0.000 O
ATOM     45  HD  SGN C   3      16.066  29.596  27.6520  0.00  0.00     0.000 HD
BRANCH 38 47
ATOM     45   N  SGN C   3      15.674  25.798  28.9960  0.00  0.00     0.000 N
ATOM     47  HD  SGN C   3      15.333  26.401  28.4780  0.00  0.00     0.000 HD
ATOM     47   S  SGN C   3      16.680  25.612  30.2130  0.00  0.00     0.000 S
ATOM     48   O  SGN C   3      17.950  26.180  29.9270  0.00  0.00     0.000 OA
ATOM     49   O  SGN C   3      16.009  26.096  31.3750  0.00  0.00     0.000 OA
ATOM     50   O  SGN C   3      16.839  24.159  30.2490  0.00  0.00     0.000 OA
ENDBRANCH 38 47
BRANCH 41 51
ATOM     51   C  SGN C   3      12.112  28.345  26.2590  0.00  0.00     0.000 C
ATOM     52   O  SGN C   3       9.954  25.627  24.9050  0.00  0.00     0.000 OA
ATOM     53   O  SGN C   3       9.534  27.979  25.0440  0.00  0.00     0.000 OA
ATOM     54   O  SGN C   3      11.302  27.139  23.6530  0.00  0.00     0.000 OA
ATOM     55   O  SGN C   3      11.460  27.103  26.1110  0.00  0.00     0.000 O
ATOM     56   S  SGN C   3      10.471  26.949  24.8050  0.00  0.00     0.000 S
ENDBRANCH 41 51
BRANCH 37 57
ATOM     57  O4  IDS C   4      13.223  27.276  29.9820  0.00  0.00     0.000 O
BRANCH 57 61
ATOM     58  C1  IDS C   4      10.880  26.035  32.7100  0.00  0.00     0.000 C
ATOM     59  C2  IDS C   4      11.627  25.029  31.8920  0.00  0.00     0.000 C
ATOM     60  C3  IDS C   4      11.703  25.410  30.4120  0.00  0.00     0.000 C
ATOM     61  C4  IDS C   4      11.839  26.893  30.0960  0.00  0.00     0.000 C
ATOM     62  C5  IDS C   4      11.121  27.741  31.1520  0.00  0.00     0.000 C
ATOM     63  O5  IDS C   4      11.434  27.317  32.4710  0.00  0.00     0.000 O
ATOM     64   O  IDS C   4      10.494  24.942  29.8440  0.00  0.00     0.000 O
ATOM     66  HD  IDS C   4      10.001  25.608  29.5910  0.00  0.00     0.000 HD
BRANCH 59 66
ATOM     66   O  IDS C   4      13.018  24.877  32.3580  0.00  0.00     0.000 O
ATOM     67   S  IDS C   4      13.614  23.402  32.3460  0.00  0.00     0.000 S
ATOM     68   O  IDS C   4      13.637  23.067  30.9420  0.00  0.00     0.000 OA
ATOM     69   O  IDS C   4      14.919  23.521  32.9670  0.00  0.00     0.000 OA
ATOM     70   O  IDS C   4      12.687  22.558  33.0840  0.00  0.00     0.000 OA
ENDBRANCH 59 66
BRANCH 62 71
ATOM     71   C  IDS C   4      11.499  29.209  31.0940  0.00  0.00     0.000 C
ATOM     72   O  IDS C   4      12.068  29.730  32.0340  0.00  0.00     0.000 OA
ATOM     73   O  IDS C   4      11.121  29.881  30.1140  0.00  0.00     0.000 OA
ENDBRANCH 62 71
BRANCH 58 74
ATOM     74  O4  SGN C   5       9.525  25.884  32.7100  0.00  0.00     0.000 O
BRANCH 74 78
ATOM     75  C1  SGN C   5       6.008  26.008  34.9600  0.00  0.00     0.000 C
ATOM     76  C2  SGN C   5       6.603  27.372  34.5590  0.00  0.00     0.000 C
ATOM     77  C3  SGN C   5       7.670  27.199  33.4700  0.00  0.00     0.000 C
ATOM     78  C4  SGN C   5       8.660  26.099  33.8260  0.00  0.00     0.000 C
ATOM     79  C5  SGN C   5       7.902  24.825  34.1680  0.00  0.00     0.000 C
ATOM     80  O5  SGN C   5       7.024  25.072  35.2970  0.00  0.00     0.000 O
ATOM     81   O  SGN C   5       8.345  28.439  33.2860  0.00  0.00     0.000 O
ATOM     83  HD  SGN C   5       7.927  29.196  33.3350  0.00  0.00     0.000 HD
BRANCH 76 85
ATOM     83   N  SGN C   5       5.267  27.919  34.2920  0.00  0.00     0.000 N
ATOM     85  HD  SGN C   5       4.724  28.576  34.1340  0.00  0.00     0.000 HD
ATOM     85   S  SGN C   5       4.576  29.257  34.8640  0.00  0.00     0.000 S
ATOM     86   O  SGN C   5       3.281  29.428  34.3010  0.00  0.00     0.000 OA
ATOM     87   O  SGN C   5       4.664  29.201  36.2790  0.00  0.00     0.000 OA
ATOM     88   O  SGN C   5       5.567  30.235  34.2380  0.00  0.00     0.000 OA
ENDBRANCH 76 85
BRANCH 79 89
ATOM     89   C  SGN C   5       8.806  23.659  34.5130  0.00  0.00     0.000 C
ATOM     90   O  SGN C   5       9.631  24.000  35.6540  0.00  0.00     0.000 O
ATOM     91   S  SGN C   5      10.046  22.795  36.6300  0.00  0.00     0.000 S
ATOM     92   O  SGN C   5       8.823  22.128  36.9930  0.00  0.00     0.000 OA
ATOM     93   O  SGN C   5      10.941  21.941  35.8930  0.00  0.00     0.000 OA
ATOM     94   O  SGN C   5      10.680  23.466  37.7320  0.00  0.00     0.000 OA
ENDBRANCH 79 89
BRANCH 75 95
ATOM     95  O4  BDP C   6       5.321  25.565  33.8650  0.00  0.00     0.000 O
BRANCH 95 99
ATOM     96  C1  BDP C   6       2.006  22.835  33.9000  0.00  0.00     0.000 C
ATOM     97  C2  BDP C   6       2.479  23.412  35.2050  0.00  0.00     0.000 C
ATOM     98  C3  BDP C   6       3.389  24.641  35.0610  0.00  0.00     0.000 C
ATOM     99  C4  BDP C   6       4.494  24.395  34.0440  0.00  0.00     0.000 C
ATOM    100  C5  BDP C   6       3.844  23.840  32.7560  0.00  0.00     0.000 C
ATOM    101  O5  BDP C   6       3.214  22.625  33.1930  0.00  0.00     0.000 O
BRANCH 100 102
ATOM    102   C  BDP C   6       4.858  23.483  31.6990  0.00  0.00     0.000 C
ATOM    103   O  BDP C   6       5.035  22.317  31.3170  0.00  0.00     0.000 OA
ATOM    104   O  BDP C   6       5.509  24.415  31.2120  0.00  0.00     0.000 OA
ENDBRANCH 100 102
ENDBRANCH 95 99
ENDBRANCH 75 95
ENDBRANCH 74 78
ENDBRANCH 58 74
ENDBRANCH 57 61
ENDBRANCH 37 57
ENDBRANCH 36 40
ENDBRANCH 23 36
ENDBRANCH 22 26
ENDBRANCH 1 22
TORSDOF 20
ENDMDL
MODEL 79
REMARK VINA RESULT:      -5.1     33.170     38.495
ROOT
ATOM      1  C1  NGY C   1      33.448   6.687  55.5700  0.00  0.00     0.000 C
ATOM      2  C2  NGY C   1      33.838   6.793  54.1020  0.00  0.00     0.000 C
ATOM      3  C3  NGY C   1      33.668   5.444  53.4110  0.00  0.00     0.000 C
ATOM      4  C4  NGY C   1      34.459   4.409  54.1880  0.00  0.00     0.000 C
ATOM      5  C5  NGY C   1      33.916   4.344  55.6120  0.00  0.00     0.000 C
ATOM      6  O5  NGY C   1      34.120   5.639  56.2360  0.00  0.00     0.000 O
ATOM      7   O  NGY C   1      34.106   5.551  52.0640  0.00  0.00     0.000 O
ATOM      9  HD  NGY C   1      34.731   5.964  51.6280  0.00  0.00     0.000 HD
ATOM      9   O  NGY C   1      34.367   3.132  53.5720  0.00  0.00     0.000 O
ATOM     11  HD  NGY C   1      34.991   3.545  53.1360  0.00  0.00     0.000 HD
ENDROOT
BRANCH 2 13
ATOM     11   N  NGY C   1      34.007   8.200  53.8250  0.00  0.00     0.000 N
ATOM     13  HD  NGY C   1      33.634   8.229  53.0430  0.00  0.00     0.000 HD
ATOM     13   C  NGY C   1      33.576   8.744  52.6870  0.00  0.00     0.000 C
ATOM     14   O  NGY C   1      33.146   8.044  51.7690  0.00  0.00     0.000 OA
ATOM     15   C  NGY C   1      33.617  10.239  52.5990  0.00  0.00     0.000 C
ENDBRANCH 2 13
BRANCH 5 16
ATOM     16   C  NGY C   1      34.592   3.354  56.5060  0.00  0.00     0.000 C
ATOM     17   O  NGY C   1      37.574   4.102  58.5070  0.00  0.00     0.000 OA
ATOM     18   O  NGY C   1      35.830   3.911  56.9560  0.00  0.00     0.000 O
ATOM     19   S  NGY C   1      36.458   3.235  58.2270  0.00  0.00     0.000 S
ATOM     20   O  NGY C   1      36.874   1.912  57.8430  0.00  0.00     0.000 OA
ATOM     21   O  NGY C   1      35.388   3.244  59.2120  0.00  0.00     0.000 OA
ENDBRANCH 5 16
BRANCH 1 22
ATOM     22  O4  BDP C   2      32.106   6.580  55.6560  0.00  0.00     0.000 O
BRANCH 22 26
ATOM     23  C1  BDP C   2      28.709   7.743  57.6750  0.00  0.00     0.000 C
ATOM     24  C2  BDP C   2      29.919   8.624  57.8770  0.00  0.00     0.000 C
ATOM     25  C3  BDP C   2      30.952   8.313  56.8260  0.00  0.00     0.000 C
ATOM     26  C4  BDP C   2      31.256   6.819  56.8090  0.00  0.00     0.000 C
ATOM     27  C5  BDP C   2      29.956   6.027  56.7800  0.00  0.00     0.000 C
ATOM     28  O5  BDP C   2      29.077   6.351  57.8890  0.00  0.00     0.000 O
ATOM     29   O  BDP C   2      29.628  10.005  57.6650  0.00  0.00     0.000 O
ATOM     31  HD  BDP C   2      30.252  10.481  57.3000  0.00  0.00     0.000 HD
ATOM     31   O  BDP C   2      32.122   9.047  57.1670  0.00  0.00     0.000 O
ATOM     33  HD  BDP C   2      32.746   9.523  56.8010  0.00  0.00     0.000 HD
BRANCH 27 33
ATOM     33   C  BDP C   2      30.186   4.537  56.8610  0.00  0.00     0.000 C
ATOM     34   O  BDP C   2      31.098   4.041  57.5650  0.00  0.00     0.000 OA
ATOM     35   O  BDP C   2      29.478   3.803  56.1900  0.00  0.00     0.000 OA
ENDBRANCH 27 33
BRANCH 23 36
ATOM     36  O4  SGN C   3      27.654   8.014  58.4780  0.00  0.00     0.000 O
BRANCH 36 40
ATOM     37  C1  SGN C   3      23.526   8.612  58.6660  0.00  0.00     0.000 C
ATOM     38  C2  SGN C   3      24.031   7.173  58.4740  0.00  0.00     0.000 C
ATOM     39  C3  SGN C   3      25.500   7.068  58.8600  0.00  0.00     0.000 C
ATOM     40  C4  SGN C   3      26.291   8.071  58.0480  0.00  0.00     0.000 C
ATOM     41  C5  SGN C   3      25.713   9.450  58.2780  0.00  0.00     0.000 C
ATOM     42  O5  SGN C   3      24.334   9.471  57.8770  0.00  0.00     0.000 O
ATOM     43   O  SGN C   3      25.955   5.743  58.6170  0.00  0.00     0.000 O
ATOM     45  HD  SGN C   3      26.617   6.298  58.5550  0.00  0.00     0.000 HD
BRANCH 38 47
ATOM     45   N  SGN C   3      22.677   7.010  57.9160  0.00  0.00     0.000 N
ATOM     47  HD  SGN C   3      23.474   7.339  57.8370  0.00  0.00     0.000 HD
ATOM     47   S  SGN C   3      21.862   5.860  58.6510  0.00  0.00     0.000 S
ATOM     48   O  SGN C   3      22.438   4.584  58.4130  0.00  0.00     0.000 OA
ATOM     49   O  SGN C   3      21.731   6.260  60.0140  0.00  0.00     0.000 OA
ATOM     50   O  SGN C   3      20.581   5.909  57.9500  0.00  0.00     0.000 OA
ENDBRANCH 38 47
BRANCH 41 51
ATOM     51   C  SGN C   3      26.418  10.546  57.5260  0.00  0.00     0.000 C
ATOM     52   O  SGN C   3      27.227  13.967  58.7590  0.00  0.00     0.000 OA
ATOM     53   O  SGN C   3      28.449  12.560  57.2560  0.00  0.00     0.000 OA
ATOM     54   O  SGN C   3      26.280  13.394  56.6510  0.00  0.00     0.000 OA
ATOM     55   O  SGN C   3      26.565  11.660  58.3780  0.00  0.00     0.000 O
ATOM     56   S  SGN C   3      27.188  13.022  57.6950  0.00  0.00     0.000 S
ENDBRANCH 41 51
BRANCH 37 57
ATOM     57  O4  IDS C   4      23.559   9.057  59.9460  0.00  0.00     0.000 O
BRANCH 57 61
ATOM     58  C1  IDS C   4      21.063  11.028  62.0330  0.00  0.00     0.000 C
ATOM     59  C2  IDS C   4      20.651  10.560  60.6730  0.00  0.00     0.000 C
ATOM     60  C3  IDS C   4      21.769  10.694  59.6370  0.00  0.00     0.000 C
ATOM     61  C4  IDS C   4      23.187  10.437  60.1280  0.00  0.00     0.000 C
ATOM     62  C5  IDS C   4      23.338  10.855  61.5960  0.00  0.00     0.000 C
ATOM     63  O5  IDS C   4      22.267  10.373  62.3940  0.00  0.00     0.000 O
ATOM     64   O  IDS C   4      21.693  12.030  59.1760  0.00  0.00     0.000 O
ATOM     66  HD  IDS C   4      22.393  12.476  59.4210  0.00  0.00     0.000 HD
BRANCH 59 66
ATOM     66   O  IDS C   4      20.259   9.138  60.6850  0.00  0.00     0.000 O
ATOM     67   S  IDS C   4      18.802   8.797  60.1440  0.00  0.00     0.000 S
ATOM     68   O  IDS C   4      18.873   9.167  58.7510  0.00  0.00     0.000 OA
ATOM     69   O  IDS C   4      18.634   7.379  60.3920  0.00  0.00     0.000 OA
ATOM     70   O  IDS C   4      17.865   9.636  60.8750  0.00  0.00     0.000 OA
ENDBRANCH 59 66
BRANCH 62 71
ATOM     71   C  IDS C   4      24.602  10.319  62.2400  0.00  0.00     0.000 C
ATOM     72   O  IDS C   4      24.539   9.707  63.2890  0.00  0.00     0.000 OA
ATOM     73   O  IDS C   4      25.700  10.610  61.7260  0.00  0.00     0.000 OA
ENDBRANCH 62 71
BRANCH 58 74
ATOM     74  O4  SGN C   5      20.948  12.372  62.2370  0.00  0.00     0.000 O
BRANCH 74 78
ATOM     75  C1  SGN C   5      20.355  15.413  65.0380  0.00  0.00     0.000 C
ATOM     76  C2  SGN C   5      21.806  14.924  64.8680  0.00  0.00     0.000 C
ATOM     77  C3  SGN C   5      21.947  14.074  63.5990  0.00  0.00     0.000 C
ATOM     78  C4  SGN C   5      20.854  13.018  63.5070  0.00  0.00     0.000 C
ATOM     79  C5  SGN C   5      19.494  13.681  63.6700  0.00  0.00     0.000 C
ATOM     80  O5  SGN C   5      19.427  14.339  64.9630  0.00  0.00     0.000 O
ATOM     81   O  SGN C   5      23.233  13.463  63.5930  0.00  0.00     0.000 O
ATOM     83  HD  SGN C   5      23.934  13.876  63.8900  0.00  0.00     0.000 HD
BRANCH 76 85
ATOM     83   N  SGN C   5      22.537  16.196  64.8270  0.00  0.00     0.000 N
ATOM     85  HD  SGN C   5      23.230  16.689  64.9930  0.00  0.00     0.000 HD
ATOM     85   S  SGN C   5      23.454  16.887  65.9570  0.00  0.00     0.000 S
ATOM     86   O  SGN C   5      24.009  18.103  65.4720  0.00  0.00     0.000 OA
ATOM     87   O  SGN C   5      22.675  16.959  67.1410  0.00  0.00     0.000 OA
ATOM     88   O  SGN C   5      24.515  15.791  66.0020  0.00  0.00     0.000 OA
ENDBRANCH 76 85
BRANCH 79 89
ATOM     89   C  SGN C   5      18.333  12.712  63.5690  0.00  0.00     0.000 C
ATOM     90   O  SGN C   5      17.161  13.284  64.1970  0.00  0.00     0.000 O
ATOM     91   S  SGN C   5      15.738  12.868  63.5820  0.00  0.00     0.000 S
ATOM     92   O  SGN C   5      15.812  13.134  62.1700  0.00  0.00     0.000 OA
ATOM     93   O  SGN C   5      15.544  11.470  63.8700  0.00  0.00     0.000 OA
ATOM     94   O  SGN C   5      14.815  13.723  64.2780  0.00  0.00     0.000 OA
ENDBRANCH 79 89
BRANCH 75 95
ATOM     95  O4  BDP C   6      20.134  16.284  64.0090  0.00  0.00     0.000 O
BRANCH 95 99
ATOM     96  C1  BDP C   6      17.632  19.774  63.9700  0.00  0.00     0.000 C
ATOM     97  C2  BDP C   6      18.116  19.248  65.2920  0.00  0.00     0.000 C
ATOM     98  C3  BDP C   6      19.287  18.260  65.1900  0.00  0.00     0.000 C
ATOM     99  C4  BDP C   6      19.015  17.186  64.1470  0.00  0.00     0.000 C
ATOM    100  C5  BDP C   6      18.563  17.887  62.8450  0.00  0.00     0.000 C
ATOM    101  O5  BDP C   6      17.374  18.592  63.2370  0.00  0.00     0.000 O
BRANCH 100 102
ATOM    102   C  BDP C   6      18.188  16.911  61.7590  0.00  0.00     0.000 C
ATOM    103   O  BDP C   6      17.195  16.175  61.8440  0.00  0.00     0.000 OA
ATOM    104   O  BDP C   6      18.914  16.883  60.7580  0.00  0.00     0.000 OA
ENDBRANCH 100 102
ENDBRANCH 95 99
ENDBRANCH 75 95
ENDBRANCH 74 78
ENDBRANCH 58 74
ENDBRANCH 57 61
ENDBRANCH 37 57
ENDBRANCH 36 40
ENDBRANCH 23 36
ENDBRANCH 22 26
ENDBRANCH 1 22
TORSDOF 20
ENDMDL
MODEL 80
REMARK VINA RESULT:      -5.1     17.289     23.352
ROOT
ATOM      1  C1  NGY C   1      36.685   5.572  25.0260  0.00  0.00     0.000 C
ATOM      2  C2  NGY C   1      38.033   4.917  25.2940  0.00  0.00     0.000 C
ATOM      3  C3  NGY C   1      39.166   5.856  24.8940  0.00  0.00     0.000 C
ATOM      4  C4  NGY C   1      38.955   6.268  23.4500  0.00  0.00     0.000 C
ATOM      5  C5  NGY C   1      37.611   6.983  23.3350  0.00  0.00     0.000 C
ATOM      6  O5  NGY C   1      36.566   6.046  23.7020  0.00  0.00     0.000 O
ATOM      7   O  NGY C   1      40.409   5.196  25.0850  0.00  0.00     0.000 O
ATOM      9  HD  NGY C   1      40.724   4.394  24.9990  0.00  0.00     0.000 HD
ATOM      9   O  NGY C   1      40.001   7.120  23.0060  0.00  0.00     0.000 O
ATOM     11  HD  NGY C   1      40.316   6.318  22.9200  0.00  0.00     0.000 HD
ENDROOT
BRANCH 2 13
ATOM     11   N  NGY C   1      37.916   4.455  26.6570  0.00  0.00     0.000 N
ATOM     13  HD  NGY C   1      38.418   3.752  26.6050  0.00  0.00     0.000 HD
ATOM     13   C  NGY C   1      38.537   3.355  27.0780  0.00  0.00     0.000 C
ATOM     14   O  NGY C   1      39.119   2.610  26.2870  0.00  0.00     0.000 OA
ATOM     15   C  NGY C   1      38.514   3.090  28.5520  0.00  0.00     0.000 C
ENDBRANCH 2 13
BRANCH 5 16
ATOM     16   C  NGY C   1      37.262   7.462  21.9630  0.00  0.00     0.000 C
ATOM     17   O  NGY C   1      37.281   5.327  18.9790  0.00  0.00     0.000 OA
ATOM     18   O  NGY C   1      37.583   6.435  21.0210  0.00  0.00     0.000 O
ATOM     19   S  NGY C   1      36.891   6.560  19.6160  0.00  0.00     0.000 S
ATOM     20   O  NGY C   1      37.454   7.714  18.9660  0.00  0.00     0.000 OA
ATOM     21   O  NGY C   1      35.475   6.695  19.9160  0.00  0.00     0.000 OA
ENDBRANCH 5 16
BRANCH 1 22
ATOM     22  O4  BDP C   2      36.483   6.541  25.9450  0.00  0.00     0.000 O
BRANCH 22 26
ATOM     23  C1  BDP C   2      33.947   8.449  28.5700  0.00  0.00     0.000 C
ATOM     24  C2  BDP C   2      33.738   6.960  28.4310  0.00  0.00     0.000 C
ATOM     25  C3  BDP C   2      34.931   6.343  27.7490  0.00  0.00     0.000 C
ATOM     26  C4  BDP C   2      35.221   7.064  26.4370  0.00  0.00     0.000 C
ATOM     27  C5  BDP C   2      35.236   8.569  26.6660  0.00  0.00     0.000 C
ATOM     28  O5  BDP C   2      34.001   9.060  27.2500  0.00  0.00     0.000 O
ATOM     29   O  BDP C   2      33.692   6.297  29.6950  0.00  0.00     0.000 O
ATOM     31  HD  BDP C   2      34.042   5.505  29.7300  0.00  0.00     0.000 HD
ATOM     31   O  BDP C   2      34.606   4.982  27.4980  0.00  0.00     0.000 O
ATOM     33  HD  BDP C   2      34.956   4.190  27.5330  0.00  0.00     0.000 HD
BRANCH 27 33
ATOM     33   C  BDP C   2      35.421   9.347  25.3850  0.00  0.00     0.000 C
ATOM     34   O  BDP C   2      34.470   9.570  24.5980  0.00  0.00     0.000 OA
ATOM     35   O  BDP C   2      36.541   9.736  25.0990  0.00  0.00     0.000 OA
ENDBRANCH 27 33
BRANCH 23 36
ATOM     36  O4  SGN C   3      33.002   9.103  29.2840  0.00  0.00     0.000 O
BRANCH 36 40
ATOM     37  C1  SGN C   3      32.405  12.358  31.8300  0.00  0.00     0.000 C
ATOM     38  C2  SGN C   3      31.938  12.496  30.3720  0.00  0.00     0.000 C
ATOM     39  C3  SGN C   3      31.820  11.127  29.7180  0.00  0.00     0.000 C
ATOM     40  C4  SGN C   3      33.151  10.416  29.8330  0.00  0.00     0.000 C
ATOM     41  C5  SGN C   3      33.542  10.345  31.2920  0.00  0.00     0.000 C
ATOM     42  O5  SGN C   3      33.648  11.672  31.8310  0.00  0.00     0.000 O
ATOM     43   O  SGN C   3      31.444  11.289  28.3560  0.00  0.00     0.000 O
ATOM     45  HD  SGN C   3      31.892  10.554  28.4530  0.00  0.00     0.000 HD
BRANCH 38 47
ATOM     45   N  SGN C   3      31.698  13.754  29.6430  0.00  0.00     0.000 N
ATOM     47  HD  SGN C   3      31.984  12.937  29.6310  0.00  0.00     0.000 HD
ATOM     47   S  SGN C   3      30.744  14.739  30.4480  0.00  0.00     0.000 S
ATOM     48   O  SGN C   3      29.433  14.208  30.5660  0.00  0.00     0.000 OA
ATOM     49   O  SGN C   3      31.418  15.058  31.6640  0.00  0.00     0.000 OA
ATOM     50   O  SGN C   3      30.680  15.891  29.5500  0.00  0.00     0.000 OA
ENDBRANCH 38 47
BRANCH 41 51
ATOM     51   C  SGN C   3      34.854   9.652  31.5450  0.00  0.00     0.000 C
ATOM     52   O  SGN C   3      38.138  10.388  29.9480  0.00  0.00     0.000 OA
ATOM     53   O  SGN C   3      37.658   9.641  32.1710  0.00  0.00     0.000 OA
ATOM     54   O  SGN C   3      37.161   8.242  30.2840  0.00  0.00     0.000 OA
ATOM     55   O  SGN C   3      35.855  10.274  30.7700  0.00  0.00     0.000 O
ATOM     56   S  SGN C   3      37.341   9.569  30.7960  0.00  0.00     0.000 S
ENDBRANCH 41 51
BRANCH 37 57
ATOM     57  O4  IDS C   4      31.549  11.684  32.6370  0.00  0.00     0.000 O
BRANCH 57 61
ATOM     58  C1  IDS C   4      29.764  11.593  35.9950  0.00  0.00     0.000 C
ATOM     59  C2  IDS C   4      30.116  12.922  35.4050  0.00  0.00     0.000 C
ATOM     60  C3  IDS C   4      31.496  12.927  34.7410  0.00  0.00     0.000 C
ATOM     61  C4  IDS C   4      31.914  11.648  34.0300  0.00  0.00     0.000 C
ATOM     62  C5  IDS C   4      31.313  10.419  34.7220  0.00  0.00     0.000 C
ATOM     63  O5  IDS C   4      29.931  10.596  35.0020  0.00  0.00     0.000 O
ATOM     64   O  IDS C   4      32.413  13.174  35.7910  0.00  0.00     0.000 O
ATOM     66  HD  IDS C   4      32.909  12.478  35.9290  0.00  0.00     0.000 HD
BRANCH 59 66
ATOM     66   O  IDS C   4      29.151  13.327  34.3660  0.00  0.00     0.000 O
ATOM     67   S  IDS C   4      28.323  14.657  34.6450  0.00  0.00     0.000 S
ATOM     68   O  IDS C   4      29.338  15.682  34.6510  0.00  0.00     0.000 OA
ATOM     69   O  IDS C   4      27.374  14.742  33.5520  0.00  0.00     0.000 OA
ATOM     70   O  IDS C   4      27.702  14.510  35.9520  0.00  0.00     0.000 OA
ENDBRANCH 59 66
BRANCH 62 71
ATOM     71   C  IDS C   4      31.402   9.160  33.8820  0.00  0.00     0.000 C
ATOM     72   O  IDS C   4      30.440   8.784  33.2410  0.00  0.00     0.000 OA
ATOM     73   O  IDS C   4      32.441   8.473  33.9500  0.00  0.00     0.000 OA
ENDBRANCH 62 71
BRANCH 58 74
ATOM     74  O4  SGN C   5      30.251  11.373  37.2490  0.00  0.00     0.000 O
BRANCH 74 78
ATOM     75  C1  SGN C   5      29.882   9.205  40.8000  0.00  0.00     0.000 C
ATOM     76  C2  SGN C   5      30.349   8.408  39.5670  0.00  0.00     0.000 C
ATOM     77  C3  SGN C   5      30.771   9.356  38.4360  0.00  0.00     0.000 C
ATOM     78  C4  SGN C   5      29.730  10.441  38.1960  0.00  0.00     0.000 C
ATOM     79  C5  SGN C   5      29.409  11.136  39.5110  0.00  0.00     0.000 C
ATOM     80  O5  SGN C   5      28.891  10.166  40.4590  0.00  0.00     0.000 O
ATOM     81   O  SGN C   5      30.983   8.596  37.2510  0.00  0.00     0.000 O
ATOM     83  HD  SGN C   5      31.334   7.805  37.2760  0.00  0.00     0.000 HD
BRANCH 76 85
ATOM     83   N  SGN C   5      31.390   7.373  39.5960  0.00  0.00     0.000 N
ATOM     85  HD  SGN C   5      31.651   6.549  39.6480  0.00  0.00     0.000 HD
ATOM     85   S  SGN C   5      31.494   6.053  40.5120  0.00  0.00     0.000 S
ATOM     86   O  SGN C   5      32.654   5.303  40.1750  0.00  0.00     0.000 OA
ATOM     87   O  SGN C   5      31.364   6.469  41.8630  0.00  0.00     0.000 OA
ATOM     88   O  SGN C   5      30.238   5.375  39.9680  0.00  0.00     0.000 OA
ENDBRANCH 76 85
BRANCH 79 89
ATOM     89   C  SGN C   5      28.396  12.254  39.3720  0.00  0.00     0.000 C
ATOM     90   O  SGN C   5      28.591  13.227  40.4270  0.00  0.00     0.000 O
ATOM     91   S  SGN C   5      28.232  14.752  40.0770  0.00  0.00     0.000 S
ATOM     92   O  SGN C   5      28.948  15.071  38.8700  0.00  0.00     0.000 OA
ATOM     93   O  SGN C   5      26.804  14.822  39.9050  0.00  0.00     0.000 OA
ATOM     94   O  SGN C   5      28.700  15.474  41.2290  0.00  0.00     0.000 OA
ENDBRANCH 79 89
BRANCH 75 95
ATOM     95  O4  BDP C   6      30.994   9.841  41.2750  0.00  0.00     0.000 O
BRANCH 95 99
ATOM     96  C1  BDP C   6      31.665  10.037  45.5120  0.00  0.00     0.000 C
ATOM     97  C2  BDP C   6      30.313   9.609  45.0150  0.00  0.00     0.000 C
ATOM     98  C3  BDP C   6      30.283   9.203  43.5340  0.00  0.00     0.000 C
ATOM     99  C4  BDP C   6      30.973  10.241  42.6620  0.00  0.00     0.000 C
ATOM    100  C5  BDP C   6      32.356  10.545  43.2850  0.00  0.00     0.000 C
ATOM    101  O5  BDP C   6      32.033  11.047  44.5920  0.00  0.00     0.000 O
BRANCH 100 102
ATOM    102   C  BDP C   6      33.103  11.625  42.5440  0.00  0.00     0.000 C
ATOM    103   O  BDP C   6      33.411  12.701  43.0760  0.00  0.00     0.000 OA
ATOM    104   O  BDP C   6      33.412  11.386  41.3710  0.00  0.00     0.000 OA
ENDBRANCH 100 102
ENDBRANCH 95 99
ENDBRANCH 75 95
ENDBRANCH 74 78
ENDBRANCH 58 74
ENDBRANCH 57 61
ENDBRANCH 37 57
ENDBRANCH 36 40
ENDBRANCH 23 36
ENDBRANCH 22 26
ENDBRANCH 1 22
TORSDOF 20
ENDMDL
MODEL 81
REMARK VINA RESULT:      -5.1     21.874     28.122
ROOT
ATOM      1  C1  NGY C   1       9.108  27.133  57.0790  0.00  0.00     0.000 C
ATOM      2  C2  NGY C   1       9.223  28.632  56.8400  0.00  0.00     0.000 C
ATOM      3  C3  NGY C   1      10.299  29.230  57.7410  0.00  0.00     0.000 C
ATOM      4  C4  NGY C   1       9.981  28.854  59.1760  0.00  0.00     0.000 C
ATOM      5  C5  NGY C   1       9.977  27.333  59.2950  0.00  0.00     0.000 C
ATOM      6  O5  NGY C   1       8.925  26.812  58.4410  0.00  0.00     0.000 O
ATOM      7   O  NGY C   1      10.337  30.637  57.5540  0.00  0.00     0.000 O
ATOM      9  HD  NGY C   1       9.771  31.275  57.4050  0.00  0.00     0.000 HD
ATOM      9   O  NGY C   1      10.933  29.412  60.0710  0.00  0.00     0.000 O
ATOM     11  HD  NGY C   1      10.366  30.050  59.9220  0.00  0.00     0.000 HD
ENDROOT
BRANCH 2 13
ATOM     11   N  NGY C   1       9.572  28.938  55.4730  0.00  0.00     0.000 N
ATOM     13  HD  NGY C   1       8.933  29.494  55.2920  0.00  0.00     0.000 HD
ATOM     13   C  NGY C   1       8.848  29.783  54.7400  0.00  0.00     0.000 C
ATOM     14   O  NGY C   1       7.774  30.225  55.1520  0.00  0.00     0.000 OA
ATOM     15   C  NGY C   1       9.419  30.182  53.4140  0.00  0.00     0.000 C
ENDBRANCH 2 13
BRANCH 5 16
ATOM     16   C  NGY C   1       9.686  26.803  60.6630  0.00  0.00     0.000 C
ATOM     17   O  NGY C   1       7.676  23.805  61.3150  0.00  0.00     0.000 OA
ATOM     18   O  NGY C   1       8.708  25.765  60.5550  0.00  0.00     0.000 O
ATOM     19   S  NGY C   1       8.604  24.799  61.7900  0.00  0.00     0.000 S
ATOM     20   O  NGY C   1       8.073  25.565  62.8860  0.00  0.00     0.000 OA
ATOM     21   O  NGY C   1       9.965  24.337  62.0100  0.00  0.00     0.000 OA
ENDBRANCH 5 16
BRANCH 1 22
ATOM     22  O4  BDP C   2      10.187  26.524  56.5420  0.00  0.00     0.000 O
BRANCH 22 26
ATOM     23  C1  BDP C   2      11.985  23.265  54.7790  0.00  0.00     0.000 C
ATOM     24  C2  BDP C   2      10.735  23.766  54.0960  0.00  0.00     0.000 C
ATOM     25  C3  BDP C   2      10.397  25.142  54.6050  0.00  0.00     0.000 C
ATOM     26  C4  BDP C   2      10.324  25.139  56.1280  0.00  0.00     0.000 C
ATOM     27  C5  BDP C   2      11.557  24.454  56.7030  0.00  0.00     0.000 C
ATOM     28  O5  BDP C   2      11.732  23.103  56.2030  0.00  0.00     0.000 O
ATOM     29   O  BDP C   2      10.922  23.962  52.6940  0.00  0.00     0.000 O
ATOM     31  HD  BDP C   2      10.505  24.632  52.3380  0.00  0.00     0.000 HD
ATOM     31   O  BDP C   2       9.131  25.487  54.0560  0.00  0.00     0.000 O
ATOM     33  HD  BDP C   2       8.714  26.157  53.7000  0.00  0.00     0.000 HD
BRANCH 27 33
ATOM     33   C  BDP C   2      11.500  24.330  58.2070  0.00  0.00     0.000 C
ATOM     34   O  BDP C   2      12.444  24.707  58.9420  0.00  0.00     0.000 OA
ATOM     35   O  BDP C   2      10.516  23.814  58.7100  0.00  0.00     0.000 OA
ENDBRANCH 27 33
BRANCH 23 36
ATOM     36  O4  SGN C   3      12.469  22.090  54.3140  0.00  0.00     0.000 O
BRANCH 36 40
ATOM     37  C1  SGN C   3      15.892  19.906  53.3430  0.00  0.00     0.000 C
ATOM     38  C2  SGN C   3      15.623  20.189  54.8300  0.00  0.00     0.000 C
ATOM     39  C3  SGN C   3      14.170  20.587  55.0420  0.00  0.00     0.000 C
ATOM     40  C4  SGN C   3      13.856  21.777  54.1620  0.00  0.00     0.000 C
ATOM     41  C5  SGN C   3      14.171  21.419  52.7260  0.00  0.00     0.000 C
ATOM     42  O5  SGN C   3      15.559  21.071  52.6060  0.00  0.00     0.000 O
ATOM     43   O  SGN C   3      13.965  20.900  56.4140  0.00  0.00     0.000 O
ATOM     45  HD  SGN C   3      13.401  21.339  55.9240  0.00  0.00     0.000 HD
BRANCH 38 47
ATOM     45   N  SGN C   3      16.212  18.843  54.9470  0.00  0.00     0.000 N
ATOM     47  HD  SGN C   3      15.686  19.384  54.5240  0.00  0.00     0.000 HD
ATOM     47   S  SGN C   3      17.459  18.821  55.9330  0.00  0.00     0.000 S
ATOM     48   O  SGN C   3      18.543  19.577  55.4150  0.00  0.00     0.000 OA
ATOM     49   O  SGN C   3      16.970  19.200  57.2190  0.00  0.00     0.000 OA
ATOM     50   O  SGN C   3      17.841  17.410  55.8970  0.00  0.00     0.000 OA
ENDBRANCH 38 47
BRANCH 41 51
ATOM     51   C  SGN C   3      13.896  22.523  51.7410  0.00  0.00     0.000 C
ATOM     52   O  SGN C   3      15.202  26.010  51.8430  0.00  0.00     0.000 OA
ATOM     53   O  SGN C   3      14.724  24.616  49.9560  0.00  0.00     0.000 OA
ATOM     54   O  SGN C   3      12.958  25.336  51.4160  0.00  0.00     0.000 OA
ATOM     55   O  SGN C   3      14.626  23.667  52.1250  0.00  0.00     0.000 O
ATOM     56   S  SGN C   3      14.350  25.035  51.2530  0.00  0.00     0.000 S
ENDBRANCH 41 51
BRANCH 37 57
ATOM     57  O4  IDS C   4      15.191  18.865  52.8300  0.00  0.00     0.000 O
BRANCH 57 61
ATOM     58  C1  IDS C   4      15.764  16.012  50.3790  0.00  0.00     0.000 C
ATOM     59  C2  IDS C   4      16.949  16.766  50.8930  0.00  0.00     0.000 C
ATOM     60  C3  IDS C   4      16.694  18.272  50.9950  0.00  0.00     0.000 C
ATOM     61  C4  IDS C   4      15.290  18.699  51.4030  0.00  0.00     0.000 C
ATOM     62  C5  IDS C   4      14.248  17.696  50.8940  0.00  0.00     0.000 C
ATOM     63  O5  IDS C   4      14.633  16.355  51.1610  0.00  0.00     0.000 O
ATOM     64   O  IDS C   4      16.956  18.783  49.7010  0.00  0.00     0.000 O
ATOM     66  HD  IDS C   4      16.227  19.076  49.3370  0.00  0.00     0.000 HD
BRANCH 59 66
ATOM     66   O  IDS C   4      17.335  16.315  52.2430  0.00  0.00     0.000 O
ATOM     67   S  IDS C   4      18.763  15.627  52.3820  0.00  0.00     0.000 S
ATOM     68   O  IDS C   4      19.676  16.697  52.0550  0.00  0.00     0.000 OA
ATOM     69   O  IDS C   4      18.825  15.169  53.7550  0.00  0.00     0.000 OA
ATOM     70   O  IDS C   4      18.821  14.555  51.4010  0.00  0.00     0.000 OA
ENDBRANCH 59 66
BRANCH 62 71
ATOM     71   C  IDS C   4      12.889  17.869  51.5450  0.00  0.00     0.000 C
ATOM     72   O  IDS C   4      12.262  18.898  51.3840  0.00  0.00     0.000 OA
ATOM     73   O  IDS C   4      12.486  16.982  52.3240  0.00  0.00     0.000 OA
ENDBRANCH 62 71
BRANCH 58 74
ATOM     74  O4  SGN C   5      15.649  15.978  49.0210  0.00  0.00     0.000 O
BRANCH 74 78
ATOM     75  C1  SGN C   5      14.408  13.749  45.7140  0.00  0.00     0.000 C
ATOM     76  C2  SGN C   5      13.370  13.924  46.8390  0.00  0.00     0.000 C
ATOM     77  C3  SGN C   5      13.809  15.023  47.8160  0.00  0.00     0.000 C
ATOM     78  C4  SGN C   5      15.259  14.845  48.2440  0.00  0.00     0.000 C
ATOM     79  C5  SGN C   5      16.140  14.714  47.0100  0.00  0.00     0.000 C
ATOM     80  O5  SGN C   5      15.718  13.563  46.2330  0.00  0.00     0.000 O
ATOM     81   O  SGN C   5      12.947  15.005  48.9490  0.00  0.00     0.000 O
ATOM     83  HD  SGN C   5      12.101  14.837  48.8740  0.00  0.00     0.000 HD
BRANCH 76 85
ATOM     83   N  SGN C   5      12.463  13.150  45.9820  0.00  0.00     0.000 N
ATOM     85  HD  SGN C   5      11.806  13.085  45.4210  0.00  0.00     0.000 HD
ATOM     85   S  SGN C   5      10.881  13.329  45.7420  0.00  0.00     0.000 S
ATOM     86   O  SGN C   5      10.413  12.383  44.7890  0.00  0.00     0.000 OA
ATOM     87   O  SGN C   5      10.260  13.322  47.0180  0.00  0.00     0.000 OA
ATOM     88   O  SGN C   5      10.964  14.721  45.1200  0.00  0.00     0.000 OA
ENDBRANCH 76 85
BRANCH 79 89
ATOM     89   C  SGN C   5      17.612  14.557  47.3340  0.00  0.00     0.000 C
ATOM     90   O  SGN C   5      17.788  13.512  48.3220  0.00  0.00     0.000 O
ATOM     91   S  SGN C   5      19.152  12.670  48.2470  0.00  0.00     0.000 S
ATOM     92   O  SGN C   5      19.262  12.195  46.8920  0.00  0.00     0.000 OA
ATOM     93   O  SGN C   5      20.222  13.565  48.6050  0.00  0.00     0.000 OA
ATOM     94   O  SGN C   5      18.945  11.620  49.2070  0.00  0.00     0.000 OA
ENDBRANCH 79 89
BRANCH 75 95
ATOM     95  O4  BDP C   6      14.363  14.903  44.9840  0.00  0.00     0.000 O
BRANCH 95 99
ATOM     96  C1  BDP C   6      15.272  15.565  40.8390  0.00  0.00     0.000 C
ATOM     97  C2  BDP C   6      14.752  14.219  41.2570  0.00  0.00     0.000 C
ATOM     98  C3  BDP C   6      14.105  14.194  42.6500  0.00  0.00     0.000 C
ATOM     99  C4  BDP C   6      14.990  14.876  43.6830  0.00  0.00     0.000 C
ATOM    100  C5  BDP C   6      15.408  16.254  43.1200  0.00  0.00     0.000 C
ATOM    101  O5  BDP C   6      16.118  15.924  41.9150  0.00  0.00     0.000 O
BRANCH 100 102
ATOM    102   C  BDP C   6      16.357  16.991  44.0310  0.00  0.00     0.000 C
ATOM    103   O  BDP C   6      17.483  16.553  44.3090  0.00  0.00     0.000 OA
ATOM    104   O  BDP C   6      15.967  18.072  44.4870  0.00  0.00     0.000 OA
ENDBRANCH 100 102
ENDBRANCH 95 99
ENDBRANCH 75 95
ENDBRANCH 74 78
ENDBRANCH 58 74
ENDBRANCH 57 61
ENDBRANCH 37 57
ENDBRANCH 36 40
ENDBRANCH 23 36
ENDBRANCH 22 26
ENDBRANCH 1 22
TORSDOF 20
ENDMDL
MODEL 82
REMARK VINA RESULT:      -5.0      3.926     16.680
ROOT
ATOM      1  C1  NGY C   1      28.901  14.629  34.9840  0.00  0.00     0.000 C
ATOM      2  C2  NGY C   1      28.892  13.162  35.3900  0.00  0.00     0.000 C
ATOM      3  C3  NGY C   1      28.689  13.031  36.8960  0.00  0.00     0.000 C
ATOM      4  C4  NGY C   1      29.752  13.859  37.5930  0.00  0.00     0.000 C
ATOM      5  C5  NGY C   1      29.598  15.315  37.1630  0.00  0.00     0.000 C
ATOM      6  O5  NGY C   1      29.823  15.393  35.7320  0.00  0.00     0.000 O
ATOM      7   O  NGY C   1      28.757  11.660  37.2590  0.00  0.00     0.000 O
ATOM      9  HD  NGY C   1      29.204  10.958  37.0190  0.00  0.00     0.000 HD
ATOM      9   O  NGY C   1      29.636  13.751  39.0040  0.00  0.00     0.000 O
ATOM     11  HD  NGY C   1      30.083  13.050  38.7640  0.00  0.00     0.000 HD
ENDROOT
BRANCH 2 13
ATOM     11   N  NGY C   1      28.897  11.771  34.9990  0.00  0.00     0.000 N
ATOM     13  HD  NGY C   1      28.283  11.801  34.3890  0.00  0.00     0.000 HD
ATOM     13   C  NGY C   1      28.083  11.310  34.0510  0.00  0.00     0.000 C
ATOM     14   O  NGY C   1      27.196  12.019  33.5720  0.00  0.00     0.000 OA
ATOM     15   C  NGY C   1      28.321   9.905  33.5860  0.00  0.00     0.000 C
ENDBRANCH 2 13
BRANCH 5 16
ATOM     16   C  NGY C   1      30.576  16.265  37.7780  0.00  0.00     0.000 C
ATOM     17   O  NGY C   1      33.785  17.176  36.2510  0.00  0.00     0.000 OA
ATOM     18   O  NGY C   1      31.794  16.219  37.0300  0.00  0.00     0.000 O
ATOM     19   S  NGY C   1      32.762  17.440  37.2320  0.00  0.00     0.000 S
ATOM     20   O  NGY C   1      33.264  17.366  38.5790  0.00  0.00     0.000 OA
ATOM     21   O  NGY C   1      31.935  18.609  36.9830  0.00  0.00     0.000 OA
ENDBRANCH 5 16
BRANCH 1 22
ATOM     22  O4  BDP C   2      27.642  15.109  35.0630  0.00  0.00     0.000 O
BRANCH 22 26
ATOM     23  C1  BDP C   2      24.969  17.970  33.7860  0.00  0.00     0.000 C
ATOM     24  C2  BDP C   2      26.159  17.745  32.8840  0.00  0.00     0.000 C
ATOM     25  C3  BDP C   2      26.841  16.455  33.2600  0.00  0.00     0.000 C
ATOM     26  C4  BDP C   2      27.168  16.446  34.7500  0.00  0.00     0.000 C
ATOM     27  C5  BDP C   2      25.940  16.857  35.5510  0.00  0.00     0.000 C
ATOM     28  O5  BDP C   2      25.422  18.154  35.1570  0.00  0.00     0.000 O
ATOM     29   O  BDP C   2      25.780  17.540  31.5230  0.00  0.00     0.000 O
ATOM     31  HD  BDP C   2      26.254  16.975  31.0700  0.00  0.00     0.000 HD
ATOM     31   O  BDP C   2      28.039  16.383  32.4970  0.00  0.00     0.000 O
ATOM     33  HD  BDP C   2      28.513  15.818  32.0430  0.00  0.00     0.000 HD
BRANCH 27 33
ATOM     33   C  BDP C   2      26.225  16.963  37.0310  0.00  0.00     0.000 C
ATOM     34   O  BDP C   2      26.575  18.042  37.5660  0.00  0.00     0.000 OA
ATOM     35   O  BDP C   2      26.142  15.953  37.7110  0.00  0.00     0.000 OA
ENDBRANCH 27 33
BRANCH 23 36
ATOM     36  O4  SGN C   3      24.193  19.032  33.4660  0.00  0.00     0.000 O
BRANCH 36 40
ATOM     37  C1  SGN C   3      20.288  20.423  32.9710  0.00  0.00     0.000 C
ATOM     38  C2  SGN C   3      20.677  19.862  34.3480  0.00  0.00     0.000 C
ATOM     39  C3  SGN C   3      22.190  19.815  34.4960  0.00  0.00     0.000 C
ATOM     40  C4  SGN C   3      22.767  19.001  33.3570  0.00  0.00     0.000 C
ATOM     41  C5  SGN C   3      22.316  19.609  32.0470  0.00  0.00     0.000 C
ATOM     42  O5  SGN C   3      20.882  19.603  31.9770  0.00  0.00     0.000 O
ATOM     43   O  SGN C   3      22.521  19.238  35.7530  0.00  0.00     0.000 O
ATOM     45  HD  SGN C   3      23.160  19.095  35.1860  0.00  0.00     0.000 HD
BRANCH 38 47
ATOM     45   N  SGN C   3      19.214  19.693  34.4190  0.00  0.00     0.000 N
ATOM     47  HD  SGN C   3      19.969  19.454  34.0680  0.00  0.00     0.000 HD
ATOM     47   S  SGN C   3      18.593  20.392  35.7040  0.00  0.00     0.000 S
ATOM     48   O  SGN C   3      19.025  19.758  36.8990  0.00  0.00     0.000 OA
ATOM     49   O  SGN C   3      18.868  21.786  35.5830  0.00  0.00     0.000 OA
ATOM     50   O  SGN C   3      17.169  20.108  35.5370  0.00  0.00     0.000 OA
ENDBRANCH 38 47
BRANCH 41 51
ATOM     51   C  SGN C   3      22.829  18.891  30.8280  0.00  0.00     0.000 C
ATOM     52   O  SGN C   3      24.943  20.302  28.1040  0.00  0.00     0.000 OA
ATOM     53   O  SGN C   3      24.918  18.092  29.0250  0.00  0.00     0.000 OA
ATOM     54   O  SGN C   3      23.005  18.942  27.8500  0.00  0.00     0.000 OA
ATOM     55   O  SGN C   3      23.632  19.779  30.0810  0.00  0.00     0.000 O
ATOM     56   S  SGN C   3      24.174  19.226  28.6290  0.00  0.00     0.000 S
ENDBRANCH 41 51
BRANCH 37 57
ATOM     57  O4  IDS C   4      20.676  21.703  32.7520  0.00  0.00     0.000 O
BRANCH 57 61
ATOM     58  C1  IDS C   4      18.730  24.584  31.2070  0.00  0.00     0.000 C
ATOM     59  C2  IDS C   4      18.037  23.273  31.4050  0.00  0.00     0.000 C
ATOM     60  C3  IDS C   4      18.932  22.075  31.0800  0.00  0.00     0.000 C
ATOM     61  C4  IDS C   4      20.407  22.212  31.4310  0.00  0.00     0.000 C
ATOM     62  C5  IDS C   4      20.863  23.670  31.3010  0.00  0.00     0.000 C
ATOM     63  O5  IDS C   4      19.953  24.564  31.9230  0.00  0.00     0.000 O
ATOM     64   O  IDS C   4      18.822  21.897  29.6800  0.00  0.00     0.000 O
ATOM     66  HD  IDS C   4      19.575  22.074  29.2920  0.00  0.00     0.000 HD
BRANCH 59 66
ATOM     66   O  IDS C   4      17.596  23.099  32.8020  0.00  0.00     0.000 O
ATOM     67   S  IDS C   4      16.028  22.964  33.0410  0.00  0.00     0.000 S
ATOM     68   O  IDS C   4      15.699  21.727  32.3750  0.00  0.00     0.000 OA
ATOM     69   O  IDS C   4      15.871  22.942  34.4820  0.00  0.00     0.000 OA
ATOM     70   O  IDS C   4      15.395  24.105  32.3980  0.00  0.00     0.000 OA
ENDBRANCH 59 66
BRANCH 62 71
ATOM     71   C  IDS C   4      22.206  23.932  31.9560  0.00  0.00     0.000 C
ATOM     72   O  IDS C   4      23.209  23.392  31.5300  0.00  0.00     0.000 OA
ATOM     73   O  IDS C   4      22.236  24.625  32.9930  0.00  0.00     0.000 OA
ENDBRANCH 62 71
BRANCH 58 74
ATOM     74  O4  SGN C   5      18.715  25.055  29.9270  0.00  0.00     0.000 O
BRANCH 74 78
ATOM     75  C1  SGN C   5      18.650  28.419  27.4530  0.00  0.00     0.000 C
ATOM     76  C2  SGN C   5      19.959  28.174  28.2270  0.00  0.00     0.000 C
ATOM     77  C3  SGN C   5      19.985  26.758  28.8160  0.00  0.00     0.000 C
ATOM     78  C4  SGN C   5      18.688  26.429  29.5430  0.00  0.00     0.000 C
ATOM     79  C5  SGN C   5      17.507  26.705  28.6250  0.00  0.00     0.000 C
ATOM     80  O5  SGN C   5      17.508  28.106  28.2410  0.00  0.00     0.000 O
ATOM     81   O  SGN C   5      21.096  26.645  29.6990  0.00  0.00     0.000 O
ATOM     83  HD  SGN C   5      21.851  27.033  29.5310  0.00  0.00     0.000 HD
BRANCH 76 85
ATOM     83   N  SGN C   5      20.441  29.323  27.4490  0.00  0.00     0.000 N
ATOM     85  HD  SGN C   5      20.935  29.679  26.8340  0.00  0.00     0.000 HD
ATOM     85   S  SGN C   5      21.936  29.676  26.9650  0.00  0.00     0.000 S
ATOM     86   O  SGN C   5      21.939  30.869  26.1920  0.00  0.00     0.000 OA
ATOM     87   O  SGN C   5      22.766  29.649  28.1160  0.00  0.00     0.000 OA
ATOM     88   O  SGN C   5      22.112  28.453  26.0680  0.00  0.00     0.000 OA
ENDBRANCH 76 85
BRANCH 79 89
ATOM     89   C  SGN C   5      16.166  26.385  29.2530  0.00  0.00     0.000 C
ATOM     90   O  SGN C   5      15.887  27.325  30.3190  0.00  0.00     0.000 O
ATOM     91   S  SGN C   5      14.345  27.685  30.5780  0.00  0.00     0.000 S
ATOM     92   O  SGN C   5      13.803  28.090  29.3070  0.00  0.00     0.000 OA
ATOM     93   O  SGN C   5      13.713  26.497  31.0920  0.00  0.00     0.000 OA
ATOM     94   O  SGN C   5      14.411  28.753  31.5380  0.00  0.00     0.000 OA
ENDBRANCH 79 89
BRANCH 75 95
ATOM     95  O4  BDP C   6      18.699  27.591  26.3670  0.00  0.00     0.000 O
BRANCH 95 99
ATOM     96  C1  BDP C   6      17.380  28.814  22.4670  0.00  0.00     0.000 C
ATOM     97  C2  BDP C   6      17.239  29.778  23.6120  0.00  0.00     0.000 C
ATOM     98  C3  BDP C   6      18.069  29.414  24.8520  0.00  0.00     0.000 C
ATOM     99  C4  BDP C   6      17.881  27.953  25.2340  0.00  0.00     0.000 C
ATOM    100  C5  BDP C   6      18.092  27.096  23.9640  0.00  0.00     0.000 C
ATOM    101  O5  BDP C   6      17.074  27.568  23.0660  0.00  0.00     0.000 O
BRANCH 100 102
ATOM    102   C  BDP C   6      17.852  25.628  24.2060  0.00  0.00     0.000 C
ATOM    103   O  BDP C   6      17.113  25.219  25.1140  0.00  0.00     0.000 OA
ATOM    104   O  BDP C   6      18.420  24.835  23.4460  0.00  0.00     0.000 OA
ENDBRANCH 100 102
ENDBRANCH 95 99
ENDBRANCH 75 95
ENDBRANCH 74 78
ENDBRANCH 58 74
ENDBRANCH 57 61
ENDBRANCH 37 57
ENDBRANCH 36 40
ENDBRANCH 23 36
ENDBRANCH 22 26
ENDBRANCH 1 22
TORSDOF 20
ENDMDL
MODEL 83
REMARK VINA RESULT:      -5.0     14.912     23.384
ROOT
ATOM      1  C1  NGY C   1      14.797  18.239  51.2910  0.00  0.00     0.000 C
ATOM      2  C2  NGY C   1      14.904  16.906  52.0190  0.00  0.00     0.000 C
ATOM      3  C3  NGY C   1      13.671  16.679  52.8880  0.00  0.00     0.000 C
ATOM      4  C4  NGY C   1      13.510  17.875  53.8070  0.00  0.00     0.000 C
ATOM      5  C5  NGY C   1      13.331  19.128  52.9540  0.00  0.00     0.000 C
ATOM      6  O5  NGY C   1      14.534  19.316  52.1650  0.00  0.00     0.000 O
ATOM      7   O  NGY C   1      13.826  15.467  53.6110  0.00  0.00     0.000 O
ATOM      9  HD  NGY C   1      14.470  15.031  53.9940  0.00  0.00     0.000 HD
ATOM      9   O  NGY C   1      12.393  17.707  54.6690  0.00  0.00     0.000 O
ATOM     11  HD  NGY C   1      13.037  17.272  55.0510  0.00  0.00     0.000 HD
ENDROOT
BRANCH 2 13
ATOM     11   N  NGY C   1      15.268  15.997  50.9590  0.00  0.00     0.000 N
ATOM     13  HD  NGY C   1      15.716  15.420  51.4240  0.00  0.00     0.000 HD
ATOM     13   C  NGY C   1      15.996  14.906  51.1940  0.00  0.00     0.000 C
ATOM     14   O  NGY C   1      16.506  14.707  52.2980  0.00  0.00     0.000 OA
ATOM     15   C  NGY C   1      16.135  13.933  50.0630  0.00  0.00     0.000 C
ENDBRANCH 2 13
BRANCH 5 16
ATOM     16   C  NGY C   1      13.149  20.398  53.7220  0.00  0.00     0.000 C
ATOM     17   O  NGY C   1      14.233  23.691  52.5230  0.00  0.00     0.000 OA
ATOM     18   O  NGY C   1      13.874  21.441  53.0640  0.00  0.00     0.000 O
ATOM     19   S  NGY C   1      13.454  22.906  53.4460  0.00  0.00     0.000 S
ATOM     20   O  NGY C   1      13.848  23.118  54.8140  0.00  0.00     0.000 OA
ATOM     21   O  NGY C   1      12.015  22.939  53.2450  0.00  0.00     0.000 OA
ENDBRANCH 5 16
BRANCH 1 22
ATOM     22  O4  BDP C   2      13.874  18.127  50.3120  0.00  0.00     0.000 O
BRANCH 22 26
ATOM     23  C1  BDP C   2      12.345  19.432  46.7180  0.00  0.00     0.000 C
ATOM     24  C2  BDP C   2      13.850  19.471  46.8360  0.00  0.00     0.000 C
ATOM     25  C3  BDP C   2      14.286  18.645  48.0180  0.00  0.00     0.000 C
ATOM     26  C4  BDP C   2      13.543  19.087  49.2740  0.00  0.00     0.000 C
ATOM     27  C5  BDP C   2      12.050  19.179  48.9870  0.00  0.00     0.000 C
ATOM     28  O5  BDP C   2      11.747  20.069  47.8820  0.00  0.00     0.000 O
ATOM     29   O  BDP C   2      14.500  18.845  45.7300  0.00  0.00     0.000 O
ATOM     31  HD  BDP C   2      15.229  18.411  45.9030  0.00  0.00     0.000 HD
ATOM     31   O  BDP C   2      15.683  18.856  48.1760  0.00  0.00     0.000 O
ATOM     33  HD  BDP C   2      16.413  18.422  48.3500  0.00  0.00     0.000 HD
BRANCH 27 33
ATOM     33   C  BDP C   2      11.267  19.707  50.1650  0.00  0.00     0.000 C
ATOM     34   O  BDP C   2      11.350  20.901  50.5390  0.00  0.00     0.000 OA
ATOM     35   O  BDP C   2      10.560  18.930  50.7860  0.00  0.00     0.000 OA
ENDBRANCH 27 33
BRANCH 23 36
ATOM     36  O4  SGN C   3      11.834  20.031  45.6160  0.00  0.00     0.000 O
BRANCH 36 40
ATOM     37  C1  SGN C   3       8.880  19.900  42.6700  0.00  0.00     0.000 C
ATOM     38  C2  SGN C   3       8.432  20.149  44.1190  0.00  0.00     0.000 C
ATOM     39  C3  SGN C   3       9.611  20.598  44.9710  0.00  0.00     0.000 C
ATOM     40  C4  SGN C   3      10.707  19.558  44.8750  0.00  0.00     0.000 C
ATOM     41  C5  SGN C   3      11.066  19.361  43.4190  0.00  0.00     0.000 C
ATOM     42  O5  SGN C   3       9.910  18.924  42.6880  0.00  0.00     0.000 O
ATOM     43   O  SGN C   3       9.181  20.763  46.3160  0.00  0.00     0.000 O
ATOM     45  HD  SGN C   3      10.024  20.566  46.2980  0.00  0.00     0.000 HD
BRANCH 38 47
ATOM     45   N  SGN C   3       7.075  19.827  44.5960  0.00  0.00     0.000 N
ATOM     47  HD  SGN C   3       7.931  19.796  44.7270  0.00  0.00     0.000 HD
ATOM     47   S  SGN C   3       5.957  20.624  43.7970  0.00  0.00     0.000 S
ATOM     48   O  SGN C   3       6.037  22.020  44.0470  0.00  0.00     0.000 OA
ATOM     49   O  SGN C   3       6.054  20.210  42.4360  0.00  0.00     0.000 OA
ATOM     50   O  SGN C   3       4.733  20.129  44.4250  0.00  0.00     0.000 OA
ENDBRANCH 38 47
BRANCH 41 51
ATOM     51   C  SGN C   3      12.155  18.349  43.1850  0.00  0.00     0.000 C
ATOM     52   O  SGN C   3      15.475  18.932  41.5990  0.00  0.00     0.000 OA
ATOM     53   O  SGN C   3      14.872  17.433  43.3660  0.00  0.00     0.000 OA
ATOM     54   O  SGN C   3      13.976  17.135  41.1580  0.00  0.00     0.000 OA
ATOM     55   O  SGN C   3      13.264  18.998  42.6040  0.00  0.00     0.000 O
ATOM     56   S  SGN C   3      14.512  18.032  42.1380  0.00  0.00     0.000 S
ENDBRANCH 41 51
BRANCH 37 57
ATOM     57  O4  IDS C   4       9.347  20.997  42.0260  0.00  0.00     0.000 O
BRANCH 57 61
ATOM     58  C1  IDS C   4       8.785  23.167  38.9520  0.00  0.00     0.000 C
ATOM     59  C2  IDS C   4       7.658  22.316  39.4460  0.00  0.00     0.000 C
ATOM     60  C3  IDS C   4       8.121  20.933  39.9120  0.00  0.00     0.000 C
ATOM     61  C4  IDS C   4       9.479  20.865  40.5970  0.00  0.00     0.000 C
ATOM     62  C5  IDS C   4      10.427  21.929  40.0330  0.00  0.00     0.000 C
ATOM     63  O5  IDS C   4       9.798  23.200  39.9420  0.00  0.00     0.000 O
ATOM     64   O  IDS C   4       8.175  20.144  38.7380  0.00  0.00     0.000 O
ATOM     66  HD  IDS C   4       8.993  19.929  38.5540  0.00  0.00     0.000 HD
BRANCH 59 66
ATOM     66   O  IDS C   4       6.974  22.937  40.5960  0.00  0.00     0.000 O
ATOM     67   S  IDS C   4       5.465  23.387  40.3660  0.00  0.00     0.000 S
ATOM     68   O  IDS C   4       4.780  22.137  40.1370  0.00  0.00     0.000 OA
ATOM     69   O  IDS C   4       5.090  24.074  41.5860  0.00  0.00     0.000 OA
ATOM     70   O  IDS C   4       5.444  24.235  39.1840  0.00  0.00     0.000 OA
ENDBRANCH 59 66
BRANCH 62 71
ATOM     71   C  IDS C   4      11.659  22.143  40.8920  0.00  0.00     0.000 C
ATOM     72   O  IDS C   4      11.736  23.117  41.6160  0.00  0.00     0.000 OA
ATOM     73   O  IDS C   4      12.621  21.360  40.7560  0.00  0.00     0.000 OA
ENDBRANCH 62 71
BRANCH 58 74
ATOM     74  O4  SGN C   5       9.133  22.961  37.6500  0.00  0.00     0.000 O
BRANCH 74 78
ATOM     75  C1  SGN C   5      11.436  24.415  34.4830  0.00  0.00     0.000 C
ATOM     76  C2  SGN C   5      11.995  23.181  35.2150  0.00  0.00     0.000 C
ATOM     77  C3  SGN C   5      10.921  22.546  36.1080  0.00  0.00     0.000 C
ATOM     78  C4  SGN C   5      10.217  23.588  36.9650  0.00  0.00     0.000 C
ATOM     79  C5  SGN C   5       9.710  24.716  36.0790  0.00  0.00     0.000 C
ATOM     80  O5  SGN C   5      10.829  25.330  35.3870  0.00  0.00     0.000 O
ATOM     81   O  SGN C   5      11.529  21.553  36.9270  0.00  0.00     0.000 O
ATOM     83  HD  SGN C   5      12.168  21.048  36.6310  0.00  0.00     0.000 HD
BRANCH 76 85
ATOM     83   N  SGN C   5      13.080  22.240  34.9050  0.00  0.00     0.000 N
ATOM     85  HD  SGN C   5      13.838  22.038  34.5390  0.00  0.00     0.000 HD
ATOM     85   S  SGN C   5      13.896  22.037  33.5320  0.00  0.00     0.000 S
ATOM     86   O  SGN C   5      14.897  21.040  33.6920  0.00  0.00     0.000 OA
ATOM     87   O  SGN C   5      12.941  21.834  32.5020  0.00  0.00     0.000 OA
ATOM     88   O  SGN C   5      14.523  23.429  33.5040  0.00  0.00     0.000 OA
ENDBRANCH 76 85
BRANCH 79 89
ATOM     89   C  SGN C   5       8.970  25.797  36.8400  0.00  0.00     0.000 C
ATOM     90   O  SGN C   5       9.839  26.369  37.8480  0.00  0.00     0.000 O
ATOM     91   S  SGN C   5       9.607  27.916  38.2060  0.00  0.00     0.000 S
ATOM     92   O  SGN C   5       9.638  28.631  36.9570  0.00  0.00     0.000 OA
ATOM     93   O  SGN C   5       8.330  28.012  38.8640  0.00  0.00     0.000 OA
ATOM     94   O  SGN C   5      10.715  28.225  39.0690  0.00  0.00     0.000 OA
ENDBRANCH 79 89
BRANCH 75 95
ATOM     95  O4  BDP C   6      10.496  23.939  33.6130  0.00  0.00     0.000 O
BRANCH 95 99
ATOM     96  C1  BDP C   6       9.595  25.362  29.6630  0.00  0.00     0.000 C
ATOM     97  C2  BDP C   6      10.926  25.708  30.2680  0.00  0.00     0.000 C
ATOM     98  C3  BDP C   6      11.308  24.857  31.4890  0.00  0.00     0.000 C
ATOM     99  C4  BDP C   6      10.163  24.781  32.4890  0.00  0.00     0.000 C
ATOM    100  C5  BDP C   6       8.882  24.382  31.7190  0.00  0.00     0.000 C
ATOM    101  O5  BDP C   6       8.716  25.447  30.7690  0.00  0.00     0.000 O
BRANCH 100 102
ATOM    102   C  BDP C   6       7.660  24.351  32.6010  0.00  0.00     0.000 C
ATOM    103   O  BDP C   6       7.417  25.243  33.4260  0.00  0.00     0.000 OA
ATOM    104   O  BDP C   6       6.892  23.393  32.4570  0.00  0.00     0.000 OA
ENDBRANCH 100 102
ENDBRANCH 95 99
ENDBRANCH 75 95
ENDBRANCH 74 78
ENDBRANCH 58 74
ENDBRANCH 57 61
ENDBRANCH 37 57
ENDBRANCH 36 40
ENDBRANCH 23 36
ENDBRANCH 22 26
ENDBRANCH 1 22
TORSDOF 20
ENDMDL
MODEL 84
REMARK VINA RESULT:      -5.0      7.725     13.034
ROOT
ATOM      1  C1  NGY C   1      30.389  29.025  26.8860  0.00  0.00     0.000 C
ATOM      2  C2  NGY C   1      31.252  29.122  25.6350  0.00  0.00     0.000 C
ATOM      3  C3  NGY C   1      32.715  28.868  25.9820  0.00  0.00     0.000 C
ATOM      4  C4  NGY C   1      33.116  29.827  27.0860  0.00  0.00     0.000 C
ATOM      5  C5  NGY C   1      32.233  29.569  28.3040  0.00  0.00     0.000 C
ATOM      6  O5  NGY C   1      30.857  29.846  27.9340  0.00  0.00     0.000 O
ATOM      7   O  NGY C   1      33.507  29.036  24.8150  0.00  0.00     0.000 O
ATOM      9  HD  NGY C   1      33.515  29.551  24.1190  0.00  0.00     0.000 HD
ATOM      9   O  NGY C   1      34.484  29.662  27.4320  0.00  0.00     0.000 O
ATOM     11  HD  NGY C   1      34.491  30.177  26.7350  0.00  0.00     0.000 HD
ENDROOT
BRANCH 2 13
ATOM     11   N  NGY C   1      30.821  28.167  24.6420  0.00  0.00     0.000 N
ATOM     13  HD  NGY C   1      30.760  28.699  23.9610  0.00  0.00     0.000 HD
ATOM     13   C  NGY C   1      30.582  28.529  23.3820  0.00  0.00     0.000 C
ATOM     14   O  NGY C   1      30.582  29.715  23.0500  0.00  0.00     0.000 OA
ATOM     15   C  NGY C   1      30.346  27.424  22.3980  0.00  0.00     0.000 C
ENDBRANCH 2 13
BRANCH 5 16
ATOM     16   C  NGY C   1      32.515  30.437  29.4890  0.00  0.00     0.000 C
ATOM     17   O  NGY C   1      29.926  32.192  31.4070  0.00  0.00     0.000 OA
ATOM     18   O  NGY C   1      31.314  31.126  29.8500  0.00  0.00     0.000 O
ATOM     19   S  NGY C   1      31.284  31.722  31.3040  0.00  0.00     0.000 S
ATOM     20   O  NGY C   1      32.241  32.797  31.3420  0.00  0.00     0.000 OA
ATOM     21   O  NGY C   1      31.633  30.603  32.1650  0.00  0.00     0.000 OA
ENDBRANCH 5 16
BRANCH 1 22
ATOM     22  O4  BDP C   2      30.292  27.728  27.2460  0.00  0.00     0.000 O
BRANCH 22 26
ATOM     23  C1  BDP C   2      27.551  25.262  29.0840  0.00  0.00     0.000 C
ATOM     24  C2  BDP C   2      27.206  26.733  29.0840  0.00  0.00     0.000 C
ATOM     25  C3  BDP C   2      28.073  27.456  28.0880  0.00  0.00     0.000 C
ATOM     26  C4  BDP C   2      29.545  27.155  28.3520  0.00  0.00     0.000 C
ATOM     27  C5  BDP C   2      29.745  25.653  28.5070  0.00  0.00     0.000 C
ATOM     28  O5  BDP C   2      28.918  25.082  29.5530  0.00  0.00     0.000 O
ATOM     29   O  BDP C   2      25.879  26.980  28.6180  0.00  0.00     0.000 O
ATOM     31  HD  BDP C   2      25.760  27.701  28.1530  0.00  0.00     0.000 HD
ATOM     31   O  BDP C   2      27.822  28.846  28.2540  0.00  0.00     0.000 O
ATOM     33  HD  BDP C   2      27.703  29.567  27.7890  0.00  0.00     0.000 HD
BRANCH 27 33
ATOM     33   C  BDP C   2      31.167  25.294  28.8670  0.00  0.00     0.000 C
ATOM     34   O  BDP C   2      31.741  24.287  28.3890  0.00  0.00     0.000 OA
ATOM     35   O  BDP C   2      31.755  25.993  29.6760  0.00  0.00     0.000 OA
ENDBRANCH 27 33
BRANCH 23 36
ATOM     36  O4  SGN C   3      26.751  24.479  29.8440  0.00  0.00     0.000 O
BRANCH 36 40
ATOM     37  C1  SGN C   3      25.087  20.681  30.3250  0.00  0.00     0.000 C
ATOM     38  C2  SGN C   3      26.617  20.805  30.4010  0.00  0.00     0.000 C
ATOM     39  C3  SGN C   3      27.023  22.251  30.6460  0.00  0.00     0.000 C
ATOM     40  C4  SGN C   3      26.427  23.116  29.5570  0.00  0.00     0.000 C
ATOM     41  C5  SGN C   3      24.928  22.914  29.5390  0.00  0.00     0.000 C
ATOM     42  O5  SGN C   3      24.627  21.533  29.2880  0.00  0.00     0.000 O
ATOM     43   O  SGN C   3      28.442  22.345  30.6520  0.00  0.00     0.000 O
ATOM     45  HD  SGN C   3      28.097  23.099  30.4020  0.00  0.00     0.000 HD
BRANCH 38 47
ATOM     45   N  SGN C   3      27.580  19.712  30.1760  0.00  0.00     0.000 N
ATOM     47  HD  SGN C   3      27.372  20.546  30.0720  0.00  0.00     0.000 HD
ATOM     47   S  SGN C   3      27.270  18.446  31.0850  0.00  0.00     0.000 S
ATOM     48   O  SGN C   3      27.465  18.736  32.4620  0.00  0.00     0.000 OA
ATOM     49   O  SGN C   3      25.978  17.977  30.7060  0.00  0.00     0.000 OA
ATOM     50   O  SGN C   3      28.322  17.518  30.6720  0.00  0.00     0.000 OA
ENDBRANCH 38 47
BRANCH 41 51
ATOM     51   C  SGN C   3      24.209  23.728  28.4970  0.00  0.00     0.000 C
ATOM     52   O  SGN C   3      25.300  24.371  24.9930  0.00  0.00     0.000 OA
ATOM     53   O  SGN C   3      23.091  24.108  25.8780  0.00  0.00     0.000 OA
ATOM     54   O  SGN C   3      24.454  25.969  26.5430  0.00  0.00     0.000 OA
ATOM     55   O  SGN C   3      24.941  23.673  27.2930  0.00  0.00     0.000 O
ATOM     56   S  SGN C   3      24.395  24.620  26.0630  0.00  0.00     0.000 S
ENDBRANCH 41 51
BRANCH 37 57
ATOM     57  O4  IDS C   4      24.435  21.013  31.4670  0.00  0.00     0.000 O
BRANCH 57 61
ATOM     58  C1  IDS C   4      22.050  19.776  34.1590  0.00  0.00     0.000 C
ATOM     59  C2  IDS C   4      22.873  18.774  33.4140  0.00  0.00     0.000 C
ATOM     60  C3  IDS C   4      22.988  19.095  31.9220  0.00  0.00     0.000 C
ATOM     61  C4  IDS C   4      23.067  20.569  31.5470  0.00  0.00     0.000 C
ATOM     62  C5  IDS C   4      22.270  21.425  32.5380  0.00  0.00     0.000 C
ATOM     63  O5  IDS C   4      22.553  21.072  33.8850  0.00  0.00     0.000 O
ATOM     64   O  IDS C   4      21.825  18.547  31.3320  0.00  0.00     0.000 O
ATOM     66  HD  IDS C   4      21.311  19.177  31.0320  0.00  0.00     0.000 HD
BRANCH 59 66
ATOM     66   O  IDS C   4      24.251  18.708  33.9360  0.00  0.00     0.000 O
ATOM     67   S  IDS C   4      24.683  17.345  34.6330  0.00  0.00     0.000 S
ATOM     68   O  IDS C   4      24.634  16.392  33.5500  0.00  0.00     0.000 OA
ATOM     69   O  IDS C   4      26.008  17.600  35.1620  0.00  0.00     0.000 OA
ATOM     70   O  IDS C   4      23.689  17.049  35.6530  0.00  0.00     0.000 OA
ENDBRANCH 59 66
BRANCH 62 71
ATOM     71   C  IDS C   4      22.582  22.906  32.4300  0.00  0.00     0.000 C
ATOM     72   O  IDS C   4      23.347  23.427  33.2180  0.00  0.00     0.000 OA
ATOM     73   O  IDS C   4      21.960  23.583  31.5880  0.00  0.00     0.000 OA
ENDBRANCH 62 71
BRANCH 58 74
ATOM     74  O4  SGN C   5      20.704  19.561  34.1170  0.00  0.00     0.000 O
BRANCH 74 78
ATOM     75  C1  SGN C   5      17.123  20.363  36.1120  0.00  0.00     0.000 C
ATOM     76  C2  SGN C   5      17.317  21.073  34.7580  0.00  0.00     0.000 C
ATOM     77  C3  SGN C   5      18.480  20.446  33.9790  0.00  0.00     0.000 C
ATOM     78  C4  SGN C   5      19.718  20.287  34.8510  0.00  0.00     0.000 C
ATOM     79  C5  SGN C   5      19.347  19.546  36.1270  0.00  0.00     0.000 C
ATOM     80  O5  SGN C   5      18.337  20.299  36.8490  0.00  0.00     0.000 O
ATOM     81   O  SGN C   5      18.768  21.260  32.8460  0.00  0.00     0.000 O
ATOM     83  HD  SGN C   5      18.140  21.655  32.3990  0.00  0.00     0.000 HD
BRANCH 76 85
ATOM     83   N  SGN C   5      16.355  21.545  33.7550  0.00  0.00     0.000 N
ATOM     85  HD  SGN C   5      15.704  22.055  33.4970  0.00  0.00     0.000 HD
ATOM     85   S  SGN C   5      14.801  21.931  33.9300  0.00  0.00     0.000 S
ATOM     86   O  SGN C   5      14.260  22.387  32.6960  0.00  0.00     0.000 OA
ATOM     87   O  SGN C   5      14.161  20.824  34.5450  0.00  0.00     0.000 OA
ATOM     88   O  SGN C   5      15.027  23.102  34.8830  0.00  0.00     0.000 OA
ENDBRANCH 76 85
BRANCH 79 89
ATOM     89   C  SGN C   5      20.523  19.316  37.0550  0.00  0.00     0.000 C
ATOM     90   O  SGN C   5      20.659  20.438  37.9610  0.00  0.00     0.000 O
ATOM     91   S  SGN C   5      21.245  20.118  39.4210  0.00  0.00     0.000 S
ATOM     92   O  SGN C   5      20.443  19.050  39.9560  0.00  0.00     0.000 OA
ATOM     93   O  SGN C   5      22.624  19.739  39.2500  0.00  0.00     0.000 OA
ATOM     94   O  SGN C   5      21.082  21.363  40.1220  0.00  0.00     0.000 OA
ENDBRANCH 79 89
BRANCH 75 95
ATOM     95  O4  BDP C   6      16.702  19.098  35.8120  0.00  0.00     0.000 O
BRANCH 95 99
ATOM     96  C1  BDP C   6      14.074  16.622  38.1380  0.00  0.00     0.000 C
ATOM     97  C2  BDP C   6      14.129  18.094  38.4350  0.00  0.00     0.000 C
ATOM     98  C3  BDP C   6      14.782  18.939  37.3310  0.00  0.00     0.000 C
ATOM     99  C4  BDP C   6      16.107  18.338  36.8860  0.00  0.00     0.000 C
ATOM    100  C5  BDP C   6      15.875  16.838  36.5870  0.00  0.00     0.000 C
ATOM    101  O5  BDP C   6      15.423  16.310  37.8440  0.00  0.00     0.000 O
BRANCH 100 102
ATOM    102   C  BDP C   6      17.145  16.117  36.2100  0.00  0.00     0.000 C
ATOM    103   O  BDP C   6      18.230  16.358  36.7570  0.00  0.00     0.000 OA
ATOM    104   O  BDP C   6      17.057  15.254  35.3290  0.00  0.00     0.000 OA
ENDBRANCH 100 102
ENDBRANCH 95 99
ENDBRANCH 75 95
ENDBRANCH 74 78
ENDBRANCH 58 74
ENDBRANCH 57 61
ENDBRANCH 37 57
ENDBRANCH 36 40
ENDBRANCH 23 36
ENDBRANCH 22 26
ENDBRANCH 1 22
TORSDOF 20
ENDMDL
MODEL 85
REMARK VINA RESULT:      -4.9     14.846     19.897
ROOT
ATOM      1  C1  NGY C   1      34.791  18.955  24.2870  0.00  0.00     0.000 C
ATOM      2  C2  NGY C   1      34.812  20.472  24.4030  0.00  0.00     0.000 C
ATOM      3  C3  NGY C   1      33.416  21.040  24.1670  0.00  0.00     0.000 C
ATOM      4  C4  NGY C   1      32.915  20.529  22.8290  0.00  0.00     0.000 C
ATOM      5  C5  NGY C   1      32.865  19.004  22.8750  0.00  0.00     0.000 C
ATOM      6  O5  NGY C   1      34.215  18.511  23.0770  0.00  0.00     0.000 O
ATOM      7   O  NGY C   1      33.475  22.458  24.2080  0.00  0.00     0.000 O
ATOM      9  HD  NGY C   1      34.027  23.080  23.9680  0.00  0.00     0.000 HD
ATOM      9   O  NGY C   1      31.628  21.051  22.5350  0.00  0.00     0.000 O
ATOM     11  HD  NGY C   1      32.180  21.673  22.2950  0.00  0.00     0.000 HD
ENDROOT
BRANCH 2 13
ATOM     11   N  NGY C   1      35.881  20.595  25.3660  0.00  0.00     0.000 N
ATOM     13  HD  NGY C   1      35.867  21.454  25.4730  0.00  0.00     0.000 HD
ATOM     13   C  NGY C   1      36.250  21.779  25.8530  0.00  0.00     0.000 C
ATOM     14   O  NGY C   1      35.791  22.827  25.3950  0.00  0.00     0.000 OA
ATOM     15   C  NGY C   1      37.221  21.765  26.9930  0.00  0.00     0.000 C
ENDBRANCH 2 13
BRANCH 5 16
ATOM     16   C  NGY C   1      32.378  18.347  21.6230  0.00  0.00     0.000 C
ATOM     17   O  NGY C   1      32.603  14.742  20.9800  0.00  0.00     0.000 OA
ATOM     18   O  NGY C   1      32.817  16.986  21.6180  0.00  0.00     0.000 O
ATOM     19   S  NGY C   1      32.049  16.028  20.6380  0.00  0.00     0.000 S
ATOM     20   O  NGY C   1      32.387  16.431  19.2980  0.00  0.00     0.000 OA
ATOM     21   O  NGY C   1      30.645  16.218  20.9650  0.00  0.00     0.000 OA
ENDBRANCH 5 16
BRANCH 1 22
ATOM     22  O4  BDP C   2      34.175  18.444  25.3740  0.00  0.00     0.000 O
BRANCH 22 26
ATOM     23  C1  BDP C   2      33.865  15.289  28.0030  0.00  0.00     0.000 C
ATOM     24  C2  BDP C   2      35.186  15.404  27.2800  0.00  0.00     0.000 C
ATOM     25  C3  BDP C   2      35.300  16.768  26.6510  0.00  0.00     0.000 C
ATOM     26  C4  BDP C   2      34.079  17.054  25.7830  0.00  0.00     0.000 C
ATOM     27  C5  BDP C   2      32.808  16.736  26.5590  0.00  0.00     0.000 C
ATOM     28  O5  BDP C   2      32.774  15.369  27.0440  0.00  0.00     0.000 O
ATOM     29   O  BDP C   2      36.301  15.349  28.1690  0.00  0.00     0.000 O
ATOM     31  HD  BDP C   2      36.981  15.846  27.9690  0.00  0.00     0.000 HD
ATOM     31   O  BDP C   2      36.476  16.757  25.8510  0.00  0.00     0.000 O
ATOM     33  HD  BDP C   2      37.157  17.254  25.6500  0.00  0.00     0.000 HD
BRANCH 27 33
ATOM     33   C  BDP C   2      31.563  16.905  25.7220  0.00  0.00     0.000 C
ATOM     34   O  BDP C   2      30.560  17.533  26.1400  0.00  0.00     0.000 OA
ATOM     35   O  BDP C   2      31.528  16.382  24.6210  0.00  0.00     0.000 OA
ENDBRANCH 27 33
BRANCH 23 36
ATOM     36  O4  SGN C   3      33.696  14.155  28.7220  0.00  0.00     0.000 O
BRANCH 36 40
ATOM     37  C1  SGN C   3      32.036  12.539  32.1950  0.00  0.00     0.000 C
ATOM     38  C2  SGN C   3      31.176  13.519  31.3820  0.00  0.00     0.000 C
ATOM     39  C3  SGN C   3      31.725  13.665  29.9710  0.00  0.00     0.000 C
ATOM     40  C4  SGN C   3      33.173  14.098  30.0520  0.00  0.00     0.000 C
ATOM     41  C5  SGN C   3      33.937  13.092  30.8860  0.00  0.00     0.000 C
ATOM     42  O5  SGN C   3      33.370  13.024  32.2030  0.00  0.00     0.000 O
ATOM     43   O  SGN C   3      30.947  14.621  29.2610  0.00  0.00     0.000 O
ATOM     45  HD  SGN C   3      31.752  14.601  28.9420  0.00  0.00     0.000 HD
BRANCH 38 47
ATOM     45   N  SGN C   3      30.072  14.301  31.9680  0.00  0.00     0.000 N
ATOM     47  HD  SGN C   3      30.770  14.278  31.4550  0.00  0.00     0.000 HD
ATOM     47   S  SGN C   3      28.958  13.370  32.6150  0.00  0.00     0.000 S
ATOM     48   O  SGN C   3      28.288  12.601  31.6260  0.00  0.00     0.000 OA
ATOM     49   O  SGN C   3      29.592  12.645  33.6680  0.00  0.00     0.000 OA
ATOM     50   O  SGN C   3      28.011  14.355  33.1330  0.00  0.00     0.000 OA
ENDBRANCH 38 47
BRANCH 41 51
ATOM     51   C  SGN C   3      35.400  13.406  31.0410  0.00  0.00     0.000 C
ATOM     52   O  SGN C   3      37.015  15.317  33.8010  0.00  0.00     0.000 OA
ATOM     53   O  SGN C   3      37.854  13.467  32.5330  0.00  0.00     0.000 OA
ATOM     54   O  SGN C   3      37.408  15.571  31.4660  0.00  0.00     0.000 OA
ATOM     55   O  SGN C   3      35.590  14.106  32.2510  0.00  0.00     0.000 O
ATOM     56   S  SGN C   3      37.109  14.668  32.5380  0.00  0.00     0.000 S
ENDBRANCH 41 51
BRANCH 37 57
ATOM     57  O4  IDS C   4      32.051  11.269  31.7190  0.00  0.00     0.000 O
BRANCH 57 61
ATOM     58  C1  IDS C   4      32.013   7.547  32.5010  0.00  0.00     0.000 C
ATOM     59  C2  IDS C   4      31.304   8.483  33.4280  0.00  0.00     0.000 C
ATOM     60  C3  IDS C   4      32.076   9.784  33.6600  0.00  0.00     0.000 C
ATOM     61  C4  IDS C   4      32.850  10.337  32.4720  0.00  0.00     0.000 C
ATOM     62  C5  IDS C   4      33.356   9.201  31.5760  0.00  0.00     0.000 C
ATOM     63  O5  IDS C   4      32.339   8.245  31.3120  0.00  0.00     0.000 O
ATOM     64   O  IDS C   4      32.997   9.491  34.6940  0.00  0.00     0.000 O
ATOM     66  HD  IDS C   4      33.809   9.516  34.3930  0.00  0.00     0.000 HD
BRANCH 59 66
ATOM     66   O  IDS C   4      29.981   8.870  32.9020  0.00  0.00     0.000 O
ATOM     67   S  IDS C   4      28.716   8.413  33.7520  0.00  0.00     0.000 S
ATOM     68   O  IDS C   4      28.870   9.143  34.9880  0.00  0.00     0.000 OA
ATOM     69   O  IDS C   4      27.570   8.798  32.9530  0.00  0.00     0.000 OA
ATOM     70   O  IDS C   4      28.833   6.977  33.9590  0.00  0.00     0.000 OA
ENDBRANCH 59 66
BRANCH 62 71
ATOM     71   C  IDS C   4      33.828   9.681  30.2160  0.00  0.00     0.000 C
ATOM     72   O  IDS C   4      34.937  10.165  30.0920  0.00  0.00     0.000 OA
ATOM     73   O  IDS C   4      33.021   9.662  29.2660  0.00  0.00     0.000 OA
ENDBRANCH 62 71
BRANCH 58 74
ATOM     74  O4  SGN C   5      32.956   6.758  33.0900  0.00  0.00     0.000 O
BRANCH 74 78
ATOM     75  C1  SGN C   5      35.137   3.226  32.6290  0.00  0.00     0.000 C
ATOM     76  C2  SGN C   5      34.780   3.974  31.3310  0.00  0.00     0.000 C
ATOM     77  C3  SGN C   5      34.294   5.397  31.6400  0.00  0.00     0.000 C
ATOM     78  C4  SGN C   5      33.247   5.404  32.7450  0.00  0.00     0.000 C
ATOM     79  C5  SGN C   5      33.777   4.646  33.9530  0.00  0.00     0.000 C
ATOM     80  O5  SGN C   5      34.075   3.276  33.5730  0.00  0.00     0.000 O
ATOM     81   O  SGN C   5      33.769   5.975  30.4500  0.00  0.00     0.000 O
ATOM     83  HD  SGN C   5      34.125   5.822  29.6750  0.00  0.00     0.000 HD
BRANCH 76 85
ATOM     83   N  SGN C   5      36.099   3.688  30.7540  0.00  0.00     0.000 N
ATOM     85  HD  SGN C   5      36.656   3.656  30.0920  0.00  0.00     0.000 HD
ATOM     85   S  SGN C   5      36.472   3.001  29.3460  0.00  0.00     0.000 S
ATOM     86   O  SGN C   5      37.883   2.962  29.1710  0.00  0.00     0.000 OA
ATOM     87   O  SGN C   5      35.779   1.765  29.2850  0.00  0.00     0.000 OA
ATOM     88   O  SGN C   5      35.852   4.083  28.4650  0.00  0.00     0.000 OA
ENDBRANCH 76 85
BRANCH 79 89
ATOM     89   C  SGN C   5      32.812   4.617  35.1200  0.00  0.00     0.000 C
ATOM     90   O  SGN C   5      33.342   5.406  36.2130  0.00  0.00     0.000 O
ATOM     91   S  SGN C   5      32.271   6.138  37.1590  0.00  0.00     0.000 S
ATOM     92   O  SGN C   5      31.404   6.886  36.2870  0.00  0.00     0.000 OA
ATOM     93   O  SGN C   5      31.571   5.109  37.8820  0.00  0.00     0.000 OA
ATOM     94   O  SGN C   5      33.089   6.968  38.0020  0.00  0.00     0.000 OA
ENDBRANCH 79 89
BRANCH 75 95
ATOM     95  O4  BDP C   6      36.232   3.866  33.1370  0.00  0.00     0.000 O
BRANCH 95 99
ATOM     96  C1  BDP C   6      39.594   2.310  35.3120  0.00  0.00     0.000 C
ATOM     97  C2  BDP C   6      38.946   1.444  34.2690  0.00  0.00     0.000 C
ATOM     98  C3  BDP C   6      38.026   2.201  33.2990  0.00  0.00     0.000 C
ATOM     99  C4  BDP C   6      37.064   3.112  34.0460  0.00  0.00     0.000 C
ATOM    100  C5  BDP C   6      37.885   3.956  35.0480  0.00  0.00     0.000 C
ATOM    101  O5  BDP C   6      38.490   2.971  35.9020  0.00  0.00     0.000 O
BRANCH 100 102
ATOM    102   C  BDP C   6      37.021   4.846  35.9050  0.00  0.00     0.000 C
ATOM    103   O  BDP C   6      36.607   4.493  37.0190  0.00  0.00     0.000 OA
ATOM    104   O  BDP C   6      36.746   5.963  35.4510  0.00  0.00     0.000 OA
ENDBRANCH 100 102
ENDBRANCH 95 99
ENDBRANCH 75 95
ENDBRANCH 74 78
ENDBRANCH 58 74
ENDBRANCH 57 61
ENDBRANCH 37 57
ENDBRANCH 36 40
ENDBRANCH 23 36
ENDBRANCH 22 26
ENDBRANCH 1 22
TORSDOF 20
ENDMDL
MODEL 86
REMARK VINA RESULT:      -4.9     20.266     26.639
ROOT
ATOM      1  C1  NGY C   1      41.418  18.726  12.7550  0.00  0.00     0.000 C
ATOM      2  C2  NGY C   1      42.383  17.931  13.6240  0.00  0.00     0.000 C
ATOM      3  C3  NGY C   1      42.289  18.391  15.0750  0.00  0.00     0.000 C
ATOM      4  C4  NGY C   1      42.514  19.891  15.1140  0.00  0.00     0.000 C
ATOM      5  C5  NGY C   1      41.435  20.569  14.2740  0.00  0.00     0.000 C
ATOM      6  O5  NGY C   1      41.579  20.120  12.9010  0.00  0.00     0.000 O
ATOM      7   O  NGY C   1      43.248  17.687  15.8510  0.00  0.00     0.000 O
ATOM      9  HD  NGY C   1      44.054  17.387  15.7490  0.00  0.00     0.000 HD
ATOM      9   O  NGY C   1      42.471  20.376  16.4480  0.00  0.00     0.000 O
ATOM     11  HD  NGY C   1      43.278  20.077  16.3460  0.00  0.00     0.000 HD
ENDROOT
BRANCH 2 13
ATOM     11   N  NGY C   1      42.102  16.564  13.2550  0.00  0.00     0.000 N
ATOM     13  HD  NGY C   1      42.888  16.225  13.3830  0.00  0.00     0.000 HD
ATOM     13   C  NGY C   1      43.044  15.623  13.2890  0.00  0.00     0.000 C
ATOM     14   O  NGY C   1      44.224  15.910  13.4990  0.00  0.00     0.000 OA
ATOM     15   C  NGY C   1      42.591  14.209  13.0890  0.00  0.00     0.000 C
ENDBRANCH 2 13
BRANCH 5 16
ATOM     16   C  NGY C   1      41.517  22.061  14.2210  0.00  0.00     0.000 C
ATOM     17   O  NGY C   1      39.220  24.303  15.9980  0.00  0.00     0.000 OA
ATOM     18   O  NGY C   1      40.351  22.608  14.8440  0.00  0.00     0.000 O
ATOM     19   S  NGY C   1      40.456  24.112  15.2840  0.00  0.00     0.000 S
ATOM     20   O  NGY C   1      40.523  24.903  14.0830  0.00  0.00     0.000 OA
ATOM     21   O  NGY C   1      41.666  24.175  16.0880  0.00  0.00     0.000 OA
ENDBRANCH 5 16
BRANCH 1 22
ATOM     22  O4  BDP C   2      40.159  18.317  13.0180  0.00  0.00     0.000 O
BRANCH 22 26
ATOM     23  C1  BDP C   2      36.316  17.482  11.7960  0.00  0.00     0.000 C
ATOM     24  C2  BDP C   2      37.412  16.841  10.9770  0.00  0.00     0.000 C
ATOM     25  C3  BDP C   2      38.715  16.919  11.7280  0.00  0.00     0.000 C
ATOM     26  C4  BDP C   2      38.999  18.358  12.1460  0.00  0.00     0.000 C
ATOM     27  C5  BDP C   2      37.764  18.959  12.8050  0.00  0.00     0.000 C
ATOM     28  O5  BDP C   2      36.591  18.903  11.9540  0.00  0.00     0.000 O
ATOM     29   O  BDP C   2      37.209  15.440  10.7990  0.00  0.00     0.000 O
ATOM     31  HD  BDP C   2      37.919  14.943  10.7930  0.00  0.00     0.000 HD
ATOM     31   O  BDP C   2      39.729  16.457  10.8450  0.00  0.00     0.000 O
ATOM     33  HD  BDP C   2      40.439  15.961  10.8390  0.00  0.00     0.000 HD
BRANCH 27 33
ATOM     33   C  BDP C   2      37.948  20.416  13.1550  0.00  0.00     0.000 C
ATOM     34   O  BDP C   2      38.455  21.235  12.3510  0.00  0.00     0.000 OA
ATOM     35   O  BDP C   2      37.620  20.792  14.2680  0.00  0.00     0.000 OA
ENDBRANCH 27 33
BRANCH 23 36
ATOM     36  O4  SGN C   3      35.067  17.362  11.2870  0.00  0.00     0.000 O
BRANCH 36 40
ATOM     37  C1  SGN C   3      31.034  16.876  12.2500  0.00  0.00     0.000 C
ATOM     38  C2  SGN C   3      31.565  18.311  12.1010  0.00  0.00     0.000 C
ATOM     39  C3  SGN C   3      32.883  18.314  11.3410  0.00  0.00     0.000 C
ATOM     40  C4  SGN C   3      33.862  17.408  12.0560  0.00  0.00     0.000 C
ATOM     41  C5  SGN C   3      33.250  16.030  12.1780  0.00  0.00     0.000 C
ATOM     42  O5  SGN C   3      32.023  16.108  12.9180  0.00  0.00     0.000 O
ATOM     43   O  SGN C   3      33.379  19.645  11.2700  0.00  0.00     0.000 O
ATOM     45  HD  SGN C   3      34.037  19.083  11.2370  0.00  0.00     0.000 HD
BRANCH 38 47
ATOM     45   N  SGN C   3      30.984  19.585  12.5610  0.00  0.00     0.000 N
ATOM     47  HD  SGN C   3      31.690  19.124  12.3620  0.00  0.00     0.000 HD
ATOM     47   S  SGN C   3      29.417  19.655  12.3030  0.00  0.00     0.000 S
ATOM     48   O  SGN C   3      29.121  19.676  10.9150  0.00  0.00     0.000 OA
ATOM     49   O  SGN C   3      28.830  18.603  13.0670  0.00  0.00     0.000 OA
ATOM     50   O  SGN C   3      29.085  20.969  12.8510  0.00  0.00     0.000 OA
ENDBRANCH 38 47
BRANCH 41 51
ATOM     51   C  SGN C   3      34.131  15.025  12.8710  0.00  0.00     0.000 C
ATOM     52   O  SGN C   3      35.753  12.030  11.3630  0.00  0.00     0.000 OA
ATOM     53   O  SGN C   3      36.535  13.471  13.1070  0.00  0.00     0.000 OA
ATOM     54   O  SGN C   3      34.571  12.128  13.4280  0.00  0.00     0.000 OA
ATOM     55   O  SGN C   3      34.575  14.079  11.9240  0.00  0.00     0.000 O
ATOM     56   S  SGN C   3      35.438  12.808  12.5120  0.00  0.00     0.000 S
ENDBRANCH 41 51
BRANCH 37 57
ATOM     57  O4  IDS C   4      30.737  16.258  11.0810  0.00  0.00     0.000 O
BRANCH 57 61
ATOM     58  C1  IDS C   4      28.370  14.559   8.6350  0.00  0.00     0.000 C
ATOM     59  C2  IDS C   4      27.955  15.858   9.2500  0.00  0.00     0.000 C
ATOM     60  C3  IDS C   4      28.336  15.960  10.7300  0.00  0.00     0.000 C
ATOM     61  C4  IDS C   4      29.651  15.313  11.1410  0.00  0.00     0.000 C
ATOM     62  C5  IDS C   4      29.946  14.083  10.2740  0.00  0.00     0.000 C
ATOM     63  O5  IDS C   4      29.748  14.352   8.8930  0.00  0.00     0.000 O
ATOM     64   O  IDS C   4      27.286  15.319  11.4290  0.00  0.00     0.000 O
ATOM     66  HD  IDS C   4      27.571  14.592  11.8050  0.00  0.00     0.000 HD
BRANCH 59 66
ATOM     66   O  IDS C   4      28.591  17.005   8.5750  0.00  0.00     0.000 O
ATOM     67   S  IDS C   4      27.622  17.995   7.7920  0.00  0.00     0.000 S
ATOM     68   O  IDS C   4      26.815  18.564   8.8430  0.00  0.00     0.000 OA
ATOM     69   O  IDS C   4      28.505  18.931   7.1240  0.00  0.00     0.000 OA
ATOM     70   O  IDS C   4      26.826  17.187   6.8810  0.00  0.00     0.000 OA
ENDBRANCH 59 66
BRANCH 62 71
ATOM     71   C  IDS C   4      31.379  13.601  10.3950  0.00  0.00     0.000 C
ATOM     72   O  IDS C   4      32.173  13.815   9.4990  0.00  0.00     0.000 OA
ATOM     73   O  IDS C   4      31.688  12.897  11.3770  0.00  0.00     0.000 OA
ENDBRANCH 62 71
BRANCH 58 74
ATOM     74  O4  SGN C   5      27.495  13.529   8.8220  0.00  0.00     0.000 O
BRANCH 74 78
ATOM     75  C1  SGN C   5      25.573  10.833   6.2760  0.00  0.00     0.000 C
ATOM     76  C2  SGN C   5      25.992  10.282   7.6530  0.00  0.00     0.000 C
ATOM     77  C3  SGN C   5      26.364  11.427   8.6050  0.00  0.00     0.000 C
ATOM     78  C4  SGN C   5      27.315  12.417   7.9460  0.00  0.00     0.000 C
ATOM     79  C5  SGN C   5      26.732  12.872   6.6170  0.00  0.00     0.000 C
ATOM     80  O5  SGN C   5      26.549  11.722   5.7480  0.00  0.00     0.000 O
ATOM     81   O  SGN C   5      26.950  10.877   9.7800  0.00  0.00     0.000 O
ATOM     83  HD  SGN C   5      26.669  10.133  10.1230  0.00  0.00     0.000 HD
BRANCH 76 85
ATOM     83   N  SGN C   5      24.801   9.435   7.5080  0.00  0.00     0.000 N
ATOM     85  HD  SGN C   5      24.216   8.875   7.8150  0.00  0.00     0.000 HD
ATOM     85   S  SGN C   5      24.529   7.949   8.0680  0.00  0.00     0.000 S
ATOM     86   O  SGN C   5      23.215   7.524   7.7290  0.00  0.00     0.000 OA
ATOM     87   O  SGN C   5      25.605   7.133   7.6310  0.00  0.00     0.000 OA
ATOM     88   O  SGN C   5      24.612   8.312   9.5480  0.00  0.00     0.000 OA
ENDBRANCH 76 85
BRANCH 79 89
ATOM     89   C  SGN C   5      27.598  13.883   5.8920  0.00  0.00     0.000 C
ATOM     90   O  SGN C   5      27.750  13.493   4.5050  0.00  0.00     0.000 O
ATOM     91   S  SGN C   5      27.916  14.679   3.4370  0.00  0.00     0.000 S
ATOM     92   O  SGN C   5      26.815  15.581   3.6570  0.00  0.00     0.000 OA
ATOM     93   O  SGN C   5      29.192  15.298   3.6860  0.00  0.00     0.000 OA
ATOM     94   O  SGN C   5      27.853  13.997   2.1730  0.00  0.00     0.000 OA
ENDBRANCH 79 89
BRANCH 75 95
ATOM     95  O4  BDP C   6      24.403  11.508   6.4860  0.00  0.00     0.000 O
BRANCH 95 99
ATOM     96  C1  BDP C   6      21.589  12.793   3.5070  0.00  0.00     0.000 C
ATOM     97  C2  BDP C   6      22.620  11.766   3.1300  0.00  0.00     0.000 C
ATOM     98  C3  BDP C   6      23.315  11.098   4.3260  0.00  0.00     0.000 C
ATOM     99  C4  BDP C   6      23.796  12.132   5.3340  0.00  0.00     0.000 C
ATOM    100  C5  BDP C   6      22.617  13.085   5.6410  0.00  0.00     0.000 C
ATOM    101  O5  BDP C   6      22.309  13.662   4.3620  0.00  0.00     0.000 O
BRANCH 100 102
ATOM    102   C  BDP C   6      23.003  14.204   6.5750  0.00  0.00     0.000 C
ATOM    103   O  BDP C   6      22.333  14.490   7.5780  0.00  0.00     0.000 OA
ATOM    104   O  BDP C   6      24.035  14.828   6.3030  0.00  0.00     0.000 OA
ENDBRANCH 100 102
ENDBRANCH 95 99
ENDBRANCH 75 95
ENDBRANCH 74 78
ENDBRANCH 58 74
ENDBRANCH 57 61
ENDBRANCH 37 57
ENDBRANCH 36 40
ENDBRANCH 23 36
ENDBRANCH 22 26
ENDBRANCH 1 22
TORSDOF 20
ENDMDL
MODEL 87
REMARK VINA RESULT:      -4.7     11.674     16.545
ROOT
ATOM      1  C1  NGY C   1      19.896  40.391  21.4850  0.00  0.00     0.000 C
ATOM      2  C2  NGY C   1      21.076  40.634  22.4160  0.00  0.00     0.000 C
ATOM      3  C3  NGY C   1      20.860  41.913  23.2180  0.00  0.00     0.000 C
ATOM      4  C4  NGY C   1      20.596  43.046  22.2460  0.00  0.00     0.000 C
ATOM      5  C5  NGY C   1      19.346  42.715  21.4350  0.00  0.00     0.000 C
ATOM      6  O5  NGY C   1      19.606  41.508  20.6720  0.00  0.00     0.000 O
ATOM      7   O  NGY C   1      22.004  42.157  24.0240  0.00  0.00     0.000 O
ATOM      9  HD  NGY C   1      22.862  42.060  23.9590  0.00  0.00     0.000 HD
ATOM      9   O  NGY C   1      20.420  44.276  22.9330  0.00  0.00     0.000 O
ATOM     11  HD  NGY C   1      21.278  44.179  22.8680  0.00  0.00     0.000 HD
ENDROOT
BRANCH 2 13
ATOM     11   N  NGY C   1      21.240  39.354  23.0640  0.00  0.00     0.000 N
ATOM     13  HD  NGY C   1      22.094  39.385  23.2080  0.00  0.00     0.000 HD
ATOM     13   C  NGY C   1      22.432  38.933  23.4850  0.00  0.00     0.000 C
ATOM     14   O  NGY C   1      23.460  39.555  23.2120  0.00  0.00     0.000 OA
ATOM     15   C  NGY C   1      22.449  37.692  24.3250  0.00  0.00     0.000 C
ENDBRANCH 2 13
BRANCH 5 16
ATOM     16   C  NGY C   1      18.948  43.749  20.4310  0.00  0.00     0.000 C
ATOM     17   O  NGY C   1      16.342  46.267  21.0060  0.00  0.00     0.000 OA
ATOM     18   O  NGY C   1      17.771  44.414  20.8980  0.00  0.00     0.000 O
ATOM     19   S  NGY C   1      17.461  45.800  20.2270  0.00  0.00     0.000 S
ATOM     20   O  NGY C   1      17.105  45.540  18.8570  0.00  0.00     0.000 OA
ATOM     21   O  NGY C   1      18.692  46.560  20.3720  0.00  0.00     0.000 OA
ENDBRANCH 5 16
BRANCH 1 22
ATOM     22  O4  BDP C   2      18.836  39.995  22.2210  0.00  0.00     0.000 O
BRANCH 22 26
ATOM     23  C1  BDP C   2      15.381  37.795  22.6530  0.00  0.00     0.000 C
ATOM     24  C2  BDP C   2      16.570  37.038  22.1090  0.00  0.00     0.000 C
ATOM     25  C3  BDP C   2      17.827  37.834  22.3440  0.00  0.00     0.000 C
ATOM     26  C4  BDP C   2      17.670  39.245  21.7880  0.00  0.00     0.000 C
ATOM     27  C5  BDP C   2      16.353  39.845  22.2630  0.00  0.00     0.000 C
ATOM     28  O5  BDP C   2      15.206  39.031  21.9050  0.00  0.00     0.000 O
ATOM     29   O  BDP C   2      16.807  35.818  22.8120  0.00  0.00     0.000 O
ATOM     31  HD  BDP C   2      17.635  35.587  22.9180  0.00  0.00     0.000 HD
ATOM     31   O  BDP C   2      18.878  37.156  21.6670  0.00  0.00     0.000 O
ATOM     33  HD  BDP C   2      19.706  36.925  21.7740  0.00  0.00     0.000 HD
BRANCH 27 33
ATOM     33   C  BDP C   2      16.090  41.207  21.6680  0.00  0.00     0.000 C
ATOM     34   O  BDP C   2      16.174  41.422  20.4350  0.00  0.00     0.000 OA
ATOM     35   O  BDP C   2      15.823  42.128  22.4220  0.00  0.00     0.000 OA
ENDBRANCH 27 33
BRANCH 23 36
ATOM     36  O4  SGN C   3      14.205  37.127  22.6200  0.00  0.00     0.000 O
BRANCH 36 40
ATOM     37  C1  SGN C   3      10.734  36.228  24.7580  0.00  0.00     0.000 C
ATOM     38  C2  SGN C   3      10.719  37.481  23.8680  0.00  0.00     0.000 C
ATOM     39  C3  SGN C   3      11.851  37.425  22.8520  0.00  0.00     0.000 C
ATOM     40  C4  SGN C   3      13.162  37.256  23.5900  0.00  0.00     0.000 C
ATOM     41  C5  SGN C   3      13.078  36.017  24.4550  0.00  0.00     0.000 C
ATOM     42  O5  SGN C   3      12.000  36.154  25.3940  0.00  0.00     0.000 O
ATOM     43   O  SGN C   3      11.850  38.621  22.0830  0.00  0.00     0.000 O
ATOM     45  HD  SGN C   3      12.651  38.293  22.1170  0.00  0.00     0.000 HD
BRANCH 38 47
ATOM     45   N  SGN C   3       9.718  38.126  24.7350  0.00  0.00     0.000 N
ATOM     47  HD  SGN C   3      10.551  37.962  24.5640  0.00  0.00     0.000 HD
ATOM     47   S  SGN C   3       8.285  38.188  24.0500  0.00  0.00     0.000 S
ATOM     48   O  SGN C   3       8.291  39.041  22.9140  0.00  0.00     0.000 OA
ATOM     49   O  SGN C   3       7.876  36.839  23.8350  0.00  0.00     0.000 OA
ATOM     50   O  SGN C   3       7.486  38.834  25.0890  0.00  0.00     0.000 OA
ENDBRANCH 38 47
BRANCH 41 51
ATOM     51   C  SGN C   3      14.328  35.732  25.2430  0.00  0.00     0.000 C
ATOM     52   O  SGN C   3      14.735  35.843  28.9440  0.00  0.00     0.000 OA
ATOM     53   O  SGN C   3      15.778  34.406  27.3390  0.00  0.00     0.000 OA
ATOM     54   O  SGN C   3      16.206  36.768  27.3160  0.00  0.00     0.000 OA
ATOM     55   O  SGN C   3      14.034  35.839  26.6180  0.00  0.00     0.000 O
ATOM     56   S  SGN C   3      15.309  35.702  27.6500  0.00  0.00     0.000 S
ENDBRANCH 41 51
BRANCH 37 57
ATOM     57  O4  IDS C   4      10.522  35.062  24.0990  0.00  0.00     0.000 O
BRANCH 57 61
ATOM     58  C1  IDS C   4       8.770  31.695  23.8490  0.00  0.00     0.000 C
ATOM     59  C2  IDS C   4       8.008  32.862  24.3930  0.00  0.00     0.000 C
ATOM     60  C3  IDS C   4       8.856  33.746  25.3110  0.00  0.00     0.000 C
ATOM     61  C4  IDS C   4      10.323  33.907  24.9360  0.00  0.00     0.000 C
ATOM     62  C5  IDS C   4      10.853  32.640  24.2560  0.00  0.00     0.000 C
ATOM     63  O5  IDS C   4       9.965  32.170  23.2520  0.00  0.00     0.000 O
ATOM     64   O  IDS C   4       8.786  33.134  26.5850  0.00  0.00     0.000 O
ATOM     66  HD  IDS C   4       9.560  32.821  26.8140  0.00  0.00     0.000 HD
BRANCH 59 66
ATOM     66   O  IDS C   4       7.511  33.736  23.3130  0.00  0.00     0.000 O
ATOM     67   S  IDS C   4       5.932  33.816  23.1340  0.00  0.00     0.000 S
ATOM     68   O  IDS C   4       5.493  34.432  24.3630  0.00  0.00     0.000 OA
ATOM     69   O  IDS C   4       5.732  34.618  21.9430  0.00  0.00     0.000 OA
ATOM     70   O  IDS C   4       5.443  32.452  23.0120  0.00  0.00     0.000 OA
ENDBRANCH 59 66
BRANCH 62 71
ATOM     71   C  IDS C   4      12.183  32.851  23.5590  0.00  0.00     0.000 C
ATOM     72   O  IDS C   4      12.213  33.217  22.4000  0.00  0.00     0.000 OA
ATOM     73   O  IDS C   4      13.228  32.541  24.1670  0.00  0.00     0.000 OA
ENDBRANCH 62 71
BRANCH 58 74
ATOM     74  O4  SGN C   5       8.822  30.609  24.6710  0.00  0.00     0.000 O
BRANCH 74 78
ATOM     75  C1  SGN C   5       8.502  26.453  24.9460  0.00  0.00     0.000 C
ATOM     76  C2  SGN C   5       9.888  27.000  24.5550  0.00  0.00     0.000 C
ATOM     77  C3  SGN C   5       9.970  28.509  24.8200  0.00  0.00     0.000 C
ATOM     78  C4  SGN C   5       8.761  29.244  24.2570  0.00  0.00     0.000 C
ATOM     79  C5  SGN C   5       7.487  28.586  24.7660  0.00  0.00     0.000 C
ATOM     80  O5  SGN C   5       7.454  27.198  24.3400  0.00  0.00     0.000 O
ATOM     81   O  SGN C   5      11.172  29.014  24.2470  0.00  0.00     0.000 O
ATOM     83  HD  SGN C   5      11.907  28.555  24.2550  0.00  0.00     0.000 HD
BRANCH 76 85
ATOM     83   N  SGN C   5      10.318  25.596  24.5450  0.00  0.00     0.000 N
ATOM     85  HD  SGN C   5      10.718  24.914  24.8980  0.00  0.00     0.000 HD
ATOM     85   S  SGN C   5      11.721  24.953  25.0060  0.00  0.00     0.000 S
ATOM     86   O  SGN C   5      11.689  23.538  24.8670  0.00  0.00     0.000 OA
ATOM     87   O  SGN C   5      12.747  25.647  24.3140  0.00  0.00     0.000 OA
ATOM     88   O  SGN C   5      11.611  25.351  26.4760  0.00  0.00     0.000 OA
ENDBRANCH 76 85
BRANCH 79 89
ATOM     89   C  SGN C   5       6.222  29.264  24.2780  0.00  0.00     0.000 C
ATOM     90   O  SGN C   5       5.269  28.265  23.8400  0.00  0.00     0.000 O
ATOM     91   S  SGN C   5       3.714  28.621  24.0250  0.00  0.00     0.000 S
ATOM     92   O  SGN C   5       3.546  29.002  25.4030  0.00  0.00     0.000 OA
ATOM     93   O  SGN C   5       3.416  29.698  23.1160  0.00  0.00     0.000 OA
ATOM     94   O  SGN C   5       3.051  27.392  23.6870  0.00  0.00     0.000 OA
ENDBRANCH 79 89
BRANCH 75 95
ATOM     95  O4  BDP C   6       8.425  26.574  26.3050  0.00  0.00     0.000 O
BRANCH 95 99
ATOM     96  C1  BDP C   6       6.621  23.826  29.0690  0.00  0.00     0.000 C
ATOM     97  C2  BDP C   6       6.955  23.343  27.6860  0.00  0.00     0.000 C
ATOM     98  C3  BDP C   6       7.924  24.251  26.9140  0.00  0.00     0.000 C
ATOM     99  C4  BDP C   6       7.489  25.708  26.9840  0.00  0.00     0.000 C
ATOM    100  C5  BDP C   6       7.220  26.056  28.4660  0.00  0.00     0.000 C
ATOM    101  O5  BDP C   6       6.171  25.148  28.8400  0.00  0.00     0.000 O
BRANCH 100 102
ATOM    102   C  BDP C   6       6.705  27.461  28.6490  0.00  0.00     0.000 C
ATOM    103   O  BDP C   6       5.779  27.921  27.9650  0.00  0.00     0.000 OA
ATOM    104   O  BDP C   6       7.241  28.143  29.5310  0.00  0.00     0.000 OA
ENDBRANCH 100 102
ENDBRANCH 95 99
ENDBRANCH 75 95
ENDBRANCH 74 78
ENDBRANCH 58 74
ENDBRANCH 57 61
ENDBRANCH 37 57
ENDBRANCH 36 40
ENDBRANCH 23 36
ENDBRANCH 22 26
ENDBRANCH 1 22
TORSDOF 20
ENDMDL
MODEL 88
REMARK VINA RESULT:      -4.6     22.781     29.002
ROOT
ATOM      1  C1  NGY C   1      11.469  25.957  60.3090  0.00  0.00     0.000 C
ATOM      2  C2  NGY C   1      11.271  25.768  61.8060  0.00  0.00     0.000 C
ATOM      3  C3  NGY C   1      10.023  24.931  62.0720  0.00  0.00     0.000 C
ATOM      4  C4  NGY C   1       8.850  25.590  61.3710  0.00  0.00     0.000 C
ATOM      5  C5  NGY C   1       9.142  25.643  59.8740  0.00  0.00     0.000 C
ATOM      6  O5  NGY C   1      10.319  26.466  59.6680  0.00  0.00     0.000 O
ATOM      7   O  NGY C   1       9.819  24.830  63.4740  0.00  0.00     0.000 O
ATOM      9  HD  NGY C   1       9.918  25.335  64.1700  0.00  0.00     0.000 HD
ATOM      9   O  NGY C   1       7.648  24.873  61.6090  0.00  0.00     0.000 O
ATOM     11  HD  NGY C   1       7.747  25.378  62.3060  0.00  0.00     0.000 HD
ENDROOT
BRANCH 2 13
ATOM     11   N  NGY C   1      12.578  25.344  62.2480  0.00  0.00     0.000 N
ATOM     13  HD  NGY C   1      12.556  25.660  63.0550  0.00  0.00     0.000 HD
ATOM     13   C  NGY C   1      13.021  25.613  63.4760  0.00  0.00     0.000 C
ATOM     14   O  NGY C   1      12.392  26.355  64.2320  0.00  0.00     0.000 OA
ATOM     15   C  NGY C   1      14.297  24.947  63.8910  0.00  0.00     0.000 C
ENDBRANCH 2 13
BRANCH 5 16
ATOM     16   C  NGY C   1       8.066  26.260  59.0390  0.00  0.00     0.000 C
ATOM     17   O  NGY C   1       8.374  26.892  55.4380  0.00  0.00     0.000 OA
ATOM     18   O  NGY C   1       8.600  26.555  57.7450  0.00  0.00     0.000 O
ATOM     19   S  NGY C   1       7.540  26.783  56.6080  0.00  0.00     0.000 S
ATOM     20   O  NGY C   1       6.853  28.012  56.9080  0.00  0.00     0.000 OA
ATOM     21   O  NGY C   1       6.683  25.610  56.6650  0.00  0.00     0.000 OA
ENDBRANCH 5 16
BRANCH 1 22
ATOM     22  O4  BDP C   2      11.888  24.790  59.7750  0.00  0.00     0.000 O
BRANCH 22 26
ATOM     23  C1  BDP C   2      14.260  22.704  57.1320  0.00  0.00     0.000 C
ATOM     24  C2  BDP C   2      14.958  23.794  57.9110  0.00  0.00     0.000 C
ATOM     25  C3  BDP C   2      14.097  24.215  59.0730  0.00  0.00     0.000 C
ATOM     26  C4  BDP C   2      12.699  24.584  58.5880  0.00  0.00     0.000 C
ATOM     27  C5  BDP C   2      12.165  23.491  57.6710  0.00  0.00     0.000 C
ATOM     28  O5  BDP C   2      13.038  23.231  56.5420  0.00  0.00     0.000 O
ATOM     29   O  BDP C   2      16.159  23.335  58.5310  0.00  0.00     0.000 O
ATOM     31  HD  BDP C   2      16.347  23.671  59.3070  0.00  0.00     0.000 HD
ATOM     31   O  BDP C   2      14.724  25.348  59.6620  0.00  0.00     0.000 O
ATOM     33  HD  BDP C   2      14.912  25.683  60.4380  0.00  0.00     0.000 HD
BRANCH 27 33
ATOM     33   C  BDP C   2      10.821  23.840  57.0780  0.00  0.00     0.000 C
ATOM     34   O  BDP C   2      10.705  24.633  56.1130  0.00  0.00     0.000 OA
ATOM     35   O  BDP C   2       9.821  23.357  57.5820  0.00  0.00     0.000 OA
ENDBRANCH 27 33
BRANCH 23 36
ATOM     36  O4  SGN C   3      14.987  22.146  56.1370  0.00  0.00     0.000 O
BRANCH 36 40
ATOM     37  C1  SGN C   3      15.881  18.624  54.0810  0.00  0.00     0.000 C
ATOM     38  C2  SGN C   3      14.409  19.065  54.1360  0.00  0.00     0.000 C
ATOM     39  C3  SGN C   3      14.308  20.535  54.5160  0.00  0.00     0.000 C
ATOM     40  C4  SGN C   3      15.024  20.749  55.8330  0.00  0.00     0.000 C
ATOM     41  C5  SGN C   3      16.452  20.268  55.6950  0.00  0.00     0.000 C
ATOM     42  O5  SGN C   3      16.463  18.874  55.3510  0.00  0.00     0.000 O
ATOM     43   O  SGN C   3      12.937  20.900  54.6170  0.00  0.00     0.000 O
ATOM     45  HD  SGN C   3      13.415  21.404  55.1340  0.00  0.00     0.000 HD
BRANCH 38 47
ATOM     45   N  SGN C   3      14.300  17.630  53.8160  0.00  0.00     0.000 N
ATOM     47  HD  SGN C   3      14.545  18.246  54.3740  0.00  0.00     0.000 HD
ATOM     47   S  SGN C   3      13.326  17.364  52.5890  0.00  0.00     0.000 S
ATOM     48   O  SGN C   3      11.984  17.702  52.9100  0.00  0.00     0.000 OA
ATOM     49   O  SGN C   3      13.900  18.023  51.4610  0.00  0.00     0.000 OA
ATOM     50   O  SGN C   3      13.402  15.910  52.4590  0.00  0.00     0.000 OA
ENDBRANCH 38 47
BRANCH 41 51
ATOM     51   C  SGN C   3      17.279  20.430  56.9410  0.00  0.00     0.000 C
ATOM     52   O  SGN C   3      16.596  18.985  60.3060  0.00  0.00     0.000 OA
ATOM     53   O  SGN C   3      18.689  19.400  59.2220  0.00  0.00     0.000 OA
ATOM     54   O  SGN C   3      17.244  21.223  59.8170  0.00  0.00     0.000 OA
ATOM     55   O  SGN C   3      16.691  19.678  57.9790  0.00  0.00     0.000 O
ATOM     56   S  SGN C   3      17.369  19.839  59.4700  0.00  0.00     0.000 S
ENDBRANCH 41 51
BRANCH 37 57
ATOM     57  O4  IDS C   4      16.626  19.255  53.1410  0.00  0.00     0.000 O
BRANCH 57 61
ATOM     58  C1  IDS C   4      18.912  17.691  50.5340  0.00  0.00     0.000 C
ATOM     59  C2  IDS C   4      18.151  16.791  51.4540  0.00  0.00     0.000 C
ATOM     60  C3  IDS C   4      18.098  17.320  52.8900  0.00  0.00     0.000 C
ATOM     61  C4  IDS C   4      18.000  18.830  53.0560  0.00  0.00     0.000 C
ATOM     62  C5  IDS C   4      18.726  19.551  51.9140  0.00  0.00     0.000 C
ATOM     63  O5  IDS C   4      18.390  19.004  50.6470  0.00  0.00     0.000 O
ATOM     64   O  IDS C   4      19.302  16.883  53.4920  0.00  0.00     0.000 O
ATOM     66  HD  IDS C   4      19.813  17.558  53.6730  0.00  0.00     0.000 HD
BRANCH 59 66
ATOM     66   O  IDS C   4      16.751  16.626  51.0180  0.00  0.00     0.000 O
ATOM     67   S  IDS C   4      16.363  15.215  50.3930  0.00  0.00     0.000 S
ATOM     68   O  IDS C   4      16.532  14.307  51.5020  0.00  0.00     0.000 OA
ATOM     69   O  IDS C   4      14.997  15.373  49.9350  0.00  0.00     0.000 OA
ATOM     70   O  IDS C   4      17.313  14.941  49.3260  0.00  0.00     0.000 OA
ENDBRANCH 59 66
BRANCH 62 71
ATOM     71   C  IDS C   4      18.382  21.025  51.8280  0.00  0.00     0.000 C
ATOM     72   O  IDS C   4      18.136  21.532  50.7500  0.00  0.00     0.000 OA
ATOM     73   O  IDS C   4      18.462  21.715  52.8640  0.00  0.00     0.000 OA
ENDBRANCH 62 71
BRANCH 58 74
ATOM     74  O4  SGN C   5      20.263  17.509  50.5380  0.00  0.00     0.000 O
BRANCH 74 78
ATOM     75  C1  SGN C   5      23.750  17.242  48.2550  0.00  0.00     0.000 C
ATOM     76  C2  SGN C   5      23.098  18.635  48.3320  0.00  0.00     0.000 C
ATOM     77  C3  SGN C   5      22.049  18.682  49.4510  0.00  0.00     0.000 C
ATOM     78  C4  SGN C   5      21.107  17.488  49.3870  0.00  0.00     0.000 C
ATOM     79  C5  SGN C   5      21.920  16.202  49.3430  0.00  0.00     0.000 C
ATOM     80  O5  SGN C   5      22.776  16.210  48.1700  0.00  0.00     0.000 O
ATOM     81   O  SGN C   5      21.319  19.900  49.3480  0.00  0.00     0.000 O
ATOM     83  HD  SGN C   5      21.702  20.641  49.1130  0.00  0.00     0.000 HD
BRANCH 76 85
ATOM     83   N  SGN C   5      24.335  19.403  48.5230  0.00  0.00     0.000 N
ATOM     85  HD  SGN C   5      24.803  20.129  48.4660  0.00  0.00     0.000 HD
ATOM     85   S  SGN C   5      25.033  20.478  47.5480  0.00  0.00     0.000 S
ATOM     86   O  SGN C   5      26.201  21.014  48.1550  0.00  0.00     0.000 OA
ATOM     87   O  SGN C   5      25.190  19.855  46.2830  0.00  0.00     0.000 OA
ATOM     88   O  SGN C   5      23.894  21.495  47.5810  0.00  0.00     0.000 OA
ENDBRANCH 76 85
BRANCH 79 89
ATOM     89   C  SGN C   5      21.068  14.950  49.3030  0.00  0.00     0.000 C
ATOM     90   O  SGN C   5      20.599  14.720  47.9510  0.00  0.00     0.000 O
ATOM     91   S  SGN C   5      20.383  13.191  47.5140  0.00  0.00     0.000 S
ATOM     92   O  SGN C   5      21.613  12.505  47.8130  0.00  0.00     0.000 OA
ATOM     93   O  SGN C   5      19.271  12.685  48.2760  0.00  0.00     0.000 OA
ATOM     94   O  SGN C   5      20.109  13.286  46.1060  0.00  0.00     0.000 OA
ENDBRANCH 79 89
BRANCH 75 95
ATOM     95  O4  BDP C   6      24.466  17.102  49.4110  0.00  0.00     0.000 O
BRANCH 95 99
ATOM     96  C1  BDP C   6      28.354  15.276  49.4000  0.00  0.00     0.000 C
ATOM     97  C2  BDP C   6      27.540  15.248  48.1370  0.00  0.00     0.000 C
ATOM     98  C3  BDP C   6      26.363  16.235  48.1190  0.00  0.00     0.000 C
ATOM     99  C4  BDP C   6      25.543  16.140  49.3980  0.00  0.00     0.000 C
ATOM    100  C5  BDP C   6      26.517  16.219  50.5970  0.00  0.00     0.000 C
ATOM    101  O5  BDP C   6      27.377  15.084  50.4070  0.00  0.00     0.000 O
BRANCH 100 102
ATOM    102   C  BDP C   6      25.820  16.057  51.9240  0.00  0.00     0.000 C
ATOM    103   O  BDP C   6      24.935  15.208  52.1070  0.00  0.00     0.000 OA
ATOM    104   O  BDP C   6      26.179  16.806  52.8390  0.00  0.00     0.000 OA
ENDBRANCH 100 102
ENDBRANCH 95 99
ENDBRANCH 75 95
ENDBRANCH 74 78
ENDBRANCH 58 74
ENDBRANCH 57 61
ENDBRANCH 37 57
ENDBRANCH 36 40
ENDBRANCH 23 36
ENDBRANCH 22 26
ENDBRANCH 1 22
TORSDOF 20
ENDMDL
MODEL 89
REMARK VINA RESULT:      -4.5     16.190     20.477
ROOT
ATOM      1  C1  NGY C   1      28.519  31.266   9.2990  0.00  0.00     0.000 C
ATOM      2  C2  NGY C   1      27.468  31.275   8.1980  0.00  0.00     0.000 C
ATOM      3  C3  NGY C   1      26.270  30.423   8.6040  0.00  0.00     0.000 C
ATOM      4  C4  NGY C   1      26.771  29.039   8.9690  0.00  0.00     0.000 C
ATOM      5  C5  NGY C   1      27.750  29.164  10.1330  0.00  0.00     0.000 C
ATOM      6  O5  NGY C   1      28.881  29.960   9.6940  0.00  0.00     0.000 O
ATOM      7   O  NGY C   1      25.337  30.389   7.5330  0.00  0.00     0.000 O
ATOM      9  HD  NGY C   1      25.361  30.366   6.6680  0.00  0.00     0.000 HD
ATOM      9   O  NGY C   1      25.694  28.185   9.3250  0.00  0.00     0.000 O
ATOM     11  HD  NGY C   1      25.718  28.163   8.4600  0.00  0.00     0.000 HD
ENDROOT
BRANCH 2 13
ATOM     11   N  NGY C   1      26.774  32.491   7.8430  0.00  0.00     0.000 N
ATOM     13  HD  NGY C   1      27.127  32.625   7.0640  0.00  0.00     0.000 HD
ATOM     13   C  NGY C   1      26.995  33.108   6.6840  0.00  0.00     0.000 C
ATOM     14   O  NGY C   1      27.902  32.746   5.9320  0.00  0.00     0.000 OA
ATOM     15   C  NGY C   1      26.072  34.236   6.3350  0.00  0.00     0.000 C
ENDBRANCH 2 13
BRANCH 5 16
ATOM     16   C  NGY C   1      28.328  27.873  10.6180  0.00  0.00     0.000 C
ATOM     17   O  NGY C   1      31.771  27.496  11.8270  0.00  0.00     0.000 OA
ATOM     18   O  NGY C   1      29.737  28.041  10.8030  0.00  0.00     0.000 O
ATOM     19   S  NGY C   1      30.435  26.968  11.7130  0.00  0.00     0.000 S
ATOM     20   O  NGY C   1      30.399  25.717  11.0010  0.00  0.00     0.000 OA
ATOM     21   O  NGY C   1      29.653  26.961  12.9380  0.00  0.00     0.000 OA
ENDBRANCH 5 16
BRANCH 1 22
ATOM     22  O4  BDP C   2      28.074  32.016  10.3300  0.00  0.00     0.000 O
BRANCH 22 26
ATOM     23  C1  BDP C   2      28.767  34.612  13.4510  0.00  0.00     0.000 C
ATOM     24  C2  BDP C   2      29.388  35.003  12.1310  0.00  0.00     0.000 C
ATOM     25  C3  BDP C   2      28.768  34.194  11.0220  0.00  0.00     0.000 C
ATOM     26  C4  BDP C   2      28.854  32.705  11.3430  0.00  0.00     0.000 C
ATOM     27  C5  BDP C   2      28.364  32.453  12.7630  0.00  0.00     0.000 C
ATOM     28  O5  BDP C   2      29.092  33.226  13.7520  0.00  0.00     0.000 O
ATOM     29   O  BDP C   2      29.092  36.352  11.7690  0.00  0.00     0.000 O
ATOM     31  HD  BDP C   2      28.973  36.510  10.9260  0.00  0.00     0.000 HD
ATOM     31   O  BDP C   2      29.503  34.482   9.8390  0.00  0.00     0.000 O
ATOM     33  HD  BDP C   2      29.384  34.640   8.9960  0.00  0.00     0.000 HD
BRANCH 27 33
ATOM     33   C  BDP C   2      28.515  31.009  13.1780  0.00  0.00     0.000 C
ATOM     34   O  BDP C   2      27.572  30.363  13.6940  0.00  0.00     0.000 OA
ATOM     35   O  BDP C   2      29.602  30.475  13.0340  0.00  0.00     0.000 OA
ENDBRANCH 27 33
BRANCH 23 36
ATOM     36  O4  SGN C   3      29.146  35.360  14.5140  0.00  0.00     0.000 O
BRANCH 36 40
ATOM     37  C1  SGN C   3      27.834  37.101  18.0740  0.00  0.00     0.000 C
ATOM     38  C2  SGN C   3      27.330  35.687  17.7420  0.00  0.00     0.000 C
ATOM     39  C3  SGN C   3      28.212  35.042  16.6840  0.00  0.00     0.000 C
ATOM     40  C4  SGN C   3      28.252  35.942  15.4670  0.00  0.00     0.000 C
ATOM     41  C5  SGN C   3      28.735  37.312  15.8890  0.00  0.00     0.000 C
ATOM     42  O5  SGN C   3      27.845  37.858  16.8740  0.00  0.00     0.000 O
ATOM     43   O  SGN C   3      27.689  33.762  16.3540  0.00  0.00     0.000 O
ATOM     45  HD  SGN C   3      28.124  34.086  15.6780  0.00  0.00     0.000 HD
BRANCH 38 47
ATOM     45   N  SGN C   3      26.122  35.041  18.2860  0.00  0.00     0.000 N
ATOM     47  HD  SGN C   3      26.649  35.173  17.6120  0.00  0.00     0.000 HD
ATOM     47   S  SGN C   3      26.079  35.096  19.8740  0.00  0.00     0.000 S
ATOM     48   O  SGN C   3      27.119  34.316  20.4480  0.00  0.00     0.000 OA
ATOM     49   O  SGN C   3      26.040  36.475  20.2350  0.00  0.00     0.000 OA
ATOM     50   O  SGN C   3      24.811  34.428  20.1610  0.00  0.00     0.000 OA
ENDBRANCH 38 47
BRANCH 41 51
ATOM     51   C  SGN C   3      28.825  38.306  14.7630  0.00  0.00     0.000 C
ATOM     52   O  SGN C   3      31.880  39.314  12.8840  0.00  0.00     0.000 OA
ATOM     53   O  SGN C   3      29.620  39.107  12.1210  0.00  0.00     0.000 OA
ATOM     54   O  SGN C   3      30.203  40.757  13.7660  0.00  0.00     0.000 OA
ATOM     55   O  SGN C   3      30.157  38.353  14.3020  0.00  0.00     0.000 O
ATOM     56   S  SGN C   3      30.496  39.491  13.1620  0.00  0.00     0.000 S
ENDBRANCH 41 51
BRANCH 37 57
ATOM     57  O4  IDS C   4      29.077  37.146  18.6150  0.00  0.00     0.000 O
BRANCH 57 61
ATOM     58  C1  IDS C   4      31.392  37.945  21.5260  0.00  0.00     0.000 C
ATOM     59  C2  IDS C   4      30.051  37.348  21.8170  0.00  0.00     0.000 C
ATOM     60  C3  IDS C   4      28.943  37.921  20.9300  0.00  0.00     0.000 C
ATOM     61  C4  IDS C   4      29.326  38.259  19.4950  0.00  0.00     0.000 C
ATOM     62  C5  IDS C   4      30.791  38.704  19.4140  0.00  0.00     0.000 C
ATOM     63  O5  IDS C   4      31.648  37.831  20.1360  0.00  0.00     0.000 O
ATOM     64   O  IDS C   4      28.529  39.112  21.5730  0.00  0.00     0.000 O
ATOM     66  HD  IDS C   4      28.738  39.803  21.0940  0.00  0.00     0.000 HD
BRANCH 59 66
ATOM     66   O  IDS C   4      30.048  35.889  21.6010  0.00  0.00     0.000 O
ATOM     67   S  IDS C   4      29.714  34.984  22.8660  0.00  0.00     0.000 S
ATOM     68   O  IDS C   4      28.346  35.333  23.1680  0.00  0.00     0.000 OA
ATOM     69   O  IDS C   4      29.910  33.621  22.4120  0.00  0.00     0.000 OA
ATOM     70   O  IDS C   4      30.618  35.384  23.9330  0.00  0.00     0.000 OA
ENDBRANCH 59 66
BRANCH 62 71
ATOM     71   C  IDS C   4      31.329  38.724  17.9960  0.00  0.00     0.000 C
ATOM     72   O  IDS C   4      32.124  37.879  17.6330  0.00  0.00     0.000 OA
ATOM     73   O  IDS C   4      31.017  39.678  17.2560  0.00  0.00     0.000 OA
ENDBRANCH 62 71
BRANCH 58 74
ATOM     74  O4  SGN C   5      31.644  39.127  22.1550  0.00  0.00     0.000 O
BRANCH 74 78
ATOM     75  C1  SGN C   5      34.467  41.463  24.1610  0.00  0.00     0.000 C
ATOM     76  C2  SGN C   5      34.547  41.478  22.6230  0.00  0.00     0.000 C
ATOM     77  C3  SGN C   5      33.277  40.877  22.0070  0.00  0.00     0.000 C
ATOM     78  C4  SGN C   5      32.910  39.551  22.6600  0.00  0.00     0.000 C
ATOM     79  C5  SGN C   5      32.852  39.729  24.1700  0.00  0.00     0.000 C
ATOM     80  O5  SGN C   5      34.147  40.170  24.6570  0.00  0.00     0.000 O
ATOM     81   O  SGN C   5      33.478  40.706  20.6080  0.00  0.00     0.000 O
ATOM     83  HD  SGN C   5      33.930  41.278  20.1400  0.00  0.00     0.000 HD
BRANCH 76 85
ATOM     83   N  SGN C   5      35.444  42.604  22.9130  0.00  0.00     0.000 N
ATOM     85  HD  SGN C   5      35.701  43.425  22.8150  0.00  0.00     0.000 HD
ATOM     85   S  SGN C   5      36.054  43.710  21.9140  0.00  0.00     0.000 S
ATOM     86   O  SGN C   5      36.843  44.648  22.6340  0.00  0.00     0.000 OA
ATOM     87   O  SGN C   5      36.687  43.012  20.8530  0.00  0.00     0.000 OA
ATOM     88   O  SGN C   5      34.716  44.327  21.5150  0.00  0.00     0.000 OA
ENDBRANCH 76 85
BRANCH 79 89
ATOM     89   C  SGN C   5      32.469  38.465  24.9130  0.00  0.00     0.000 C
ATOM     90   O  SGN C   5      32.356  38.744  26.3300  0.00  0.00     0.000 O
ATOM     91   S  SGN C   5      31.284  37.877  27.1520  0.00  0.00     0.000 S
ATOM     92   O  SGN C   5      30.035  38.000  26.4460  0.00  0.00     0.000 OA
ATOM     93   O  SGN C   5      31.769  36.521  27.1800  0.00  0.00     0.000 OA
ATOM     94   O  SGN C   5      31.275  38.504  28.4450  0.00  0.00     0.000 OA
ENDBRANCH 79 89
BRANCH 75 95
ATOM     95  O4  BDP C   6      33.471  42.339  24.4900  0.00  0.00     0.000 O
BRANCH 95 99
ATOM     96  C1  BDP C   6      33.391  44.639  28.1160  0.00  0.00     0.000 C
ATOM     97  C2  BDP C   6      34.586  43.770  27.8390  0.00  0.00     0.000 C
ATOM     98  C3  BDP C   6      34.703  43.300  26.3810  0.00  0.00     0.000 C
ATOM     99  C4  BDP C   6      33.383  42.735  25.8760  0.00  0.00     0.000 C
ATOM    100  C5  BDP C   6      32.269  43.756  26.2040  0.00  0.00     0.000 C
ATOM    101  O5  BDP C   6      32.315  43.855  27.6370  0.00  0.00     0.000 O
BRANCH 100 102
ATOM    102   C  BDP C   6      30.897  43.264  25.8160  0.00  0.00     0.000 C
ATOM    103   O  BDP C   6      30.324  42.351  26.4270  0.00  0.00     0.000 OA
ATOM    104   O  BDP C   6      30.353  43.826  24.8580  0.00  0.00     0.000 OA
ENDBRANCH 100 102
ENDBRANCH 95 99
ENDBRANCH 75 95
ENDBRANCH 74 78
ENDBRANCH 58 74
ENDBRANCH 57 61
ENDBRANCH 37 57
ENDBRANCH 36 40
ENDBRANCH 23 36
ENDBRANCH 22 26
ENDBRANCH 1 22
TORSDOF 20
ENDMDL
MODEL 90
REMARK VINA RESULT:      -4.5     37.724     42.423
ROOT
ATOM      1  C1  NGY C   1      14.026   7.094  64.4710  0.00  0.00     0.000 C
ATOM      2  C2  NGY C   1      14.119   6.426  63.1060  0.00  0.00     0.000 C
ATOM      3  C3  NGY C   1      12.724   6.167  62.5480  0.00  0.00     0.000 C
ATOM      4  C4  NGY C   1      11.941   5.370  63.5740  0.00  0.00     0.000 C
ATOM      5  C5  NGY C   1      11.853   6.184  64.8630  0.00  0.00     0.000 C
ATOM      6  O5  NGY C   1      13.199   6.384  65.3670  0.00  0.00     0.000 O
ATOM      7   O  NGY C   1      12.836   5.480  61.3100  0.00  0.00     0.000 O
ATOM      9  HD  NGY C   1      13.346   4.873  60.9630  0.00  0.00     0.000 HD
ATOM      9   O  NGY C   1      10.638   5.068  63.0970  0.00  0.00     0.000 O
ATOM     11  HD  NGY C   1      11.149   4.461  62.7500  0.00  0.00     0.000 HD
ENDROOT
BRANCH 2 13
ATOM     11   N  NGY C   1      15.020   5.948  62.0830  0.00  0.00     0.000 N
ATOM     13  HD  NGY C   1      15.416   6.694  61.8930  0.00  0.00     0.000 HD
ATOM     13   C  NGY C   1      15.867   6.765  61.4610  0.00  0.00     0.000 C
ATOM     14   O  NGY C   1      15.816   7.985  61.6300  0.00  0.00     0.000 OA
ATOM     15   C  NGY C   1      16.891   6.125  60.5740  0.00  0.00     0.000 C
ENDBRANCH 2 13
BRANCH 5 16
ATOM     16   C  NGY C   1      11.097   5.531  65.9750  0.00  0.00     0.000 C
ATOM     17   O  NGY C   1       7.515   6.030  66.5900  0.00  0.00     0.000 OA
ATOM     18   O  NGY C   1       9.792   6.112  66.0480  0.00  0.00     0.000 O
ATOM     19   S  NGY C   1       8.718   5.275  66.8320  0.00  0.00     0.000 S
ATOM     20   O  NGY C   1       9.102   5.285  68.2200  0.00  0.00     0.000 OA
ATOM     21   O  NGY C   1       8.768   3.955  66.2260  0.00  0.00     0.000 OA
ENDBRANCH 5 16
BRANCH 1 22
ATOM     22  O4  BDP C   2      13.632   8.374  64.3020  0.00  0.00     0.000 O
BRANCH 22 26
ATOM     23  C1  BDP C   2      13.714  12.323  65.4690  0.00  0.00     0.000 C
ATOM     24  C2  BDP C   2      15.051  11.620  65.4630  0.00  0.00     0.000 C
ATOM     25  C3  BDP C   2      14.942  10.334  64.6850  0.00  0.00     0.000 C
ATOM     26  C4  BDP C   2      13.788   9.491  65.2170  0.00  0.00     0.000 C
ATOM     27  C5  BDP C   2      12.536  10.349  65.3460  0.00  0.00     0.000 C
ATOM     28  O5  BDP C   2      12.740  11.514  66.1860  0.00  0.00     0.000 O
ATOM     29   O  BDP C   2      16.050  12.356  64.7570  0.00  0.00     0.000 O
ATOM     31  HD  BDP C   2      16.628  11.893  64.3080  0.00  0.00     0.000 HD
ATOM     31   O  BDP C   2      16.172   9.642  64.8550  0.00  0.00     0.000 O
ATOM     33  HD  BDP C   2      16.750   9.179  64.4060  0.00  0.00     0.000 HD
BRANCH 27 33
ATOM     33   C  BDP C   2      11.381   9.597  65.9610  0.00  0.00     0.000 C
ATOM     34   O  BDP C   2      10.265   9.511  65.3940  0.00  0.00     0.000 OA
ATOM     35   O  BDP C   2      11.537   9.089  67.0590  0.00  0.00     0.000 OA
ENDBRANCH 27 33
BRANCH 23 36
ATOM     36  O4  SGN C   3      13.711  13.557  66.0260  0.00  0.00     0.000 O
BRANCH 36 40
ATOM     37  C1  SGN C   3      12.143  17.420  65.8220  0.00  0.00     0.000 C
ATOM     38  C2  SGN C   3      11.275  16.331  66.4720  0.00  0.00     0.000 C
ATOM     39  C3  SGN C   3      12.128  15.132  66.8600  0.00  0.00     0.000 C
ATOM     40  C4  SGN C   3      12.856  14.632  65.6300  0.00  0.00     0.000 C
ATOM     41  C5  SGN C   3      13.662  15.771  65.0450  0.00  0.00     0.000 C
ATOM     42  O5  SGN C   3      12.788  16.854  64.6920  0.00  0.00     0.000 O
ATOM     43   O  SGN C   3      11.292  14.118  67.4030  0.00  0.00     0.000 O
ATOM     45  HD  SGN C   3      11.995  13.760  67.0450  0.00  0.00     0.000 HD
BRANCH 38 47
ATOM     45   N  SGN C   3      10.285  17.365  66.1230  0.00  0.00     0.000 N
ATOM     47  HD  SGN C   3      10.877  16.790  65.8590  0.00  0.00     0.000 HD
ATOM     47   S  SGN C   3       9.323  17.707  67.3410  0.00  0.00     0.000 S
ATOM     48   O  SGN C   3       8.495  16.602  67.6730  0.00  0.00     0.000 OA
ATOM     49   O  SGN C   3      10.150  18.225  68.3820  0.00  0.00     0.000 OA
ATOM     50   O  SGN C   3       8.471  18.745  66.7640  0.00  0.00     0.000 OA
ENDBRANCH 38 47
BRANCH 41 51
ATOM     51   C  SGN C   3      14.443  15.402  63.8120  0.00  0.00     0.000 C
ATOM     52   O  SGN C   3      18.141  15.498  63.3720  0.00  0.00     0.000 OA
ATOM     53   O  SGN C   3      16.533  13.987  62.4420  0.00  0.00     0.000 OA
ATOM     54   O  SGN C   3      16.499  16.314  61.8530  0.00  0.00     0.000 OA
ATOM     55   O  SGN C   3      15.819  15.534  64.0890  0.00  0.00     0.000 O
ATOM     56   S  SGN C   3      16.843  15.313  62.8190  0.00  0.00     0.000 S
ENDBRANCH 41 51
BRANCH 37 57
ATOM     57  O4  IDS C   4      13.094  17.946  66.6330  0.00  0.00     0.000 O
BRANCH 57 61
ATOM     58  C1  IDS C   4      14.724  20.796  68.5540  0.00  0.00     0.000 C
ATOM     59  C2  IDS C   4      13.246  20.600  68.6760  0.00  0.00     0.000 C
ATOM     60  C3  IDS C   4      12.586  20.228  67.3460  0.00  0.00     0.000 C
ATOM     61  C4  IDS C   4      13.393  19.337  66.4120  0.00  0.00     0.000 C
ATOM     62  C5  IDS C   4      14.894  19.606  66.5660  0.00  0.00     0.000 C
ATOM     63  O5  IDS C   4      15.283  19.652  67.9310  0.00  0.00     0.000 O
ATOM     64   O  IDS C   4      12.348  21.460  66.6910  0.00  0.00     0.000 O
ATOM     66  HD  IDS C   4      12.843  21.528  65.9830  0.00  0.00     0.000 HD
BRANCH 59 66
ATOM     66   O  IDS C   4      12.918  19.517  69.6230  0.00  0.00     0.000 O
ATOM     67   S  IDS C   4      12.286  19.958  71.0160  0.00  0.00     0.000 S
ATOM     68   O  IDS C   4      11.020  20.535  70.6340  0.00  0.00     0.000 OA
ATOM     69   O  IDS C   4      12.193  18.734  71.7860  0.00  0.00     0.000 OA
ATOM     70   O  IDS C   4      13.176  20.952  71.5960  0.00  0.00     0.000 OA
ENDBRANCH 59 66
BRANCH 62 71
ATOM     71   C  IDS C   4      15.759  18.534  65.9310  0.00  0.00     0.000 C
ATOM     72   O  IDS C   4      16.337  17.723  66.6280  0.00  0.00     0.000 OA
ATOM     73   O  IDS C   4      15.942  18.572  64.6970  0.00  0.00     0.000 OA
ENDBRANCH 62 71
BRANCH 58 74
ATOM     74  O4  SGN C   5      15.107  22.036  68.1380  0.00  0.00     0.000 O
BRANCH 74 78
ATOM     75  C1  SGN C   5      17.966  25.069  68.4070  0.00  0.00     0.000 C
ATOM     76  C2  SGN C   5      18.445  23.742  67.7890  0.00  0.00     0.000 C
ATOM     77  C3  SGN C   5      17.250  22.847  67.4330  0.00  0.00     0.000 C
ATOM     78  C4  SGN C   5      16.261  22.748  68.5860  0.00  0.00     0.000 C
ATOM     79  C5  SGN C   5      15.881  24.146  69.0510  0.00  0.00     0.000 C
ATOM     80  O5  SGN C   5      17.072  24.851  69.4910  0.00  0.00     0.000 O
ATOM     81   O  SGN C   5      17.732  21.556  67.0740  0.00  0.00     0.000 O
ATOM     83  HD  SGN C   5      18.468  21.453  66.6310  0.00  0.00     0.000 HD
BRANCH 76 85
ATOM     83   N  SGN C   5      19.374  24.631  67.0790  0.00  0.00     0.000 N
ATOM     85  HD  SGN C   5      19.930  24.805  66.4390  0.00  0.00     0.000 HD
ATOM     85   S  SGN C   5      20.801  24.296  66.4120  0.00  0.00     0.000 S
ATOM     86   O  SGN C   5      21.340  25.453  65.7860  0.00  0.00     0.000 OA
ATOM     87   O  SGN C   5      21.594  23.672  67.4090  0.00  0.00     0.000 OA
ATOM     88   O  SGN C   5      20.269  23.318  65.3660  0.00  0.00     0.000 OA
ENDBRANCH 76 85
BRANCH 79 89
ATOM     89   C  SGN C   5      14.877  24.152  70.1850  0.00  0.00     0.000 C
ATOM     90   O  SGN C   5      15.538  23.803  71.4260  0.00  0.00     0.000 O
ATOM     91   S  SGN C   5      14.949  24.461  72.7670  0.00  0.00     0.000 S
ATOM     92   O  SGN C   5      14.894  25.880  72.5320  0.00  0.00     0.000 OA
ATOM     93   O  SGN C   5      13.645  23.888  72.9820  0.00  0.00     0.000 OA
ATOM     94   O  SGN C   5      15.908  24.082  73.7690  0.00  0.00     0.000 OA
ENDBRANCH 79 89
BRANCH 75 95
ATOM     95  O4  BDP C   6      17.319  25.734  67.4050  0.00  0.00     0.000 O
BRANCH 95 99
ATOM     96  C1  BDP C   6      16.567  29.930  66.8780  0.00  0.00     0.000 C
ATOM     97  C2  BDP C   6      17.844  29.504  67.5450  0.00  0.00     0.000 C
ATOM     98  C3  BDP C   6      18.199  28.023  67.3460  0.00  0.00     0.000 C
ATOM     99  C4  BDP C   6      17.007  27.125  67.6400  0.00  0.00     0.000 C
ATOM    100  C5  BDP C   6      15.791  27.673  66.8580  0.00  0.00     0.000 C
ATOM    101  O5  BDP C   6      15.625  29.001  67.3810  0.00  0.00     0.000 O
BRANCH 100 102
ATOM    102   C  BDP C   6      14.525  26.903  67.1360  0.00  0.00     0.000 C
ATOM    103   O  BDP C   6      14.067  26.072  66.3380  0.00  0.00     0.000 OA
ATOM    104   O  BDP C   6      13.960  27.126  68.2120  0.00  0.00     0.000 OA
ENDBRANCH 100 102
ENDBRANCH 95 99
ENDBRANCH 75 95
ENDBRANCH 74 78
ENDBRANCH 58 74
ENDBRANCH 57 61
ENDBRANCH 37 57
ENDBRANCH 36 40
ENDBRANCH 23 36
ENDBRANCH 22 26
ENDBRANCH 1 22
TORSDOF 20
ENDMDL
MODEL 91
REMARK VINA RESULT:      -4.5     19.606     31.550
ROOT
ATOM      1  C1  NGY C   1      46.993  10.734  44.1290  0.00  0.00     0.000 C
ATOM      2  C2  NGY C   1      47.911  11.893  43.7650  0.00  0.00     0.000 C
ATOM      3  C3  NGY C   1      49.131  11.382  43.0060  0.00  0.00     0.000 C
ATOM      4  C4  NGY C   1      49.796  10.306  43.8440  0.00  0.00     0.000 C
ATOM      5  C5  NGY C   1      48.800   9.172  44.0650  0.00  0.00     0.000 C
ATOM      6  O5  NGY C   1      47.670   9.698  44.8080  0.00  0.00     0.000 O
ATOM      7   O  NGY C   1      50.006  12.470  42.7430  0.00  0.00     0.000 O
ATOM      9  HD  NGY C   1      50.262  13.194  43.1440  0.00  0.00     0.000 HD
ATOM      9   O  NGY C   1      50.964   9.813  43.2030  0.00  0.00     0.000 O
ATOM     11  HD  NGY C   1      51.220  10.536  43.6040  0.00  0.00     0.000 HD
ENDROOT
BRANCH 2 13
ATOM     11   N  NGY C   1      46.916  12.871  43.3920  0.00  0.00     0.000 N
ATOM     13  HD  NGY C   1      47.417  13.577  43.3860  0.00  0.00     0.000 HD
ATOM     13   C  NGY C   1      47.222  14.160  43.2530  0.00  0.00     0.000 C
ATOM     14   O  NGY C   1      48.331  14.590  43.5750  0.00  0.00     0.000 OA
ATOM     15   C  NGY C   1      46.164  15.042  42.6630  0.00  0.00     0.000 C
ENDBRANCH 2 13
BRANCH 5 16
ATOM     16   C  NGY C   1      49.314   8.023  44.8710  0.00  0.00     0.000 C
ATOM     17   O  NGY C   1      47.282   6.126  47.2650  0.00  0.00     0.000 OA
ATOM     18   O  NGY C   1      48.329   7.666  45.8440  0.00  0.00     0.000 O
ATOM     19   S  NGY C   1      48.480   6.234  46.4730  0.00  0.00     0.000 S
ATOM     20   O  NGY C   1      49.672   6.248  47.2800  0.00  0.00     0.000 OA
ATOM     21   O  NGY C   1      48.563   5.340  45.3290  0.00  0.00     0.000 OA
ENDBRANCH 5 16
BRANCH 1 22
ATOM     22  O4  BDP C   2      46.374  10.303  43.0100  0.00  0.00     0.000 O
BRANCH 22 26
ATOM     23  C1  BDP C   2      43.104   8.673  41.1070  0.00  0.00     0.000 C
ATOM     24  C2  BDP C   2      42.811   9.842  42.0170  0.00  0.00     0.000 C
ATOM     25  C3  BDP C   2      44.093  10.559  42.3480  0.00  0.00     0.000 C
ATOM     26  C4  BDP C   2      45.121   9.576  42.8980  0.00  0.00     0.000 C
ATOM     27  C5  BDP C   2      45.206   8.356  41.9900  0.00  0.00     0.000 C
ATOM     28  O5  BDP C   2      43.924   7.699  41.8130  0.00  0.00     0.000 O
ATOM     29   O  BDP C   2      42.020  10.845  41.3770  0.00  0.00     0.000 O
ATOM     31  HD  BDP C   2      42.194  11.667  41.5860  0.00  0.00     0.000 HD
ATOM     31   O  BDP C   2      43.778  11.537  43.3320  0.00  0.00     0.000 O
ATOM     33  HD  BDP C   2      43.951  12.360  43.5410  0.00  0.00     0.000 HD
BRANCH 27 33
ATOM     33   C  BDP C   2      46.137   7.297  42.5320  0.00  0.00     0.000 C
ATOM     34   O  BDP C   2      47.049   6.794  41.8340  0.00  0.00     0.000 OA
ATOM     35   O  BDP C   2      45.966   6.903  43.6730  0.00  0.00     0.000 OA
ENDBRANCH 27 33
BRANCH 23 36
ATOM     36  O4  SGN C   3      42.017   8.023  40.6300  0.00  0.00     0.000 O
BRANCH 36 40
ATOM     37  C1  SGN C   3      40.106   6.532  37.2310  0.00  0.00     0.000 C
ATOM     38  C2  SGN C   3      41.314   5.749  37.7730  0.00  0.00     0.000 C
ATOM     39  C3  SGN C   3      41.608   6.153  39.2100  0.00  0.00     0.000 C
ATOM     40  C4  SGN C   3      41.819   7.650  39.2640  0.00  0.00     0.000 C
ATOM     41  C5  SGN C   3      40.598   8.336  38.6920  0.00  0.00     0.000 C
ATOM     42  O5  SGN C   3      40.397   7.917  37.3340  0.00  0.00     0.000 O
ATOM     43   O  SGN C   3      42.763   5.458  39.6650  0.00  0.00     0.000 O
ATOM     45  HD  SGN C   3      42.684   6.209  40.0890  0.00  0.00     0.000 HD
BRANCH 38 47
ATOM     45   N  SGN C   3      41.644   5.226  36.4350  0.00  0.00     0.000 N
ATOM     47  HD  SGN C   3      41.731   5.855  37.0240  0.00  0.00     0.000 HD
ATOM     47   S  SGN C   3      41.272   3.688  36.2870  0.00  0.00     0.000 S
ATOM     48   O  SGN C   3      42.076   2.877  37.1310  0.00  0.00     0.000 OA
ATOM     49   O  SGN C   3      39.860   3.590  36.4600  0.00  0.00     0.000 OA
ATOM     50   O  SGN C   3      41.665   3.419  34.9040  0.00  0.00     0.000 OA
ENDBRANCH 38 47
BRANCH 41 51
ATOM     51   C  SGN C   3      40.680   9.839  38.6930  0.00  0.00     0.000 C
ATOM     52   O  SGN C   3      42.876  11.978  36.5770  0.00  0.00     0.000 OA
ATOM     53   O  SGN C   3      40.662  12.397  37.3850  0.00  0.00     0.000 OA
ATOM     54   O  SGN C   3      42.499  12.192  38.9180  0.00  0.00     0.000 OA
ATOM     55   O  SGN C   3      41.601  10.245  37.7050  0.00  0.00     0.000 O
ATOM     56   S  SGN C   3      41.941  11.854  37.6420  0.00  0.00     0.000 S
ENDBRANCH 41 51
BRANCH 37 57
ATOM     57  O4  IDS C   4      38.940   6.295  37.8810  0.00  0.00     0.000 O
BRANCH 57 61
ATOM     58  C1  IDS C   4      35.414   6.141  36.4630  0.00  0.00     0.000 C
ATOM     59  C2  IDS C   4      36.556   6.363  35.5240  0.00  0.00     0.000 C
ATOM     60  C3  IDS C   4      37.616   7.309  36.0940  0.00  0.00     0.000 C
ATOM     61  C4  IDS C   4      37.874   7.219  37.5910  0.00  0.00     0.000 C
ATOM     62  C5  IDS C   4      36.594   6.831  38.3410  0.00  0.00     0.000 C
ATOM     63  O5  IDS C   4      35.930   5.740  37.7210  0.00  0.00     0.000 O
ATOM     64   O  IDS C   4      37.149   8.612  35.8000  0.00  0.00     0.000 O
ATOM     66  HD  IDS C   4      36.939   9.031  36.5280  0.00  0.00     0.000 HD
BRANCH 59 66
ATOM     66   O  IDS C   4      37.250   5.101  35.2050  0.00  0.00     0.000 O
ATOM     67   S  IDS C   4      37.158   4.599  33.6980  0.00  0.00     0.000 S
ATOM     68   O  IDS C   4      37.864   5.624  32.9670  0.00  0.00     0.000 OA
ATOM     69   O  IDS C   4      37.797   3.298  33.6980  0.00  0.00     0.000 OA
ATOM     70   O  IDS C   4      35.748   4.562  33.3420  0.00  0.00     0.000 OA
ENDBRANCH 59 66
BRANCH 62 71
ATOM     71   C  IDS C   4      36.852   6.394  39.7710  0.00  0.00     0.000 C
ATOM     72   O  IDS C   4      36.578   5.262  40.1210  0.00  0.00     0.000 OA
ATOM     73   O  IDS C   4      37.248   7.246  40.5900  0.00  0.00     0.000 OA
ENDBRANCH 62 71
BRANCH 58 74
ATOM     74  O4  SGN C   5      34.438   7.092  36.4170  0.00  0.00     0.000 O
BRANCH 74 78
ATOM     75  C1  SGN C   5      30.343   7.884  36.6340  0.00  0.00     0.000 C
ATOM     76  C2  SGN C   5      30.976   7.250  37.8870  0.00  0.00     0.000 C
ATOM     77  C3  SGN C   5      32.507   7.326  37.8190  0.00  0.00     0.000 C
ATOM     78  C4  SGN C   5      33.032   6.850  36.4710  0.00  0.00     0.000 C
ATOM     79  C5  SGN C   5      32.316   7.597  35.3550  0.00  0.00     0.000 C
ATOM     80  O5  SGN C   5      30.889   7.342  35.4390  0.00  0.00     0.000 O
ATOM     81   O  SGN C   5      33.055   6.543  38.8740  0.00  0.00     0.000 O
ATOM     83  HD  SGN C   5      32.681   6.505  39.6540  0.00  0.00     0.000 HD
BRANCH 76 85
ATOM     83   N  SGN C   5      30.631   7.370  39.3100  0.00  0.00     0.000 N
ATOM     85  HD  SGN C   5      30.109   7.231  39.9860  0.00  0.00     0.000 HD
ATOM     85   S  SGN C   5      29.207   7.684  39.9940  0.00  0.00     0.000 S
ATOM     86   O  SGN C   5      29.321   7.663  41.4110  0.00  0.00     0.000 OA
ATOM     87   O  SGN C   5      28.713   8.876  39.4040  0.00  0.00     0.000 OA
ATOM     88   O  SGN C   5      28.501   6.427  39.4920  0.00  0.00     0.000 OA
ENDBRANCH 76 85
BRANCH 79 89
ATOM     89   C  SGN C   5      32.789   7.208  33.9690  0.00  0.00     0.000 C
ATOM     90   O  SGN C   5      31.651   7.082  33.0810  0.00  0.00     0.000 O
ATOM     91   S  SGN C   5      31.899   7.444  31.5370  0.00  0.00     0.000 S
ATOM     92   O  SGN C   5      32.492   8.755  31.5170  0.00  0.00     0.000 OA
ATOM     93   O  SGN C   5      32.775   6.435  31.0010  0.00  0.00     0.000 OA
ATOM     94   O  SGN C   5      30.577   7.406  30.9730  0.00  0.00     0.000 OA
ENDBRANCH 79 89
BRANCH 75 95
ATOM     95  O4  BDP C   6      30.629   9.218  36.7070  0.00  0.00     0.000 O
BRANCH 95 99
ATOM     96  C1  BDP C   6      28.476  12.536  35.0340  0.00  0.00     0.000 C
ATOM     97  C2  BDP C   6      27.730  11.265  35.3270  0.00  0.00     0.000 C
ATOM     98  C3  BDP C   6      28.472  10.294  36.2570  0.00  0.00     0.000 C
ATOM     99  C4  BDP C   6      29.911  10.089  35.8060  0.00  0.00     0.000 C
ATOM    100  C5  BDP C   6      30.545  11.481  35.5840  0.00  0.00     0.000 C
ATOM    101  O5  BDP C   6      29.724  12.066  34.5600  0.00  0.00     0.000 O
BRANCH 100 102
ATOM    102   C  BDP C   6      31.956  11.400  35.0580  0.00  0.00     0.000 C
ATOM    103   O  BDP C   6      32.212  11.023  33.9050  0.00  0.00     0.000 OA
ATOM    104   O  BDP C   6      32.860  11.742  35.8290  0.00  0.00     0.000 OA
ENDBRANCH 100 102
ENDBRANCH 95 99
ENDBRANCH 75 95
ENDBRANCH 74 78
ENDBRANCH 58 74
ENDBRANCH 57 61
ENDBRANCH 37 57
ENDBRANCH 36 40
ENDBRANCH 23 36
ENDBRANCH 22 26
ENDBRANCH 1 22
TORSDOF 20
ENDMDL
MODEL 92
REMARK VINA RESULT:      -4.4     33.731     40.442
ROOT
ATOM      1  C1  NGY C   1       5.461  13.714  66.6970  0.00  0.00     0.000 C
ATOM      2  C2  NGY C   1       4.306  14.002  67.6450  0.00  0.00     0.000 C
ATOM      3  C3  NGY C   1       4.225  12.926  68.7230  0.00  0.00     0.000 C
ATOM      4  C4  NGY C   1       4.141  11.574  68.0400  0.00  0.00     0.000 C
ATOM      5  C5  NGY C   1       5.393  11.377  67.1890  0.00  0.00     0.000 C
ATOM      6  O5  NGY C   1       5.414  12.406  66.1660  0.00  0.00     0.000 O
ATOM      7   O  NGY C   1       3.098  13.177  69.5500  0.00  0.00     0.000 O
ATOM      9  HD  NGY C   1       2.292  13.477  69.4540  0.00  0.00     0.000 HD
ATOM      9   O  NGY C   1       4.030  10.528  68.9940  0.00  0.00     0.000 O
ATOM     11  HD  NGY C   1       3.223  10.829  68.8980  0.00  0.00     0.000 HD
ENDROOT
BRANCH 2 13
ATOM     11   N  NGY C   1       3.446  15.147  67.4550  0.00  0.00     0.000 N
ATOM     13  HD  NGY C   1       3.711  15.626  68.1260  0.00  0.00     0.000 HD
ATOM     13   C  NGY C   1       3.486  16.194  68.2790  0.00  0.00     0.000 C
ATOM     14   O  NGY C   1       4.153  16.165  69.3140  0.00  0.00     0.000 OA
ATOM     15   C  NGY C   1       2.704  17.404  67.8660  0.00  0.00     0.000 C
ENDBRANCH 2 13
BRANCH 5 16
ATOM     16   C  NGY C   1       5.463  10.076  66.4540  0.00  0.00     0.000 C
ATOM     17   O  NGY C   1       8.459   8.860  64.7220  0.00  0.00     0.000 OA
ATOM     18   O  NGY C   1       6.693  10.025  65.7260  0.00  0.00     0.000 O
ATOM     19   S  NGY C   1       7.152   8.594  65.2670  0.00  0.00     0.000 S
ATOM     20   O  NGY C   1       6.220   8.151  64.2630  0.00  0.00     0.000 OA
ATOM     21   O  NGY C   1       7.124   7.793  66.4800  0.00  0.00     0.000 OA
ENDBRANCH 5 16
BRANCH 1 22
ATOM     22  O4  BDP C   2       6.622  13.974  67.3340  0.00  0.00     0.000 O
BRANCH 22 26
ATOM     23  C1  BDP C   2      10.473  15.255  66.6320  0.00  0.00     0.000 C
ATOM     24  C2  BDP C   2       9.567  15.229  65.4240  0.00  0.00     0.000 C
ATOM     25  C3  BDP C   2       8.133  15.104  65.8700  0.00  0.00     0.000 C
ATOM     26  C4  BDP C   2       7.973  13.910  66.8050  0.00  0.00     0.000 C
ATOM     27  C5  BDP C   2       9.049  13.948  67.8820  0.00  0.00     0.000 C
ATOM     28  O5  BDP C   2      10.391  13.981  67.3320  0.00  0.00     0.000 O
ATOM     29   O  BDP C   2       9.588  16.459  64.7010  0.00  0.00     0.000 O
ATOM     31  HD  BDP C   2       8.841  16.713  64.3450  0.00  0.00     0.000 HD
ATOM     31   O  BDP C   2       7.350  14.916  64.6980  0.00  0.00     0.000 O
ATOM     33  HD  BDP C   2       6.603  15.170  64.3420  0.00  0.00     0.000 HD
BRANCH 27 33
ATOM     33   C  BDP C   2       9.006  12.738  68.7840  0.00  0.00     0.000 C
ATOM     34   O  BDP C   2       8.665  12.817  69.9880  0.00  0.00     0.000 OA
ATOM     35   O  BDP C   2       9.349  11.660  68.3260  0.00  0.00     0.000 OA
ENDBRANCH 27 33
BRANCH 23 36
ATOM     36  O4  SGN C   3      11.779  15.495  66.3710  0.00  0.00     0.000 O
BRANCH 36 40
ATOM     37  C1  SGN C   3      15.152  17.693  67.4760  0.00  0.00     0.000 C
ATOM     38  C2  SGN C   3      14.842  16.413  68.2700  0.00  0.00     0.000 C
ATOM     39  C3  SGN C   3      13.883  15.524  67.4920  0.00  0.00     0.000 C
ATOM     40  C4  SGN C   3      12.636  16.318  67.1670  0.00  0.00     0.000 C
ATOM     41  C5  SGN C   3      13.036  17.566  66.4100  0.00  0.00     0.000 C
ATOM     42  O5  SGN C   3      13.926  18.356  67.2130  0.00  0.00     0.000 O
ATOM     43   O  SGN C   3      13.568  14.379  68.2740  0.00  0.00     0.000 O
ATOM     45  HD  SGN C   3      12.915  14.556  67.7340  0.00  0.00     0.000 HD
BRANCH 38 47
ATOM     45   N  SGN C   3      15.426  16.821  69.5600  0.00  0.00     0.000 N
ATOM     47  HD  SGN C   3      14.725  16.745  69.0580  0.00  0.00     0.000 HD
ATOM     47   S  SGN C   3      16.895  16.247  69.7590  0.00  0.00     0.000 S
ATOM     48   O  SGN C   3      16.887  14.831  69.8690  0.00  0.00     0.000 OA
ATOM     49   O  SGN C   3      17.696  16.804  68.7190  0.00  0.00     0.000 OA
ATOM     50   O  SGN C   3      17.253  16.794  71.0660  0.00  0.00     0.000 OA
ENDBRANCH 38 47
BRANCH 41 51
ATOM     51   C  SGN C   3      11.879  18.446  66.0200  0.00  0.00     0.000 C
ATOM     52   O  SGN C   3       9.125  19.655  68.2180  0.00  0.00     0.000 OA
ATOM     53   O  SGN C   3      10.187  20.742  66.3680  0.00  0.00     0.000 OA
ATOM     54   O  SGN C   3       8.910  18.736  66.0310  0.00  0.00     0.000 OA
ATOM     55   O  SGN C   3      11.097  18.704  67.1650  0.00  0.00     0.000 O
ATOM     56   S  SGN C   3       9.699  19.537  66.9210  0.00  0.00     0.000 S
ENDBRANCH 41 51
BRANCH 37 57
ATOM     57  O4  IDS C   4      15.784  17.487  66.2950  0.00  0.00     0.000 O
BRANCH 57 61
ATOM     58  C1  IDS C   4      18.174  19.349  63.9950  0.00  0.00     0.000 C
ATOM     59  C2  IDS C   4      17.983  19.852  65.3910  0.00  0.00     0.000 C
ATOM     60  C3  IDS C   4      16.526  19.774  65.8530  0.00  0.00     0.000 C
ATOM     61  C4  IDS C   4      15.718  18.582  65.3610  0.00  0.00     0.000 C
ATOM     62  C5  IDS C   4      16.189  18.144  63.9690  0.00  0.00     0.000 C
ATOM     63  O5  IDS C   4      17.605  18.055  63.8950  0.00  0.00     0.000 O
ATOM     64   O  IDS C   4      15.918  20.956  65.3680  0.00  0.00     0.000 O
ATOM     66  HD  IDS C   4      15.331  20.767  64.7600  0.00  0.00     0.000 HD
BRANCH 59 66
ATOM     66   O  IDS C   4      18.772  19.070  66.3620  0.00  0.00     0.000 O
ATOM     67   S  IDS C   4      19.826  19.879  67.2370  0.00  0.00     0.000 S
ATOM     68   O  IDS C   4      18.994  20.752  68.0290  0.00  0.00     0.000 OA
ATOM     69   O  IDS C   4      20.541  18.867  67.9900  0.00  0.00     0.000 OA
ATOM     70   O  IDS C   4      20.666  20.629  66.3150  0.00  0.00     0.000 OA
ENDBRANCH 59 66
BRANCH 62 71
ATOM     71   C  IDS C   4      15.673  16.774  63.5700  0.00  0.00     0.000 C
ATOM     72   O  IDS C   4      14.488  16.517  63.6660  0.00  0.00     0.000 OA
ATOM     73   O  IDS C   4      16.500  15.899  63.2460  0.00  0.00     0.000 OA
ENDBRANCH 62 71
BRANCH 58 74
ATOM     74  O4  SGN C   5      17.926  20.264  63.0150  0.00  0.00     0.000 O
BRANCH 74 78
ATOM     75  C1  SGN C   5      19.222  21.723  59.3230  0.00  0.00     0.000 C
ATOM     76  C2  SGN C   5      17.998  20.789  59.2880  0.00  0.00     0.000 C
ATOM     77  C3  SGN C   5      17.418  20.602  60.6960  0.00  0.00     0.000 C
ATOM     78  C4  SGN C   5      18.504  20.270  61.7100  0.00  0.00     0.000 C
ATOM     79  C5  SGN C   5      19.615  21.306  61.6220  0.00  0.00     0.000 C
ATOM     80  O5  SGN C   5      20.179  21.299  60.2840  0.00  0.00     0.000 O
ATOM     81   O  SGN C   5      16.438  19.570  60.6590  0.00  0.00     0.000 O
ATOM     83  HD  SGN C   5      15.909  19.470  59.9800  0.00  0.00     0.000 HD
BRANCH 76 85
ATOM     83   N  SGN C   5      17.979  21.182  57.8740  0.00  0.00     0.000 N
ATOM     85  HD  SGN C   5      17.613  21.565  57.1890  0.00  0.00     0.000 HD
ATOM     85   S  SGN C   5      16.756  21.174  56.8260  0.00  0.00     0.000 S
ATOM     86   O  SGN C   5      17.177  21.682  55.5670  0.00  0.00     0.000 OA
ATOM     87   O  SGN C   5      16.199  19.869  56.8420  0.00  0.00     0.000 OA
ATOM     88   O  SGN C   5      15.901  22.203  57.5620  0.00  0.00     0.000 OA
ENDBRANCH 76 85
BRANCH 79 89
ATOM     89   C  SGN C   5      20.737  21.076  62.6140  0.00  0.00     0.000 C
ATOM     90   O  SGN C   5      21.357  19.791  62.3610  0.00  0.00     0.000 O
ATOM     91   S  SGN C   5      22.922  19.668  62.6960  0.00  0.00     0.000 S
ATOM     92   O  SGN C   5      23.571  20.757  62.0130  0.00  0.00     0.000 OA
ATOM     93   O  SGN C   5      23.057  19.758  64.1270  0.00  0.00     0.000 OA
ATOM     94   O  SGN C   5      23.271  18.375  62.1730  0.00  0.00     0.000 OA
ENDBRANCH 79 89
BRANCH 75 95
ATOM     95  O4  BDP C   6      18.740  22.954  59.6680  0.00  0.00     0.000 O
BRANCH 95 99
ATOM     96  C1  BDP C   6      20.017  26.913  58.5960  0.00  0.00     0.000 C
ATOM     97  C2  BDP C   6      19.998  25.849  57.5350  0.00  0.00     0.000 C
ATOM     98  C3  BDP C   6      19.182  24.601  57.9040  0.00  0.00     0.000 C
ATOM     99  C4  BDP C   6      19.541  24.096  59.2940  0.00  0.00     0.000 C
ATOM    100  C5  BDP C   6      19.481  25.296  60.2680  0.00  0.00     0.000 C
ATOM    101  O5  BDP C   6      20.458  26.207  59.7410  0.00  0.00     0.000 O
BRANCH 100 102
ATOM    102   C  BDP C   6      19.896  24.928  61.6700  0.00  0.00     0.000 C
ATOM    103   O  BDP C   6      19.078  24.809  62.5930  0.00  0.00     0.000 OA
ATOM    104   O  BDP C   6      21.102  24.735  61.8630  0.00  0.00     0.000 OA
ENDBRANCH 100 102
ENDBRANCH 95 99
ENDBRANCH 75 95
ENDBRANCH 74 78
ENDBRANCH 58 74
ENDBRANCH 57 61
ENDBRANCH 37 57
ENDBRANCH 36 40
ENDBRANCH 23 36
ENDBRANCH 22 26
ENDBRANCH 1 22
TORSDOF 20
ENDMDL
MODEL 93
REMARK VINA RESULT:      -4.4     14.241     24.390
ROOT
ATOM      1  C1  NGY C   1      32.332  30.972  22.4980  0.00  0.00     0.000 C
ATOM      2  C2  NGY C   1      32.526  29.571  21.9330  0.00  0.00     0.000 C
ATOM      3  C3  NGY C   1      31.317  28.699  22.2560  0.00  0.00     0.000 C
ATOM      4  C4  NGY C   1      31.091  28.735  23.7560  0.00  0.00     0.000 C
ATOM      5  C5  NGY C   1      30.830  30.178  24.1770  0.00  0.00     0.000 C
ATOM      6  O5  NGY C   1      32.012  30.963  23.8730  0.00  0.00     0.000 O
ATOM      7   O  NGY C   1      31.552  27.381  21.7830  0.00  0.00     0.000 O
ATOM      9  HD  NGY C   1      32.224  26.839  21.7150  0.00  0.00     0.000 HD
ATOM      9   O  NGY C   1      29.995  27.912  24.1250  0.00  0.00     0.000 O
ATOM     11  HD  NGY C   1      30.667  27.370  24.0570  0.00  0.00     0.000 HD
ENDROOT
BRANCH 2 13
ATOM     11   N  NGY C   1      33.024  29.880  20.6130  0.00  0.00     0.000 N
ATOM     13  HD  NGY C   1      33.420  29.129  20.4400  0.00  0.00     0.000 HD
ATOM     13   C  NGY C   1      33.731  28.996  19.9100  0.00  0.00     0.000 C
ATOM     14   O  NGY C   1      34.109  27.938  20.4140  0.00  0.00     0.000 OA
ATOM     15   C  NGY C   1      34.013  29.346  18.4800  0.00  0.00     0.000 C
ENDBRANCH 2 13
BRANCH 5 16
ATOM     16   C  NGY C   1      30.578  30.378  25.6380  0.00  0.00     0.000 C
ATOM     17   O  NGY C   1      32.559  32.607  27.7740  0.00  0.00     0.000 OA
ATOM     18   O  NGY C   1      31.658  31.133  26.1920  0.00  0.00     0.000 O
ATOM     19   S  NGY C   1      31.369  31.818  27.5760  0.00  0.00     0.000 S
ATOM     20   O  NGY C   1      31.239  30.768  28.5510  0.00  0.00     0.000 OA
ATOM     21   O  NGY C   1      30.142  32.569  27.3640  0.00  0.00     0.000 OA
ENDBRANCH 5 16
BRANCH 1 22
ATOM     22  O4  BDP C   2      31.409  31.617  21.7540  0.00  0.00     0.000 O
BRANCH 22 26
ATOM     23  C1  BDP C   2      30.022  35.042  19.9350  0.00  0.00     0.000 C
ATOM     24  C2  BDP C   2      31.482  34.732  19.7090  0.00  0.00     0.000 C
ATOM     25  C3  BDP C   2      31.764  33.306  20.1030  0.00  0.00     0.000 C
ATOM     26  C4  BDP C   2      31.277  33.044  21.5240  0.00  0.00     0.000 C
ATOM     27  C5  BDP C   2      29.852  33.556  21.6850  0.00  0.00     0.000 C
ATOM     28  O5  BDP C   2      29.721  34.963  21.3570  0.00  0.00     0.000 O
ATOM     29   O  BDP C   2      31.840  34.776  18.3270  0.00  0.00     0.000 O
ATOM     31  HD  BDP C   2      32.430  34.201  18.0610  0.00  0.00     0.000 HD
ATOM     31   O  BDP C   2      33.173  33.126  20.0280  0.00  0.00     0.000 O
ATOM     33  HD  BDP C   2      33.763  32.551  19.7620  0.00  0.00     0.000 HD
BRANCH 27 33
ATOM     33   C  BDP C   2      29.344  33.416  23.1000  0.00  0.00     0.000 C
ATOM     34   O  BDP C   2      30.094  33.564  24.0940  0.00  0.00     0.000 OA
ATOM     35   O  BDP C   2      28.174  33.115  23.2700  0.00  0.00     0.000 OA
ENDBRANCH 27 33
BRANCH 23 36
ATOM     36  O4  SGN C   3      29.612  36.255  19.4970  0.00  0.00     0.000 O
BRANCH 36 40
ATOM     37  C1  SGN C   3      26.413  38.468  17.9830  0.00  0.00     0.000 C
ATOM     38  C2  SGN C   3      26.442  38.199  19.4960  0.00  0.00     0.000 C
ATOM     39  C3  SGN C   3      27.839  37.786  19.9360  0.00  0.00     0.000 C
ATOM     40  C4  SGN C   3      28.270  36.582  19.1270  0.00  0.00     0.000 C
ATOM     41  C5  SGN C   3      28.188  36.928  17.6560  0.00  0.00     0.000 C
ATOM     42  O5  SGN C   3      26.841  37.290  17.3170  0.00  0.00     0.000 O
ATOM     43   O  SGN C   3      27.823  37.487  21.3260  0.00  0.00     0.000 O
ATOM     45  HD  SGN C   3      28.450  37.036  20.9340  0.00  0.00     0.000 HD
BRANCH 38 47
ATOM     45   N  SGN C   3      25.033  38.544  19.2380  0.00  0.00     0.000 N
ATOM     47  HD  SGN C   3      25.702  38.015  19.0920  0.00  0.00     0.000 HD
ATOM     47   S  SGN C   3      24.475  39.602  20.2850  0.00  0.00     0.000 S
ATOM     48   O  SGN C   3      24.414  39.054  21.5930  0.00  0.00     0.000 OA
ATOM     49   O  SGN C   3      25.254  40.786  20.1230  0.00  0.00     0.000 OA
ATOM     50   O  SGN C   3      23.104  39.791  19.8150  0.00  0.00     0.000 OA
ENDBRANCH 38 47
BRANCH 41 51
ATOM     51   C  SGN C   3      28.598  35.809  16.7380  0.00  0.00     0.000 C
ATOM     52   O  SGN C   3      28.720  32.171  17.5300  0.00  0.00     0.000 OA
ATOM     53   O  SGN C   3      28.183  33.264  15.4690  0.00  0.00     0.000 OA
ATOM     54   O  SGN C   3      30.387  33.445  16.4040  0.00  0.00     0.000 OA
ATOM     55   O  SGN C   3      28.452  34.583  17.4200  0.00  0.00     0.000 O
ATOM     56   S  SGN C   3      28.987  33.241  16.6310  0.00  0.00     0.000 S
ENDBRANCH 41 51
BRANCH 37 57
ATOM     57  O4  IDS C   4      27.199  39.495  17.5750  0.00  0.00     0.000 O
BRANCH 57 61
ATOM     58  C1  IDS C   4      27.836  42.883  15.9680  0.00  0.00     0.000 C
ATOM     59  C2  IDS C   4      26.780  42.775  17.0210  0.00  0.00     0.000 C
ATOM     60  C3  IDS C   4      25.956  41.490  16.9040  0.00  0.00     0.000 C
ATOM     61  C4  IDS C   4      26.702  40.243  16.4490  0.00  0.00     0.000 C
ATOM     62  C5  IDS C   4      27.839  40.610  15.4890  0.00  0.00     0.000 C
ATOM     63  O5  IDS C   4      28.612  41.697  15.9780  0.00  0.00     0.000 O
ATOM     64   O  IDS C   4      24.949  41.779  15.9530  0.00  0.00     0.000 O
ATOM     66  HD  IDS C   4      25.067  41.310  15.2350  0.00  0.00     0.000 HD
BRANCH 59 66
ATOM     66   O  IDS C   4      27.363  42.776  18.3760  0.00  0.00     0.000 O
ATOM     67   S  IDS C   4      27.109  44.077  19.2580  0.00  0.00     0.000 S
ATOM     68   O  IDS C   4      25.679  44.068  19.4520  0.00  0.00     0.000 OA
ATOM     69   O  IDS C   4      27.890  43.870  20.4620  0.00  0.00     0.000 OA
ATOM     70   O  IDS C   4      27.536  45.222  18.4690  0.00  0.00     0.000 OA
ENDBRANCH 59 66
BRANCH 62 71
ATOM     71   C  IDS C   4      28.822  39.475  15.2710  0.00  0.00     0.000 C
ATOM     72   O  IDS C   4      29.890  39.473  15.8520  0.00  0.00     0.000 OA
ATOM     73   O  IDS C   4      28.552  38.613  14.4120  0.00  0.00     0.000 OA
ENDBRANCH 62 71
BRANCH 58 74
ATOM     74  O4  SGN C   5      27.410  43.390  14.7760  0.00  0.00     0.000 O
BRANCH 74 78
ATOM     75  C1  SGN C   5      28.468  45.480  11.3180  0.00  0.00     0.000 C
ATOM     76  C2  SGN C   5      28.761  43.968  11.3100  0.00  0.00     0.000 C
ATOM     77  C3  SGN C   5      28.031  43.267  12.4630  0.00  0.00     0.000 C
ATOM     78  C4  SGN C   5      28.237  43.997  13.7830  0.00  0.00     0.000 C
ATOM     79  C5  SGN C   5      27.877  45.466  13.6120  0.00  0.00     0.000 C
ATOM     80  O5  SGN C   5      28.724  46.057  12.5910  0.00  0.00     0.000 O
ATOM     81   O  SGN C   5      28.495  41.925  12.5570  0.00  0.00     0.000 O
ATOM     83  HD  SGN C   5      28.689  41.461  11.8510  0.00  0.00     0.000 HD
BRANCH 76 85
ATOM     83   N  SGN C   5      28.284  43.610   9.9680  0.00  0.00     0.000 N
ATOM     85  HD  SGN C   5      28.317  43.137   9.2430  0.00  0.00     0.000 HD
ATOM     85   S  SGN C   5      29.128  43.230   8.6500  0.00  0.00     0.000 S
ATOM     86   O  SGN C   5      28.254  42.905   7.5760  0.00  0.00     0.000 OA
ATOM     87   O  SGN C   5      30.058  44.279   8.4310  0.00  0.00     0.000 OA
ATOM     88   O  SGN C   5      29.769  41.967   9.2220  0.00  0.00     0.000 OA
ENDBRANCH 76 85
BRANCH 79 89
ATOM     89   C  SGN C   5      28.027  46.276  14.8840  0.00  0.00     0.000 C
ATOM     90   O  SGN C   5      29.423  46.330  15.2680  0.00  0.00     0.000 O
ATOM     91   S  SGN C   5      29.910  47.657  16.0300  0.00  0.00     0.000 S
ATOM     92   O  SGN C   5      29.502  48.768  15.2110  0.00  0.00     0.000 OA
ATOM     93   O  SGN C   5      29.273  47.661  17.3220  0.00  0.00     0.000 OA
ATOM     94   O  SGN C   5      31.336  47.492  16.1010  0.00  0.00     0.000 OA
ENDBRANCH 79 89
BRANCH 75 95
ATOM     95  O4  BDP C   6      27.141  45.603  11.0160  0.00  0.00     0.000 O
BRANCH 95 99
ATOM     96  C1  BDP C   6      25.504  48.915   8.8260  0.00  0.00     0.000 C
ATOM     97  C2  BDP C   6      26.986  48.873   9.0690  0.00  0.00     0.000 C
ATOM     98  C3  BDP C   6      27.518  47.500   9.5070  0.00  0.00     0.000 C
ATOM     99  C4  BDP C   6      26.679  46.917  10.6350  0.00  0.00     0.000 C
ATOM    100  C5  BDP C   6      25.192  47.002  10.2180  0.00  0.00     0.000 C
ATOM    101  O5  BDP C   6      24.973  48.410  10.0370  0.00  0.00     0.000 O
BRANCH 100 102
ATOM    102   C  BDP C   6      24.257  46.521  11.2990  0.00  0.00     0.000 C
ATOM    103   O  BDP C   6      23.349  47.232  11.7530  0.00  0.00     0.000 OA
ATOM    104   O  BDP C   6      24.426  45.368  11.7110  0.00  0.00     0.000 OA
ENDBRANCH 100 102
ENDBRANCH 95 99
ENDBRANCH 75 95
ENDBRANCH 74 78
ENDBRANCH 58 74
ENDBRANCH 57 61
ENDBRANCH 37 57
ENDBRANCH 36 40
ENDBRANCH 23 36
ENDBRANCH 22 26
ENDBRANCH 1 22
TORSDOF 20
ENDMDL
MODEL 94
REMARK VINA RESULT:      -4.4     20.406     28.310
ROOT
ATOM      1  C1  NGY C   1      24.618  18.305  57.0390  0.00  0.00     0.000 C
ATOM      2  C2  NGY C   1      25.381  19.020  58.1450  0.00  0.00     0.000 C
ATOM      3  C3  NGY C   1      25.658  18.064  59.3010  0.00  0.00     0.000 C
ATOM      4  C4  NGY C   1      24.338  17.464  59.7480  0.00  0.00     0.000 C
ATOM      5  C5  NGY C   1      23.720  16.710  58.5750  0.00  0.00     0.000 C
ATOM      6  O5  NGY C   1      23.453  17.661  57.5120  0.00  0.00     0.000 O
ATOM      7   O  NGY C   1      26.305  18.771  60.3480  0.00  0.00     0.000 O
ATOM      9  HD  NGY C   1      26.271  19.563  60.6980  0.00  0.00     0.000 HD
ATOM      9   O  NGY C   1      24.526  16.586  60.8490  0.00  0.00     0.000 O
ATOM     11  HD  NGY C   1      24.492  17.377  61.1990  0.00  0.00     0.000 HD
ENDROOT
BRANCH 2 13
ATOM     11   N  NGY C   1      26.417  19.695  57.3990  0.00  0.00     0.000 N
ATOM     13  HD  NGY C   1      26.568  20.352  57.9430  0.00  0.00     0.000 HD
ATOM     13   C  NGY C   1      26.988  20.811  57.8500  0.00  0.00     0.000 C
ATOM     14   O  NGY C   1      26.557  21.388  58.8490  0.00  0.00     0.000 OA
ATOM     15   C  NGY C   1      28.188  21.303  57.0990  0.00  0.00     0.000 C
ENDBRANCH 2 13
BRANCH 5 16
ATOM     16   C  NGY C   1      22.410  16.049  58.8630  0.00  0.00     0.000 C
ATOM     17   O  NGY C   1      19.284  17.873  59.4670  0.00  0.00     0.000 OA
ATOM     18   O  NGY C   1      21.467  17.050  59.2580  0.00  0.00     0.000 O
ATOM     19   S  NGY C   1      19.955  16.633  59.1680  0.00  0.00     0.000 S
ATOM     20   O  NGY C   1      19.730  15.631  60.1760  0.00  0.00     0.000 OA
ATOM     21   O  NGY C   1      19.792  16.139  57.8110  0.00  0.00     0.000 OA
ENDBRANCH 5 16
BRANCH 1 22
ATOM     22  O4  BDP C   2      25.459  17.458  56.4080  0.00  0.00     0.000 O
BRANCH 22 26
ATOM     23  C1  BDP C   2      26.702  15.466  53.0240  0.00  0.00     0.000 C
ATOM     24  C2  BDP C   2      26.550  16.962  52.8790  0.00  0.00     0.000 C
ATOM     25  C3  BDP C   2      26.456  17.595  54.2420  0.00  0.00     0.000 C
ATOM     26  C4  BDP C   2      25.356  16.927  55.0610  0.00  0.00     0.000 C
ATOM     27  C5  BDP C   2      25.509  15.413  54.9920  0.00  0.00     0.000 C
ATOM     28  O5  BDP C   2      25.501  14.910  53.6310  0.00  0.00     0.000 O
ATOM     29   O  BDP C   2      27.704  17.573  52.3030  0.00  0.00     0.000 O
ATOM     31  HD  BDP C   2      27.915  18.359  52.5990  0.00  0.00     0.000 HD
ATOM     31   O  BDP C   2      26.147  18.969  54.0400  0.00  0.00     0.000 O
ATOM     33  HD  BDP C   2      26.358  19.755  54.3350  0.00  0.00     0.000 HD
BRANCH 27 33
ATOM     33   C  BDP C   2      24.392  14.687  55.7030  0.00  0.00     0.000 C
ATOM     34   O  BDP C   2      24.612  13.866  56.6260  0.00  0.00     0.000 OA
ATOM     35   O  BDP C   2      23.245  14.887  55.3380  0.00  0.00     0.000 OA
ENDBRANCH 27 33
BRANCH 23 36
ATOM     36  O4  SGN C   3      26.928  14.792  51.8730  0.00  0.00     0.000 O
BRANCH 36 40
ATOM     37  C1  SGN C   3      29.137  11.774  50.0180  0.00  0.00     0.000 C
ATOM     38  C2  SGN C   3      28.244  11.379  51.2050  0.00  0.00     0.000 C
ATOM     39  C3  SGN C   3      27.206  12.459  51.4730  0.00  0.00     0.000 C
ATOM     40  C4  SGN C   3      27.918  13.775  51.7000  0.00  0.00     0.000 C
ATOM     41  C5  SGN C   3      28.787  14.072  50.4980  0.00  0.00     0.000 C
ATOM     42  O5  SGN C   3      29.747  13.019  50.3210  0.00  0.00     0.000 O
ATOM     43   O  SGN C   3      26.434  12.095  52.6110  0.00  0.00     0.000 O
ATOM     45  HD  SGN C   3      26.454  12.957  52.5310  0.00  0.00     0.000 HD
BRANCH 38 47
ATOM     45   N  SGN C   3      29.202  10.259  51.2120  0.00  0.00     0.000 N
ATOM     47  HD  SGN C   3      29.052  11.103  51.3330  0.00  0.00     0.000 HD
ATOM     47   S  SGN C   3      28.473   8.848  51.1730  0.00  0.00     0.000 S
ATOM     48   O  SGN C   3      27.733   8.614  52.3620  0.00  0.00     0.000 OA
ATOM     49   O  SGN C   3      27.746   8.797  49.9460  0.00  0.00     0.000 OA
ATOM     50   O  SGN C   3      29.607   7.926  51.1660  0.00  0.00     0.000 OA
ENDBRANCH 38 47
BRANCH 41 51
ATOM     51   C  SGN C   3      29.551  15.365  50.5950  0.00  0.00     0.000 C
ATOM     52   O  SGN C   3      33.248  15.793  50.7570  0.00  0.00     0.000 OA
ATOM     53   O  SGN C   3      31.595  17.194  49.7400  0.00  0.00     0.000 OA
ATOM     54   O  SGN C   3      31.623  16.876  52.1200  0.00  0.00     0.000 OA
ATOM     55   O  SGN C   3      30.932  15.080  50.5810  0.00  0.00     0.000 O
ATOM     56   S  SGN C   3      31.943  16.356  50.8230  0.00  0.00     0.000 S
ENDBRANCH 41 51
BRANCH 37 57
ATOM     57  O4  IDS C   4      28.484  11.899  48.8360  0.00  0.00     0.000 O
BRANCH 57 61
ATOM     58  C1  IDS C   4      27.887  10.996  45.1890  0.00  0.00     0.000 C
ATOM     59  C2  IDS C   4      28.075   9.892  46.1810  0.00  0.00     0.000 C
ATOM     60  C3  IDS C   4      29.162  10.202  47.2120  0.00  0.00     0.000 C
ATOM     61  C4  IDS C   4      29.282  11.652  47.6620  0.00  0.00     0.000 C
ATOM     62  C5  IDS C   4      28.896  12.606  46.5260  0.00  0.00     0.000 C
ATOM     63  O5  IDS C   4      27.688  12.211  45.8930  0.00  0.00     0.000 O
ATOM     64   O  IDS C   4      30.379   9.826  46.5950  0.00  0.00     0.000 O
ATOM     66  HD  IDS C   4      30.869  10.523  46.4410  0.00  0.00     0.000 HD
BRANCH 59 66
ATOM     66   O  IDS C   4      26.838   9.631  46.9420  0.00  0.00     0.000 O
ATOM     67   S  IDS C   4      26.086   8.264  46.6290  0.00  0.00     0.000 S
ATOM     68   O  IDS C   4      27.029   7.263  47.0670  0.00  0.00     0.000 OA
ATOM     69   O  IDS C   4      24.860   8.328  47.4000  0.00  0.00     0.000 OA
ATOM     70   O  IDS C   4      25.874   8.210  45.1910  0.00  0.00     0.000 OA
ENDBRANCH 59 66
BRANCH 62 71
ATOM     71   C  IDS C   4      28.662  14.029  46.9980  0.00  0.00     0.000 C
ATOM     72   O  IDS C   4      29.607  14.765  47.2090  0.00  0.00     0.000 OA
ATOM     73   O  IDS C   4      27.496  14.383  47.2620  0.00  0.00     0.000 OA
ENDBRANCH 62 71
BRANCH 58 74
ATOM     74  O4  SGN C   5      28.748  10.972  44.1320  0.00  0.00     0.000 O
BRANCH 74 78
ATOM     75  C1  SGN C   5      28.682  11.976  40.0780  0.00  0.00     0.000 C
ATOM     76  C2  SGN C   5      29.913  12.453  40.8730  0.00  0.00     0.000 C
ATOM     77  C3  SGN C   5      29.989  11.744  42.2320  0.00  0.00     0.000 C
ATOM     78  C4  SGN C   5      28.651  11.777  42.9570  0.00  0.00     0.000 C
ATOM     79  C5  SGN C   5      27.561  11.251  42.0360  0.00  0.00     0.000 C
ATOM     80  O5  SGN C   5      27.490  12.079  40.8460  0.00  0.00     0.000 O
ATOM     81   O  SGN C   5      31.001  12.364  43.0190  0.00  0.00     0.000 O
ATOM     83  HD  SGN C   5      31.736  12.657  42.6670  0.00  0.00     0.000 HD
BRANCH 76 85
ATOM     83   N  SGN C   5      31.220  12.988  40.4730  0.00  0.00     0.000 N
ATOM     85  HD  SGN C   5      31.736  13.434  39.9390  0.00  0.00     0.000 HD
ATOM     85   S  SGN C   5      31.887  13.071  39.0090  0.00  0.00     0.000 S
ATOM     86   O  SGN C   5      33.156  13.710  39.0770  0.00  0.00     0.000 OA
ATOM     87   O  SGN C   5      31.851  11.764  38.4570  0.00  0.00     0.000 OA
ATOM     88   O  SGN C   5      30.844  14.009  38.4050  0.00  0.00     0.000 OA
ENDBRANCH 76 85
BRANCH 79 89
ATOM     89   C  SGN C   5      26.189  11.221  42.6790  0.00  0.00     0.000 C
ATOM     90   O  SGN C   5      25.850  12.541  43.1700  0.00  0.00     0.000 O
ATOM     91   S  SGN C   5      24.295  12.936  43.1610  0.00  0.00     0.000 S
ATOM     92   O  SGN C   5      23.820  12.689  41.8250  0.00  0.00     0.000 OA
ATOM     93   O  SGN C   5      23.641  12.106  44.1400  0.00  0.00     0.000 OA
ATOM     94   O  SGN C   5      24.306  14.330  43.5150  0.00  0.00     0.000 OA
ENDBRANCH 79 89
BRANCH 75 95
ATOM     95  O4  BDP C   6      28.920  10.665  39.7750  0.00  0.00     0.000 O
BRANCH 95 99
ATOM     96  C1  BDP C   6      27.947   8.997  35.9390  0.00  0.00     0.000 C
ATOM     97  C2  BDP C   6      27.572  10.424  36.2210  0.00  0.00     0.000 C
ATOM     98  C3  BDP C   6      28.284  11.038  37.4360  0.00  0.00     0.000 C
ATOM     99  C4  BDP C   6      28.207  10.118  38.6450  0.00  0.00     0.000 C
ATOM    100  C5  BDP C   6      28.655   8.706  38.2000  0.00  0.00     0.000 C
ATOM    101  O5  BDP C   6      27.705   8.358  37.1790  0.00  0.00     0.000 O
BRANCH 100 102
ATOM    102   C  BDP C   6      28.544   7.685  39.3040  0.00  0.00     0.000 C
ATOM    103   O  BDP C   6      29.369   7.616  40.2270  0.00  0.00     0.000 OA
ATOM    104   O  BDP C   6      27.577   6.916  39.2600  0.00  0.00     0.000 OA
ENDBRANCH 100 102
ENDBRANCH 95 99
ENDBRANCH 75 95
ENDBRANCH 74 78
ENDBRANCH 58 74
ENDBRANCH 57 61
ENDBRANCH 37 57
ENDBRANCH 36 40
ENDBRANCH 23 36
ENDBRANCH 22 26
ENDBRANCH 1 22
TORSDOF 20
ENDMDL
MODEL 95
REMARK VINA RESULT:      -4.4     15.315     25.231
ROOT
ATOM      1  C1  NGY C   1      33.749  30.722  22.6810  0.00  0.00     0.000 C
ATOM      2  C2  NGY C   1      35.196  30.733  23.1530  0.00  0.00     0.000 C
ATOM      3  C3  NGY C   1      36.017  29.718  22.3640  0.00  0.00     0.000 C
ATOM      4  C4  NGY C   1      35.339  28.366  22.4790  0.00  0.00     0.000 C
ATOM      5  C5  NGY C   1      33.932  28.472  21.8990  0.00  0.00     0.000 C
ATOM      6  O5  NGY C   1      33.184  29.429  22.6940  0.00  0.00     0.000 O
ATOM      7   O  NGY C   1      37.343  29.695  22.8700  0.00  0.00     0.000 O
ATOM      9  HD  NGY C   1      37.733  29.767  23.6410  0.00  0.00     0.000 HD
ATOM      9   O  NGY C   1      36.077  27.367  21.7900  0.00  0.00     0.000 O
ATOM     11  HD  NGY C   1      36.466  27.439  22.5600  0.00  0.00     0.000 HD
ENDROOT
BRANCH 2 13
ATOM     11   N  NGY C   1      35.858  32.003  22.9700  0.00  0.00     0.000 N
ATOM     13  HD  NGY C   1      36.101  32.147  23.7890  0.00  0.00     0.000 HD
ATOM     13   C  NGY C   1      36.416  32.653  23.9900  0.00  0.00     0.000 C
ATOM     14   O  NGY C   1      36.264  32.267  25.1510  0.00  0.00     0.000 OA
ATOM     15   C  NGY C   1      37.251  33.850  23.6500  0.00  0.00     0.000 C
ENDBRANCH 2 13
BRANCH 5 16
ATOM     16   C  NGY C   1      33.134  27.208  21.9320  0.00  0.00     0.000 C
ATOM     17   O  NGY C   1      31.427  25.938  24.9210  0.00  0.00     0.000 OA
ATOM     18   O  NGY C   1      32.799  26.911  23.2900  0.00  0.00     0.000 O
ATOM     19   S  NGY C   1      31.613  25.900  23.4920  0.00  0.00     0.000 S
ATOM     20   O  NGY C   1      32.068  24.614  23.0330  0.00  0.00     0.000 OA
ATOM     21   O  NGY C   1      30.525  26.448  22.6990  0.00  0.00     0.000 OA
ENDBRANCH 5 16
BRANCH 1 22
ATOM     22  O4  BDP C   2      33.684  31.306  21.4660  0.00  0.00     0.000 O
BRANCH 22 26
ATOM     23  C1  BDP C   2      31.689  33.606  18.6920  0.00  0.00     0.000 C
ATOM     24  C2  BDP C   2      31.726  34.166  20.0940  0.00  0.00     0.000 C
ATOM     25  C3  BDP C   2      32.769  33.439  20.9010  0.00  0.00     0.000 C
ATOM     26  C4  BDP C   2      32.539  31.933  20.8290  0.00  0.00     0.000 C
ATOM     27  C5  BDP C   2      32.342  31.509  19.3800  0.00  0.00     0.000 C
ATOM     28  O5  BDP C   2      31.255  32.218  18.7310  0.00  0.00     0.000 O
ATOM     29   O  BDP C   2      32.161  35.525  20.1270  0.00  0.00     0.000 O
ATOM     31  HD  BDP C   2      32.645  35.760  20.8050  0.00  0.00     0.000 HD
ATOM     31   O  BDP C   2      32.641  33.889  22.2440  0.00  0.00     0.000 O
ATOM     33  HD  BDP C   2      33.125  34.124  22.9230  0.00  0.00     0.000 HD
BRANCH 27 33
ATOM     33   C  BDP C   2      32.012  30.041  19.2470  0.00  0.00     0.000 C
ATOM     34   O  BDP C   2      32.542  29.316  18.3710  0.00  0.00     0.000 OA
ATOM     35   O  BDP C   2      31.177  29.564  19.9980  0.00  0.00     0.000 OA
ENDBRANCH 27 33
BRANCH 23 36
ATOM     36  O4  SGN C   3      30.881  34.263  17.8270  0.00  0.00     0.000 O
BRANCH 36 40
ATOM     37  C1  SGN C   3      30.332  35.367  13.8390  0.00  0.00     0.000 C
ATOM     38  C2  SGN C   3      29.748  34.020  14.2930  0.00  0.00     0.000 C
ATOM     39  C3  SGN C   3      29.644  33.970  15.8110  0.00  0.00     0.000 C
ATOM     40  C4  SGN C   3      31.011  34.236  16.4030  0.00  0.00     0.000 C
ATOM     41  C5  SGN C   3      31.517  35.565  15.8860  0.00  0.00     0.000 C
ATOM     42  O5  SGN C   3      31.601  35.527  14.4530  0.00  0.00     0.000 O
ATOM     43   O  SGN C   3      29.158  32.693  16.2050  0.00  0.00     0.000 O
ATOM     45  HD  SGN C   3      29.646  33.031  16.8360  0.00  0.00     0.000 HD
BRANCH 38 47
ATOM     45   N  SGN C   3      29.796  33.929  12.8230  0.00  0.00     0.000 N
ATOM     47  HD  SGN C   3      30.219  34.044  13.5700  0.00  0.00     0.000 HD
ATOM     47   S  SGN C   3      28.462  33.314  12.2190  0.00  0.00     0.000 S
ATOM     48   O  SGN C   3      28.300  31.955  12.5960  0.00  0.00     0.000 OA
ATOM     49   O  SGN C   3      27.405  34.206  12.5690  0.00  0.00     0.000 OA
ATOM     50   O  SGN C   3      28.742  33.348  10.7840  0.00  0.00     0.000 OA
ENDBRANCH 38 47
BRANCH 41 51
ATOM     51   C  SGN C   3      32.874  35.952  16.4070  0.00  0.00     0.000 C
ATOM     52   O  SGN C   3      35.945  33.845  16.4820  0.00  0.00     0.000 OA
ATOM     53   O  SGN C   3      35.725  36.207  16.1630  0.00  0.00     0.000 OA
ATOM     54   O  SGN C   3      35.096  35.198  18.2490  0.00  0.00     0.000 OA
ATOM     55   O  SGN C   3      33.764  34.878  16.2010  0.00  0.00     0.000 O
ATOM     56   S  SGN C   3      35.273  35.049  16.8350  0.00  0.00     0.000 S
ENDBRANCH 41 51
BRANCH 37 57
ATOM     57  O4  IDS C   4      29.572  36.447  14.1480  0.00  0.00     0.000 O
BRANCH 57 61
ATOM     58  C1  IDS C   4      28.130  39.445  12.3040  0.00  0.00     0.000 C
ATOM     59  C2  IDS C   4      28.697  38.315  11.5050  0.00  0.00     0.000 C
ATOM     60  C3  IDS C   4      29.979  37.742  12.1160  0.00  0.00     0.000 C
ATOM     61  C4  IDS C   4      30.051  37.705  13.6360  0.00  0.00     0.000 C
ATOM     62  C5  IDS C   4      29.272  38.877  14.2460  0.00  0.00     0.000 C
ATOM     63  O5  IDS C   4      27.991  39.025  13.6510  0.00  0.00     0.000 O
ATOM     64   O  IDS C   4      31.021  38.573  11.6400  0.00  0.00     0.000 O
ATOM     66  HD  IDS C   4      31.372  39.023  12.2920  0.00  0.00     0.000 HD
BRANCH 59 66
ATOM     66   O  IDS C   4      27.745  37.192  11.4020  0.00  0.00     0.000 O
ATOM     67   S  IDS C   4      27.301  36.770   9.9330  0.00  0.00     0.000 S
ATOM     68   O  IDS C   4      28.528  36.291   9.3430  0.00  0.00     0.000 OA
ATOM     69   O  IDS C   4      26.282  35.757  10.1280  0.00  0.00     0.000 OA
ATOM     70   O  IDS C   4      26.818  37.970   9.2680  0.00  0.00     0.000 OA
ENDBRANCH 59 66
BRANCH 62 71
ATOM     71   C  IDS C   4      29.016  38.711  15.7320  0.00  0.00     0.000 C
ATOM     72   O  IDS C   4      27.877  38.686  16.1550  0.00  0.00     0.000 OA
ATOM     73   O  IDS C   4      29.994  38.709  16.5060  0.00  0.00     0.000 OA
ENDBRANCH 62 71
BRANCH 58 74
ATOM     74  O4  SGN C   5      28.676  40.666  12.0400  0.00  0.00     0.000 O
BRANCH 74 78
ATOM     75  C1  SGN C   5      27.977  44.764  11.6370  0.00  0.00     0.000 C
ATOM     76  C2  SGN C   5      28.202  44.255  13.0730  0.00  0.00     0.000 C
ATOM     77  C3  SGN C   5      28.779  42.833  13.0600  0.00  0.00     0.000 C
ATOM     78  C4  SGN C   5      27.999  41.920  12.1260  0.00  0.00     0.000 C
ATOM     79  C5  SGN C   5      27.896  42.567  10.7520  0.00  0.00     0.000 C
ATOM     80  O5  SGN C   5      27.213  43.844  10.8680  0.00  0.00     0.000 O
ATOM     81   O  SGN C   5      28.767  42.318  14.3880  0.00  0.00     0.000 O
ATOM     83  HD  SGN C   5      28.933  42.823  15.0720  0.00  0.00     0.000 HD
BRANCH 76 85
ATOM     83   N  SGN C   5      28.425  44.944  14.3510  0.00  0.00     0.000 N
ATOM     85  HD  SGN C   5      28.347  45.627  14.8770  0.00  0.00     0.000 HD
ATOM     85   S  SGN C   5      28.828  46.478  14.6290  0.00  0.00     0.000 S
ATOM     86   O  SGN C   5      28.895  46.729  16.0270  0.00  0.00     0.000 OA
ATOM     87   O  SGN C   5      29.994  46.750  13.8670  0.00  0.00     0.000 OA
ATOM     88   O  SGN C   5      27.564  47.092  14.0320  0.00  0.00     0.000 OA
ENDBRANCH 76 85
BRANCH 79 89
ATOM     89   C  SGN C   5      27.153  41.720   9.7390  0.00  0.00     0.000 C
ATOM     90   O  SGN C   5      25.825  42.259   9.5290  0.00  0.00     0.000 O
ATOM     91   S  SGN C   5      25.191  42.064   8.0680  0.00  0.00     0.000 S
ATOM     92   O  SGN C   5      26.163  42.568   7.1330  0.00  0.00     0.000 OA
ATOM     93   O  SGN C   5      24.942  40.656   7.8980  0.00  0.00     0.000 OA
ATOM     94   O  SGN C   5      23.989  42.851   8.1220  0.00  0.00     0.000 OA
ENDBRANCH 79 89
BRANCH 75 95
ATOM     95  O4  BDP C   6      29.221  44.898  11.0890  0.00  0.00     0.000 O
BRANCH 95 99
ATOM     96  C1  BDP C   6      30.717  47.720   8.2180  0.00  0.00     0.000 C
ATOM     97  C2  BDP C   6      29.675  48.174   9.2020  0.00  0.00     0.000 C
ATOM     98  C3  BDP C   6      29.488  47.238  10.4050  0.00  0.00     0.000 C
ATOM     99  C4  BDP C   6      29.344  45.790   9.9600  0.00  0.00     0.000 C
ATOM    100  C5  BDP C   6      30.503  45.471   8.9870  0.00  0.00     0.000 C
ATOM    101  O5  BDP C   6      30.304  46.402   7.9110  0.00  0.00     0.000 O
BRANCH 100 102
ATOM    102   C  BDP C   6      30.418  44.077   8.4180  0.00  0.00     0.000 C
ATOM    103   O  BDP C   6      29.445  43.692   7.7540  0.00  0.00     0.000 OA
ATOM    104   O  BDP C   6      31.377  43.327   8.6320  0.00  0.00     0.000 OA
ENDBRANCH 100 102
ENDBRANCH 95 99
ENDBRANCH 75 95
ENDBRANCH 74 78
ENDBRANCH 58 74
ENDBRANCH 57 61
ENDBRANCH 37 57
ENDBRANCH 36 40
ENDBRANCH 23 36
ENDBRANCH 22 26
ENDBRANCH 1 22
TORSDOF 20
ENDMDL
MODEL 96
REMARK VINA RESULT:      -4.3     24.160     30.375
ROOT
ATOM      1  C1  NGY C   1      14.090  49.130  16.4430  0.00  0.00     0.000 C
ATOM      2  C2  NGY C   1      13.495  50.420  16.9910  0.00  0.00     0.000 C
ATOM      3  C3  NGY C   1      13.878  50.598  18.4560  0.00  0.00     0.000 C
ATOM      4  C4  NGY C   1      13.458  49.352  19.2130  0.00  0.00     0.000 C
ATOM      5  C5  NGY C   1      14.186  48.150  18.6190  0.00  0.00     0.000 C
ATOM      6  O5  NGY C   1      13.773  48.006  17.2350  0.00  0.00     0.000 O
ATOM      7   O  NGY C   1      13.253  51.768  18.9640  0.00  0.00     0.000 O
ATOM      9  HD  NGY C   1      12.498  52.181  18.8650  0.00  0.00     0.000 HD
ATOM      9   O  NGY C   1      13.760  49.472  20.5960  0.00  0.00     0.000 O
ATOM     11  HD  NGY C   1      13.005  49.885  20.4970  0.00  0.00     0.000 HD
ENDROOT
BRANCH 2 13
ATOM     11   N  NGY C   1      12.690  51.261  16.1370  0.00  0.00     0.000 N
ATOM     13  HD  NGY C   1      13.226  51.938  16.0720  0.00  0.00     0.000 HD
ATOM     13   C  NGY C   1      13.109  52.463  15.7450  0.00  0.00     0.000 C
ATOM     14   O  NGY C   1      14.134  52.963  16.2120  0.00  0.00     0.000 OA
ATOM     15   C  NGY C   1      12.290  53.153  14.6980  0.00  0.00     0.000 C
ENDBRANCH 2 13
BRANCH 5 16
ATOM     16   C  NGY C   1      13.882  46.838  19.2700  0.00  0.00     0.000 C
ATOM     17   O  NGY C   1      12.939  43.807  17.4300  0.00  0.00     0.000 OA
ATOM     18   O  NGY C   1      13.347  45.950  18.2850  0.00  0.00     0.000 O
ATOM     19   S  NGY C   1      13.385  44.423  18.6540  0.00  0.00     0.000 S
ATOM     20   O  NGY C   1      12.459  44.224  19.7370  0.00  0.00     0.000 OA
ATOM     21   O  NGY C   1      14.769  44.170  19.0200  0.00  0.00     0.000 OA
ENDBRANCH 5 16
BRANCH 1 22
ATOM     22  O4  BDP C   2      15.420  49.298  16.2880  0.00  0.00     0.000 O
BRANCH 22 26
ATOM     23  C1  BDP C   2      18.792  48.388  14.1040  0.00  0.00     0.000 C
ATOM     24  C2  BDP C   2      17.482  48.258  13.3620  0.00  0.00     0.000 C
ATOM     25  C3  BDP C   2      16.393  48.956  14.1330  0.00  0.00     0.000 C
ATOM     26  C4  BDP C   2      16.356  48.449  15.5710  0.00  0.00     0.000 C
ATOM     27  C5  BDP C   2      17.761  48.462  16.1600  0.00  0.00     0.000 C
ATOM     28  O5  BDP C   2      18.704  47.687  15.3760  0.00  0.00     0.000 O
ATOM     29   O  BDP C   2      17.497  48.940  12.1080  0.00  0.00     0.000 O
ATOM     31  HD  BDP C   2      16.757  49.318  11.8640  0.00  0.00     0.000 HD
ATOM     31   O  BDP C   2      15.167  48.657  13.4780  0.00  0.00     0.000 O
ATOM     33  HD  BDP C   2      14.426  49.035  13.2340  0.00  0.00     0.000 HD
BRANCH 27 33
ATOM     33   C  BDP C   2      17.809  47.879  17.5520  0.00  0.00     0.000 C
ATOM     34   O  BDP C   2      17.289  46.771  17.8280  0.00  0.00     0.000 OA
ATOM     35   O  BDP C   2      18.341  48.530  18.4360  0.00  0.00     0.000 OA
ENDBRANCH 27 33
BRANCH 23 36
ATOM     36  O4  SGN C   3      19.878  47.914  13.4500  0.00  0.00     0.000 O
BRANCH 36 40
ATOM     37  C1  SGN C   3      24.041  48.110  13.2070  0.00  0.00     0.000 C
ATOM     38  C2  SGN C   3      23.427  46.996  14.0710  0.00  0.00     0.000 C
ATOM     39  C3  SGN C   3      21.963  46.790  13.7130  0.00  0.00     0.000 C
ATOM     40  C4  SGN C   3      21.233  48.107  13.8640  0.00  0.00     0.000 C
ATOM     41  C5  SGN C   3      21.915  49.145  13.0010  0.00  0.00     0.000 C
ATOM     42  O5  SGN C   3      23.284  49.292  13.4100  0.00  0.00     0.000 O
ATOM     43   O  SGN C   3      21.407  45.798  14.5670  0.00  0.00     0.000 O
ATOM     45  HD  SGN C   3      20.787  46.343  14.3050  0.00  0.00     0.000 HD
BRANCH 38 47
ATOM     45   N  SGN C   3      23.992  46.040  15.0410  0.00  0.00     0.000 N
ATOM     47  HD  SGN C   3      23.294  46.432  14.7110  0.00  0.00     0.000 HD
ATOM     47   S  SGN C   3      25.497  45.661  14.6980  0.00  0.00     0.000 S
ATOM     48   O  SGN C   3      25.584  44.936  13.4790  0.00  0.00     0.000 OA
ATOM     49   O  SGN C   3      26.252  46.868  14.7810  0.00  0.00     0.000 OA
ATOM     50   O  SGN C   3      25.828  44.743  15.7870  0.00  0.00     0.000 OA
ENDBRANCH 38 47
BRANCH 41 51
ATOM     51   C  SGN C   3      21.279  50.507  13.0570  0.00  0.00     0.000 C
ATOM     52   O  SGN C   3      23.007  53.790  13.3980  0.00  0.00     0.000 OA
ATOM     53   O  SGN C   3      21.008  53.237  12.2020  0.00  0.00     0.000 OA
ATOM     54   O  SGN C   3      21.084  53.056  14.5950  0.00  0.00     0.000 OA
ATOM     55   O  SGN C   3      22.296  51.481  13.1390  0.00  0.00     0.000 O
ATOM     56   S  SGN C   3      21.801  53.036  13.3550  0.00  0.00     0.000 S
ENDBRANCH 41 51
BRANCH 37 57
ATOM     57  O4  IDS C   4      24.066  47.845  11.8780  0.00  0.00     0.000 O
BRANCH 57 61
ATOM     58  C1  IDS C   4      25.939  47.103   8.6510  0.00  0.00     0.000 C
ATOM     59  C2  IDS C   4      26.393  46.441   9.9130  0.00  0.00     0.000 C
ATOM     60  C3  IDS C   4      26.343  47.378  11.1230  0.00  0.00     0.000 C
ATOM     61  C4  IDS C   4      25.197  48.379  11.1630  0.00  0.00     0.000 C
ATOM     62  C5  IDS C   4      24.799  48.805   9.7460  0.00  0.00     0.000 C
ATOM     63  O5  IDS C   4      24.669  47.690   8.8770  0.00  0.00     0.000 O
ATOM     64   O  IDS C   4      27.562  48.097  11.0880  0.00  0.00     0.000 O
ATOM     66  HD  IDS C   4      27.415  48.934  10.9210  0.00  0.00     0.000 HD
BRANCH 59 66
ATOM     66   O  IDS C   4      25.549  45.279  10.2500  0.00  0.00     0.000 O
ATOM     67   S  IDS C   4      26.188  43.842  10.0010  0.00  0.00     0.000 S
ATOM     68   O  IDS C   4      27.287  43.805  10.9360  0.00  0.00     0.000 OA
ATOM     69   O  IDS C   4      25.118  42.905  10.2800  0.00  0.00     0.000 OA
ATOM     70   O  IDS C   4      26.653  43.810   8.6240  0.00  0.00     0.000 OA
ENDBRANCH 59 66
BRANCH 62 71
ATOM     71   C  IDS C   4      23.463  49.522   9.6940  0.00  0.00     0.000 C
ATOM     72   O  IDS C   4      22.504  48.988   9.1710  0.00  0.00     0.000 OA
ATOM     73   O  IDS C   4      23.404  50.699  10.1030  0.00  0.00     0.000 OA
ENDBRANCH 62 71
BRANCH 58 74
ATOM     74  O4  SGN C   5      26.899  47.821   8.0010  0.00  0.00     0.000 O
BRANCH 74 78
ATOM     75  C1  SGN C   5      28.244  49.214   4.3010  0.00  0.00     0.000 C
ATOM     76  C2  SGN C   5      27.312  50.160   5.0800  0.00  0.00     0.000 C
ATOM     77  C3  SGN C   5      27.168  49.701   6.5370  0.00  0.00     0.000 C
ATOM     78  C4  SGN C   5      26.864  48.212   6.6290  0.00  0.00     0.000 C
ATOM     79  C5  SGN C   5      27.895  47.434   5.8240  0.00  0.00     0.000 C
ATOM     80  O5  SGN C   5      27.846  47.856   4.4360  0.00  0.00     0.000 O
ATOM     81   O  SGN C   5      26.138  50.461   7.1610  0.00  0.00     0.000 O
ATOM     83  HD  SGN C   5      26.020  51.300   6.9820  0.00  0.00     0.000 HD
BRANCH 76 85
ATOM     83   N  SGN C   5      28.093  51.228   4.4430  0.00  0.00     0.000 N
ATOM     85  HD  SGN C   5      28.317  52.058   4.3420  0.00  0.00     0.000 HD
ATOM     85   S  SGN C   5      27.627  52.697   3.9760  0.00  0.00     0.000 S
ATOM     86   O  SGN C   5      28.729  53.422   3.4440  0.00  0.00     0.000 OA
ATOM     87   O  SGN C   5      26.497  52.529   3.1340  0.00  0.00     0.000 OA
ATOM     88   O  SGN C   5      27.269  53.208   5.3690  0.00  0.00     0.000 OA
ENDBRANCH 76 85
BRANCH 79 89
ATOM     89   C  SGN C   5      27.690  45.933   5.8730  0.00  0.00     0.000 C
ATOM     90   O  SGN C   5      26.445  45.586   5.2190  0.00  0.00     0.000 O
ATOM     91   S  SGN C   5      26.388  44.160   4.4860  0.00  0.00     0.000 S
ATOM     92   O  SGN C   5      27.526  44.111   3.6050  0.00  0.00     0.000 OA
ATOM     93   O  SGN C   5      26.444  43.153   5.5140  0.00  0.00     0.000 OA
ATOM     94   O  SGN C   5      25.129  44.194   3.7930  0.00  0.00     0.000 OA
ENDBRANCH 79 89
BRANCH 75 95
ATOM     95  O4  BDP C   6      29.486  49.384   4.8440  0.00  0.00     0.000 O
BRANCH 95 99
ATOM     96  C1  BDP C   6      33.420  48.893   3.1910  0.00  0.00     0.000 C
ATOM     97  C2  BDP C   6      32.369  49.577   2.3620  0.00  0.00     0.000 C
ATOM     98  C3  BDP C   6      31.140  50.043   3.1570  0.00  0.00     0.000 C
ATOM     99  C4  BDP C   6      30.610  48.936   4.0550  0.00  0.00     0.000 C
ATOM    100  C5  BDP C   6      31.799  48.364   4.8620  0.00  0.00     0.000 C
ATOM    101  O5  BDP C   6      32.689  47.873   3.8460  0.00  0.00     0.000 O
BRANCH 100 102
ATOM    102   C  BDP C   6      31.404  47.201   5.7350  0.00  0.00     0.000 C
ATOM    103   O  BDP C   6      31.276  47.308   6.9630  0.00  0.00     0.000 OA
ATOM    104   O  BDP C   6      31.197  46.121   5.1680  0.00  0.00     0.000 OA
ENDBRANCH 100 102
ENDBRANCH 95 99
ENDBRANCH 75 95
ENDBRANCH 74 78
ENDBRANCH 58 74
ENDBRANCH 57 61
ENDBRANCH 37 57
ENDBRANCH 36 40
ENDBRANCH 23 36
ENDBRANCH 22 26
ENDBRANCH 1 22
TORSDOF 20
ENDMDL
MODEL 97
REMARK VINA RESULT:      -3.8      4.524      8.907
ROOT
ATOM      1  C1  NGY C   1      14.116  33.048  21.0930  0.00  0.00     0.000 C
ATOM      2  C2  NGY C   1      14.765  32.123  20.0730  0.00  0.00     0.000 C
ATOM      3  C3  NGY C   1      16.119  31.640  20.5830  0.00  0.00     0.000 C
ATOM      4  C4  NGY C   1      16.955  32.855  20.9360  0.00  0.00     0.000 C
ATOM      5  C5  NGY C   1      16.234  33.648  22.0230  0.00  0.00     0.000 C
ATOM      6  O5  NGY C   1      14.966  34.105  21.4850  0.00  0.00     0.000 O
ATOM      7   O  NGY C   1      16.736  30.839  19.5850  0.00  0.00     0.000 O
ATOM      9  HD  NGY C   1      16.790  30.828  18.7210  0.00  0.00     0.000 HD
ATOM      9   O  NGY C   1      18.246  32.470  21.3880  0.00  0.00     0.000 O
ATOM     11  HD  NGY C   1      18.301  32.459  20.5240  0.00  0.00     0.000 HD
ENDROOT
BRANCH 2 13
ATOM     11   N  NGY C   1      13.791  31.849  19.0430  0.00  0.00     0.000 N
ATOM     13  HD  NGY C   1      13.917  30.996  18.9620  0.00  0.00     0.000 HD
ATOM     13   C  NGY C   1      13.610  30.620  18.5630  0.00  0.00     0.000 C
ATOM     14   O  NGY C   1      14.363  29.696  18.8760  0.00  0.00     0.000 OA
ATOM     15   C  NGY C   1      12.436  30.419  17.6540  0.00  0.00     0.000 C
ENDBRANCH 2 13
BRANCH 5 16
ATOM     16   C  NGY C   1      16.943  34.879  22.4880  0.00  0.00     0.000 C
ATOM     17   O  NGY C   1      16.506  38.192  20.9730  0.00  0.00     0.000 OA
ATOM     18   O  NGY C   1      16.706  35.930  21.5460  0.00  0.00     0.000 O
ATOM     19   S  NGY C   1      16.980  37.386  22.0690  0.00  0.00     0.000 S
ATOM     20   O  NGY C   1      18.401  37.507  22.2650  0.00  0.00     0.000 OA
ATOM     21   O  NGY C   1      16.214  37.483  23.3010  0.00  0.00     0.000 OA
ENDBRANCH 5 16
BRANCH 1 22
ATOM     22  O4  BDP C   2      13.690  32.309  22.1400  0.00  0.00     0.000 O
BRANCH 22 26
ATOM     23  C1  BDP C   2      10.902  31.514  25.0660  0.00  0.00     0.000 C
ATOM     24  C2  BDP C   2      10.341  31.778  23.6880  0.00  0.00     0.000 C
ATOM     25  C3  BDP C   2      11.445  31.688  22.6670  0.00  0.00     0.000 C
ATOM     26  C4  BDP C   2      12.605  32.597  23.0610  0.00  0.00     0.000 C
ATOM     27  C5  BDP C   2      12.970  32.365  24.5210  0.00  0.00     0.000 C
ATOM     28  O5  BDP C   2      11.847  32.563  25.4180  0.00  0.00     0.000 O
ATOM     29   O  BDP C   2       9.417  30.772  23.2750  0.00  0.00     0.000 O
ATOM     31  HD  BDP C   2       9.421  30.565  22.4340  0.00  0.00     0.000 HD
ATOM     31   O  BDP C   2      10.894  32.108  21.4250  0.00  0.00     0.000 O
ATOM     33  HD  BDP C   2      10.898  31.901  20.5840  0.00  0.00     0.000 HD
BRANCH 27 33
ATOM     33   C  BDP C   2      14.049  33.306  25.0020  0.00  0.00     0.000 C
ATOM     34   O  BDP C   2      15.155  32.890  25.4240  0.00  0.00     0.000 OA
ATOM     35   O  BDP C   2      13.816  34.503  25.0080  0.00  0.00     0.000 OA
ENDBRANCH 27 33
BRANCH 23 36
ATOM     36  O4  SGN C   3       9.986  31.437  26.0590  0.00  0.00     0.000 O
BRANCH 36 40
ATOM     37  C1  SGN C   3      10.897  27.864  28.0170  0.00  0.00     0.000 C
ATOM     38  C2  SGN C   3       9.514  27.985  27.3580  0.00  0.00     0.000 C
ATOM     39  C3  SGN C   3       9.504  29.120  26.3450  0.00  0.00     0.000 C
ATOM     40  C4  SGN C   3       9.926  30.398  27.0390  0.00  0.00     0.000 C
ATOM     41  C5  SGN C   3      11.281  30.182  27.6760  0.00  0.00     0.000 C
ATOM     42  O5  SGN C   3      11.204  29.108  28.6270  0.00  0.00     0.000 O
ATOM     43   O  SGN C   3       8.198  29.247  25.7960  0.00  0.00     0.000 O
ATOM     45  HD  SGN C   3       8.604  30.012  25.7710  0.00  0.00     0.000 HD
BRANCH 38 47
ATOM     45   N  SGN C   3       9.272  26.694  26.6880  0.00  0.00     0.000 N
ATOM     47  HD  SGN C   3       9.662  27.468  26.6830  0.00  0.00     0.000 HD
ATOM     47   S  SGN C   3       8.613  25.628  27.6660  0.00  0.00     0.000 S
ATOM     48   O  SGN C   3       9.505  25.261  28.7090  0.00  0.00     0.000 OA
ATOM     49   O  SGN C   3       7.351  26.162  28.0610  0.00  0.00     0.000 OA
ATOM     50   O  SGN C   3       8.458  24.473  26.7850  0.00  0.00     0.000 OA
ENDBRANCH 38 47
BRANCH 41 51
ATOM     51   C  SGN C   3      11.820  31.386  28.3990  0.00  0.00     0.000 C
ATOM     52   O  SGN C   3       9.859  34.116  30.0070  0.00  0.00     0.000 OA
ATOM     53   O  SGN C   3      11.957  33.161  30.6550  0.00  0.00     0.000 OA
ATOM     54   O  SGN C   3      11.754  34.362  28.5860  0.00  0.00     0.000 OA
ATOM     55   O  SGN C   3      10.738  32.140  28.8980  0.00  0.00     0.000 O
ATOM     56   S  SGN C   3      11.114  33.580  29.6010  0.00  0.00     0.000 S
ENDBRANCH 41 51
BRANCH 37 57
ATOM     57  O4  IDS C   4      11.904  27.550  27.1660  0.00  0.00     0.000 O
BRANCH 57 61
ATOM     58  C1  IDS C   4      14.653  25.287  25.8270  0.00  0.00     0.000 C
ATOM     59  C2  IDS C   4      13.299  24.703  26.0730  0.00  0.00     0.000 C
ATOM     60  C3  IDS C   4      12.651  25.230  27.3560  0.00  0.00     0.000 C
ATOM     61  C4  IDS C   4      12.922  26.686  27.7070  0.00  0.00     0.000 C
ATOM     62  C5  IDS C   4      14.314  27.111  27.2250  0.00  0.00     0.000 C
ATOM     63  O5  IDS C   4      14.557  26.700  25.8870  0.00  0.00     0.000 O
ATOM     64   O  IDS C   4      13.166  24.418  28.3940  0.00  0.00     0.000 O
ATOM     66  HD  IDS C   4      13.675  24.883  28.9190  0.00  0.00     0.000 HD
BRANCH 59 66
ATOM     66   O  IDS C   4      12.365  25.015  24.9740  0.00  0.00     0.000 O
ATOM     67   S  IDS C   4      11.857  23.785  24.1020  0.00  0.00     0.000 S
ATOM     68   O  IDS C   4      11.094  23.005  25.0470  0.00  0.00     0.000 OA
ATOM     69   O  IDS C   4      11.079  24.382  23.0340  0.00  0.00     0.000 OA
ATOM     70   O  IDS C   4      13.035  23.068  23.6410  0.00  0.00     0.000 OA
ENDBRANCH 59 66
BRANCH 62 71
ATOM     71   C  IDS C   4      14.513  28.615  27.2330  0.00  0.00     0.000 C
ATOM     72   O  IDS C   4      14.375  29.254  26.2070  0.00  0.00     0.000 OA
ATOM     73   O  IDS C   4      14.918  29.155  28.2820  0.00  0.00     0.000 OA
ENDBRANCH 62 71
BRANCH 58 74
ATOM     74  O4  SGN C   5      15.676  24.661  26.4750  0.00  0.00     0.000 O
BRANCH 74 78
ATOM     75  C1  SGN C   5      19.774  23.855  26.4940  0.00  0.00     0.000 C
ATOM     76  C2  SGN C   5      19.378  25.337  26.3610  0.00  0.00     0.000 C
ATOM     77  C3  SGN C   5      17.896  25.536  26.7080  0.00  0.00     0.000 C
ATOM     78  C4  SGN C   5      17.013  24.524  25.9910  0.00  0.00     0.000 C
ATOM     79  C5  SGN C   5      17.535  23.119  26.2520  0.00  0.00     0.000 C
ATOM     80  O5  SGN C   5      18.897  23.009  25.7610  0.00  0.00     0.000 O
ATOM     81   O  SGN C   5      17.516  26.864  26.3650  0.00  0.00     0.000 O
ATOM     83  HD  SGN C   5      18.055  27.533  26.4700  0.00  0.00     0.000 HD
BRANCH 76 85
ATOM     83   N  SGN C   5      20.435  25.794  27.2730  0.00  0.00     0.000 N
ATOM     85  HD  SGN C   5      20.945  26.408  27.6080  0.00  0.00     0.000 HD
ATOM     85   S  SGN C   5      21.633  26.838  27.0070  0.00  0.00     0.000 S
ATOM     86   O  SGN C   5      22.402  27.022  28.1890  0.00  0.00     0.000 OA
ATOM     87   O  SGN C   5      22.325  26.396  25.8500  0.00  0.00     0.000 OA
ATOM     88   O  SGN C   5      20.743  28.051  26.7500  0.00  0.00     0.000 OA
ENDBRANCH 76 85
BRANCH 79 89
ATOM     89   C  SGN C   5      16.704  22.035  25.5980  0.00  0.00     0.000 C
ATOM     90   O  SGN C   5      16.523  22.337  24.1920  0.00  0.00     0.000 O
ATOM     91   S  SGN C   5      16.395  21.085  23.1960  0.00  0.00     0.000 S
ATOM     92   O  SGN C   5      17.533  20.242  23.4540  0.00  0.00     0.000 OA
ATOM     93   O  SGN C   5      15.147  20.432  23.4960  0.00  0.00     0.000 OA
ATOM     94   O  SGN C   5      16.418  21.695  21.8950  0.00  0.00     0.000 OA
ENDBRANCH 79 89
BRANCH 75 95
ATOM     95  O4  BDP C   6      19.686  23.564  27.8260  0.00  0.00     0.000 O
BRANCH 95 99
ATOM     96  C1  BDP C   6      21.727  20.397  29.8870  0.00  0.00     0.000 C
ATOM     97  C2  BDP C   6      22.170  20.755  28.4970  0.00  0.00     0.000 C
ATOM     98  C3  BDP C   6      21.658  22.116  28.0000  0.00  0.00     0.000 C
ATOM     99  C4  BDP C   6      20.164  22.266  28.2420  0.00  0.00     0.000 C
ATOM    100  C5  BDP C   6      19.879  21.897  29.7170  0.00  0.00     0.000 C
ATOM    101  O5  BDP C   6      20.321  20.533  29.8140  0.00  0.00     0.000 O
BRANCH 100 102
ATOM    102   C  BDP C   6      18.410  21.935  30.0530  0.00  0.00     0.000 C
ATOM    103   O  BDP C   6      17.598  21.139  29.5610  0.00  0.00     0.000 OA
ATOM    104   O  BDP C   6      18.044  22.796  30.8620  0.00  0.00     0.000 OA
ENDBRANCH 100 102
ENDBRANCH 95 99
ENDBRANCH 75 95
ENDBRANCH 74 78
ENDBRANCH 58 74
ENDBRANCH 57 61
ENDBRANCH 37 57
ENDBRANCH 36 40
ENDBRANCH 23 36
ENDBRANCH 22 26
ENDBRANCH 1 22
TORSDOF 20
ENDMDL
MODEL 98
REMARK VINA RESULT:      -2.8     33.159     38.022
ROOT
ATOM      1  C1  NGY C   1      36.017   4.707  52.4470  0.00  0.00     0.000 C
ATOM      2  C2  NGY C   1      36.895   3.739  53.2280  0.00  0.00     0.000 C
ATOM      3  C3  NGY C   1      38.019   4.493  53.9300  0.00  0.00     0.000 C
ATOM      4  C4  NGY C   1      38.768   5.305  52.8910  0.00  0.00     0.000 C
ATOM      5  C5  NGY C   1      37.796   6.288  52.2440  0.00  0.00     0.000 C
ATOM      6  O5  NGY C   1      36.761   5.526  51.5700  0.00  0.00     0.000 O
ATOM      7   O  NGY C   1      38.864   3.563  54.5910  0.00  0.00     0.000 O
ATOM      9  HD  NGY C   1      39.168   2.764  54.4480  0.00  0.00     0.000 HD
ATOM      9   O  NGY C   1      39.853   6.008  53.4800  0.00  0.00     0.000 O
ATOM     11  HD  NGY C   1      40.157   5.209  53.3370  0.00  0.00     0.000 HD
ENDROOT
BRANCH 2 13
ATOM     11   N  NGY C   1      36.155   3.023  54.2410  0.00  0.00     0.000 N
ATOM     13  HD  NGY C   1      36.365   2.214  54.0150  0.00  0.00     0.000 HD
ATOM     13   C  NGY C   1      36.165   1.692  54.3040  0.00  0.00     0.000 C
ATOM     14   O  NGY C   1      36.689   1.017  53.4170  0.00  0.00     0.000 OA
ATOM     15   C  NGY C   1      35.537   1.071  55.5140  0.00  0.00     0.000 C
ENDBRANCH 2 13
BRANCH 5 16
ATOM     16   C  NGY C   1      38.392   7.173  51.1960  0.00  0.00     0.000 C
ATOM     17   O  NGY C   1      37.020   7.558  47.8150  0.00  0.00     0.000 OA
ATOM     18   O  NGY C   1      37.738   6.916  49.9500  0.00  0.00     0.000 O
ATOM     19   S  NGY C   1      37.900   8.030  48.8550  0.00  0.00     0.000 S
ATOM     20   O  NGY C   1      39.280   8.029  48.4470  0.00  0.00     0.000 OA
ATOM     21   O  NGY C   1      37.491   9.258  49.5180  0.00  0.00     0.000 OA
ENDBRANCH 5 16
BRANCH 1 22
ATOM     22  O4  BDP C   2      35.273   5.419  53.3190  0.00  0.00     0.000 O
BRANCH 22 26
ATOM     23  C1  BDP C   2      31.731   7.219  54.4030  0.00  0.00     0.000 C
ATOM     24  C2  BDP C   2      31.624   5.770  53.9910  0.00  0.00     0.000 C
ATOM     25  C3  BDP C   2      32.994   5.145  53.9790  0.00  0.00     0.000 C
ATOM     26  C4  BDP C   2      33.946   5.975  53.1240  0.00  0.00     0.000 C
ATOM     27  C5  BDP C   2      33.840   7.444  53.5110  0.00  0.00     0.000 C
ATOM     28  O5  BDP C   2      32.487   7.957  53.4030  0.00  0.00     0.000 O
ATOM     29   O  BDP C   2      30.905   4.985  54.9430  0.00  0.00     0.000 O
ATOM     31  HD  BDP C   2      31.178   4.172  55.0600  0.00  0.00     0.000 HD
ATOM     31   O  BDP C   2      32.850   3.843  53.4270  0.00  0.00     0.000 O
ATOM     33  HD  BDP C   2      33.124   3.029  53.5440  0.00  0.00     0.000 HD
BRANCH 27 33
ATOM     33   C  BDP C   2      34.687   8.335  52.6330  0.00  0.00     0.000 C
ATOM     34   O  BDP C   2      34.656   8.259  51.3810  0.00  0.00     0.000 OA
ATOM     35   O  BDP C   2      35.446   9.125  53.1690  0.00  0.00     0.000 OA
ENDBRANCH 27 33
BRANCH 23 36
ATOM     36  O4  SGN C   3      30.552   7.859  54.5790  0.00  0.00     0.000 O
BRANCH 36 40
ATOM     37  C1  SGN C   3      28.263   9.655  57.5740  0.00  0.00     0.000 C
ATOM     38  C2  SGN C   3      28.792  10.553  56.4440  0.00  0.00     0.000 C
ATOM     39  C3  SGN C   3      29.208   9.712  55.2460  0.00  0.00     0.000 C
ATOM     40  C4  SGN C   3      30.229   8.691  55.6980  0.00  0.00     0.000 C
ATOM     41  C5  SGN C   3      29.635   7.870  56.8210  0.00  0.00     0.000 C
ATOM     42  O5  SGN C   3      29.283   8.731  57.9160  0.00  0.00     0.000 O
ATOM     43   O  SGN C   3      29.748  10.562  54.2420  0.00  0.00     0.000 O
ATOM     45  HD  SGN C   3      30.093   9.771  54.1750  0.00  0.00     0.000 HD
BRANCH 38 47
ATOM     45   N  SGN C   3      28.054  11.300  57.4780  0.00  0.00     0.000 N
ATOM     47  HD  SGN C   3      28.552  10.623  57.2700  0.00  0.00     0.000 HD
ATOM     47   S  SGN C   3      27.647  12.756  56.9870  0.00  0.00     0.000 S
ATOM     48   O  SGN C   3      28.790  13.574  56.7880  0.00  0.00     0.000 OA
ATOM     49   O  SGN C   3      26.780  12.582  55.8670  0.00  0.00     0.000 OA
ATOM     50   O  SGN C   3      26.927  13.272  58.1500  0.00  0.00     0.000 OA
ENDBRANCH 38 47
BRANCH 41 51
ATOM     51   C  SGN C   3      30.553   6.808  57.3610  0.00  0.00     0.000 C
ATOM     52   O  SGN C   3      33.770   7.314  59.1700  0.00  0.00     0.000 OA
ATOM     53   O  SGN C   3      32.118   5.604  59.4480  0.00  0.00     0.000 OA
ATOM     54   O  SGN C   3      33.353   5.780  57.3960  0.00  0.00     0.000 OA
ATOM     55   O  SGN C   3      31.634   7.431  58.0180  0.00  0.00     0.000 O
ATOM     56   S  SGN C   3      32.831   6.438  58.5570  0.00  0.00     0.000 S
ENDBRANCH 41 51
BRANCH 37 57
ATOM     57  O4  IDS C   4      27.144   8.955  57.2630  0.00  0.00     0.000 O
BRANCH 57 61
ATOM     58  C1  IDS C   4      23.728   8.015  58.6480  0.00  0.00     0.000 C
ATOM     59  C2  IDS C   4      24.435   9.200  59.2250  0.00  0.00     0.000 C
ATOM     60  C3  IDS C   4      25.939   8.969  59.3900  0.00  0.00     0.000 C
ATOM     61  C4  IDS C   4      26.621   8.128  58.3200  0.00  0.00     0.000 C
ATOM     62  C5  IDS C   4      25.658   7.072  57.7630  0.00  0.00     0.000 C
ATOM     63  O5  IDS C   4      24.388   7.628  57.4550  0.00  0.00     0.000 O
ATOM     64   O  IDS C   4      26.080   8.307  60.6330  0.00  0.00     0.000 O
ATOM     66  HD  IDS C   4      26.360   7.496  60.5150  0.00  0.00     0.000 HD
BRANCH 59 66
ATOM     66   O  IDS C   4      24.287  10.391  58.3660  0.00  0.00     0.000 O
ATOM     67   S  IDS C   4      23.445  11.600  58.9670  0.00  0.00     0.000 S
ATOM     68   O  IDS C   4      24.242  12.030  60.0900  0.00  0.00     0.000 OA
ATOM     69   O  IDS C   4      23.346  12.560  57.8850  0.00  0.00     0.000 OA
ATOM     70   O  IDS C   4      22.163  11.061  59.3940  0.00  0.00     0.000 OA
ENDBRANCH 59 66
BRANCH 62 71
ATOM     71   C  IDS C   4      26.151   6.438  56.4760  0.00  0.00     0.000 C
ATOM     72   O  IDS C   4      27.074   5.648  56.5000  0.00  0.00     0.000 OA
ATOM     73   O  IDS C   4      25.658   6.824  55.3980  0.00  0.00     0.000 OA
ENDBRANCH 62 71
BRANCH 58 74
ATOM     74  O4  SGN C   5      23.374   7.060  59.5540  0.00  0.00     0.000 O
BRANCH 74 78
ATOM     75  C1  SGN C   5      20.452   4.305  60.7010  0.00  0.00     0.000 C
ATOM     76  C2  SGN C   5      21.528   3.783  59.7300  0.00  0.00     0.000 C
ATOM     77  C3  SGN C   5      22.711   4.758  59.6570  0.00  0.00     0.000 C
ATOM     78  C4  SGN C   5      22.244   6.193  59.4550  0.00  0.00     0.000 C
ATOM     79  C5  SGN C   5      21.208   6.543  60.5120  0.00  0.00     0.000 C
ATOM     80  O5  SGN C   5      20.075   5.641  60.3980  0.00  0.00     0.000 O
ATOM     81   O  SGN C   5      23.574   4.359  58.5970  0.00  0.00     0.000 O
ATOM     83  HD  SGN C   5      23.718   3.524  58.4190  0.00  0.00     0.000 HD
BRANCH 76 85
ATOM     83   N  SGN C   5      21.759   2.438  59.1880  0.00  0.00     0.000 N
ATOM     85  HD  SGN C   5      21.524   1.617  59.0500  0.00  0.00     0.000 HD
ATOM     85   S  SGN C   5      21.443   1.003  59.8460  0.00  0.00     0.000 S
ATOM     86   O  SGN C   5      21.789  -0.043  58.9470  0.00  0.00     0.000 OA
ATOM     87   O  SGN C   5      22.057   0.984  61.1260  0.00  0.00     0.000 OA
ATOM     88   O  SGN C   5      19.928   1.179  59.9080  0.00  0.00     0.000 OA
ENDBRANCH 76 85
BRANCH 79 89
ATOM     89   C  SGN C   5      20.696   7.965  60.4090  0.00  0.00     0.000 C
ATOM     90   O  SGN C   5      19.431   7.981  59.7040  0.00  0.00     0.000 O
ATOM     91   S  SGN C   5      18.386   9.124  60.1250  0.00  0.00     0.000 S
ATOM     92   O  SGN C   5      18.239   9.033  61.5540  0.00  0.00     0.000 OA
ATOM     93   O  SGN C   5      18.945  10.384  59.7080  0.00  0.00     0.000 OA
ATOM     94   O  SGN C   5      17.195   8.765  59.4040  0.00  0.00     0.000 OA
ENDBRANCH 79 89
BRANCH 75 95
ATOM     95  O4  BDP C   6      21.019   4.259  61.9440  0.00  0.00     0.000 O
BRANCH 95 99
ATOM     96  C1  BDP C   6      19.350   3.660  65.8560  0.00  0.00     0.000 C
ATOM     97  C2  BDP C   6      18.950   2.724  64.7500  0.00  0.00     0.000 C
ATOM     98  C3  BDP C   6      19.866   2.772  63.5170  0.00  0.00     0.000 C
ATOM     99  C4  BDP C   6      20.116   4.204  63.0690  0.00  0.00     0.000 C
ATOM    100  C5  BDP C   6      20.551   5.023  64.3080  0.00  0.00     0.000 C
ATOM    101  O5  BDP C   6      19.428   4.910  65.1970  0.00  0.00     0.000 O
BRANCH 100 102
ATOM    102   C  BDP C   6      20.752   6.484  63.9970  0.00  0.00     0.000 C
ATOM    103   O  BDP C   6      21.825   7.066  64.2130  0.00  0.00     0.000 OA
ATOM    104   O  BDP C   6      19.794   7.087  63.4990  0.00  0.00     0.000 OA
ENDBRANCH 100 102
ENDBRANCH 95 99
ENDBRANCH 75 95
ENDBRANCH 74 78
ENDBRANCH 58 74
ENDBRANCH 57 61
ENDBRANCH 37 57
ENDBRANCH 36 40
ENDBRANCH 23 36
ENDBRANCH 22 26
ENDBRANCH 1 22
TORSDOF 20
ENDMDL
MODEL 99
REMARK VINA RESULT:      -2.6      6.438     12.052
ROOT
ATOM      1  C1  NGY C   1      19.538  39.228  20.4890  0.00  0.00     0.000 C
ATOM      2  C2  NGY C   1      20.700  40.062  21.0090  0.00  0.00     0.000 C
ATOM      3  C3  NGY C   1      20.340  40.690  22.3510  0.00  0.00     0.000 C
ATOM      4  C4  NGY C   1      19.048  41.466  22.1830  0.00  0.00     0.000 C
ATOM      5  C5  NGY C   1      17.951  40.501  21.7410  0.00  0.00     0.000 C
ATOM      6  O5  NGY C   1      18.325  39.949  20.4520  0.00  0.00     0.000 O
ATOM      7   O  NGY C   1      21.410  41.521  22.7800  0.00  0.00     0.000 O
ATOM      9  HD  NGY C   1      21.988  42.054  22.4160  0.00  0.00     0.000 HD
ATOM      9   O  NGY C   1      18.677  42.105  23.3970  0.00  0.00     0.000 O
ATOM     11  HD  NGY C   1      19.255  42.637  23.0330  0.00  0.00     0.000 HD
ENDROOT
BRANCH 2 13
ATOM     11   N  NGY C   1      21.840  39.846  20.1500  0.00  0.00     0.000 N
ATOM     13  HD  NGY C   1      22.446  39.733  20.7570  0.00  0.00     0.000 HD
ATOM     13   C  NGY C   1      23.056  39.622  20.6460  0.00  0.00     0.000 C
ATOM     14   O  NGY C   1      23.281  39.732  21.8530  0.00  0.00     0.000 OA
ATOM     15   C  NGY C   1      24.114  39.205  19.6710  0.00  0.00     0.000 C
ENDBRANCH 2 13
BRANCH 5 16
ATOM     16   C  NGY C   1      16.605  41.119  21.5410  0.00  0.00     0.000 C
ATOM     17   O  NGY C   1      15.964  43.963  19.3130  0.00  0.00     0.000 OA
ATOM     18   O  NGY C   1      16.759  42.324  20.7860  0.00  0.00     0.000 O
ATOM     19   S  NGY C   1      15.455  42.869  20.1000  0.00  0.00     0.000 S
ATOM     20   O  NGY C   1      14.575  43.312  21.1500  0.00  0.00     0.000 OA
ATOM     21   O  NGY C   1      14.937  41.737  19.3490  0.00  0.00     0.000 OA
ENDBRANCH 5 16
BRANCH 1 22
ATOM     22  O4  BDP C   2      19.449  38.100  21.2260  0.00  0.00     0.000 O
BRANCH 22 26
ATOM     23  C1  BDP C   2      18.181  34.181  21.2400  0.00  0.00     0.000 C
ATOM     24  C2  BDP C   2      18.243  34.839  19.8820  0.00  0.00     0.000 C
ATOM     25  C3  BDP C   2      19.051  36.107  19.9710  0.00  0.00     0.000 C
ATOM     26  C4  BDP C   2      18.510  37.002  21.0800  0.00  0.00     0.000 C
ATOM     27  C5  BDP C   2      18.324  36.190  22.3550  0.00  0.00     0.000 C
ATOM     28  O5  BDP C   2      17.459  35.040  22.1670  0.00  0.00     0.000 O
ATOM     29   O  BDP C   2      18.956  34.052  18.9280  0.00  0.00     0.000 O
ATOM     31  HD  BDP C   2      19.433  34.484  18.3480  0.00  0.00     0.000 HD
ATOM     31   O  BDP C   2      18.933  36.762  18.7140  0.00  0.00     0.000 O
ATOM     33  HD  BDP C   2      19.410  37.193  18.1340  0.00  0.00     0.000 HD
BRANCH 27 33
ATOM     33   C  BDP C   2      17.697  36.996  23.4680  0.00  0.00     0.000 C
ATOM     34   O  BDP C   2      16.673  36.606  24.0770  0.00  0.00     0.000 OA
ATOM     35   O  BDP C   2      18.191  38.075  23.7510  0.00  0.00     0.000 OA
ENDBRANCH 27 33
BRANCH 23 36
ATOM     36  O4  SGN C   3      17.592  32.963  21.2680  0.00  0.00     0.000 O
BRANCH 36 40
ATOM     37  C1  SGN C   3      13.972  30.884  21.2610  0.00  0.00     0.000 C
ATOM     38  C2  SGN C   3      14.459  31.474  19.9280  0.00  0.00     0.000 C
ATOM     39  C3  SGN C   3      15.944  31.798  20.0000  0.00  0.00     0.000 C
ATOM     40  C4  SGN C   3      16.184  32.731  21.1660  0.00  0.00     0.000 C
ATOM     41  C5  SGN C   3      15.656  32.083  22.4270  0.00  0.00     0.000 C
ATOM     42  O5  SGN C   3      14.250  31.825  22.2870  0.00  0.00     0.000 O
ATOM     43   O  SGN C   3      16.353  32.396  18.7760  0.00  0.00     0.000 O
ATOM     45  HD  SGN C   3      16.862  32.668  19.4220  0.00  0.00     0.000 HD
BRANCH 38 47
ATOM     45   N  SGN C   3      13.137  31.700  19.3160  0.00  0.00     0.000 N
ATOM     47  HD  SGN C   3      13.808  32.017  19.7630  0.00  0.00     0.000 HD
ATOM     47   S  SGN C   3      12.736  30.534  18.3130  0.00  0.00     0.000 S
ATOM     48   O  SGN C   3      13.589  30.510  17.1790  0.00  0.00     0.000 OA
ATOM     49   O  SGN C   3      12.663  29.338  19.0860  0.00  0.00     0.000 OA
ATOM     50   O  SGN C   3      11.413  30.968  17.8670  0.00  0.00     0.000 OA
ENDBRANCH 38 47
BRANCH 41 51
ATOM     51   C  SGN C   3      15.839  32.913  23.6690  0.00  0.00     0.000 C
ATOM     52   O  SGN C   3      16.482  31.684  27.1270  0.00  0.00     0.000 OA
ATOM     53   O  SGN C   3      17.264  33.672  26.0450  0.00  0.00     0.000 OA
ATOM     54   O  SGN C   3      14.922  33.360  26.4720  0.00  0.00     0.000 OA
ATOM     55   O  SGN C   3      16.111  32.054  24.7540  0.00  0.00     0.000 O
ATOM     56   S  SGN C   3      16.202  32.760  26.2380  0.00  0.00     0.000 S
ENDBRANCH 41 51
BRANCH 37 57
ATOM     57  O4  IDS C   4      14.545  29.704  21.6010  0.00  0.00     0.000 O
BRANCH 57 61
ATOM     58  C1  IDS C   4      13.745  26.424  23.3540  0.00  0.00     0.000 C
ATOM     59  C2  IDS C   4      12.614  27.273  22.8680  0.00  0.00     0.000 C
ATOM     60  C3  IDS C   4      12.854  28.768  23.0970  0.00  0.00     0.000 C
ATOM     61  C4  IDS C   4      14.287  29.258  22.9460  0.00  0.00     0.000 C
ATOM     62  C5  IDS C   4      15.281  28.167  23.3620  0.00  0.00     0.000 C
ATOM     63  O5  IDS C   4      14.952  26.909  22.7900  0.00  0.00     0.000 O
ATOM     64   O  IDS C   4      12.437  29.012  24.4270  0.00  0.00     0.000 O
ATOM     66  HD  IDS C   4      13.115  29.221  24.9240  0.00  0.00     0.000 HD
BRANCH 59 66
ATOM     66   O  IDS C   4      12.391  27.103  21.4190  0.00  0.00     0.000 O
ATOM     67   S  IDS C   4      10.964  26.555  20.9790  0.00  0.00     0.000 S
ATOM     68   O  IDS C   4      10.067  27.610  21.3860  0.00  0.00     0.000 OA
ATOM     69   O  IDS C   4      11.065  26.359  19.5460  0.00  0.00     0.000 OA
ATOM     70   O  IDS C   4      10.724  25.330  21.7250  0.00  0.00     0.000 OA
ENDBRANCH 59 66
BRANCH 62 71
ATOM     71   C  IDS C   4      16.703  28.457  22.9180  0.00  0.00     0.000 C
ATOM     72   O  IDS C   4      17.455  27.543  22.6420  0.00  0.00     0.000 OA
ATOM     73   O  IDS C   4      17.104  29.638  22.9470  0.00  0.00     0.000 OA
ENDBRANCH 62 71
BRANCH 58 74
ATOM     74  O4  SGN C   5      13.705  26.119  24.6820  0.00  0.00     0.000 O
BRANCH 74 78
ATOM     75  C1  SGN C   5      14.996  23.472  27.6430  0.00  0.00     0.000 C
ATOM     76  C2  SGN C   5      16.082  23.993  26.6830  0.00  0.00     0.000 C
ATOM     77  C3  SGN C   5      15.565  25.194  25.8800  0.00  0.00     0.000 C
ATOM     78  C4  SGN C   5      14.194  24.917  25.2780  0.00  0.00     0.000 C
ATOM     79  C5  SGN C   5      13.248  24.438  26.3690  0.00  0.00     0.000 C
ATOM     80  O5  SGN C   5      13.772  23.222  26.9660  0.00  0.00     0.000 O
ATOM     81   O  SGN C   5      16.506  25.505  24.8570  0.00  0.00     0.000 O
ATOM     83  HD  SGN C   5      17.359  25.436  24.9890  0.00  0.00     0.000 HD
BRANCH 76 85
ATOM     83   N  SGN C   5      16.977  23.914  27.8440  0.00  0.00     0.000 N
ATOM     85  HD  SGN C   5      17.739  24.043  28.2350  0.00  0.00     0.000 HD
ATOM     85   S  SGN C   5      18.538  23.521  27.9070  0.00  0.00     0.000 S
ATOM     86   O  SGN C   5      19.022  23.620  29.2400  0.00  0.00     0.000 OA
ATOM     87   O  SGN C   5      18.681  22.267  27.2580  0.00  0.00     0.000 OA
ATOM     88   O  SGN C   5      19.038  24.694  27.0660  0.00  0.00     0.000 OA
ENDBRANCH 76 85
BRANCH 79 89
ATOM     89   C  SGN C   5      11.844  24.158  25.8720  0.00  0.00     0.000 C
ATOM     90   O  SGN C   5      10.883  24.858  26.6990  0.00  0.00     0.000 O
ATOM     91   S  SGN C   5       9.532  25.344  25.9810  0.00  0.00     0.000 S
ATOM     92   O  SGN C   5       9.937  26.095  24.8210  0.00  0.00     0.000 OA
ATOM     93   O  SGN C   5       8.786  24.162  25.6380  0.00  0.00     0.000 OA
ATOM     94   O  SGN C   5       8.893  26.147  26.9880  0.00  0.00     0.000 OA
ENDBRANCH 79 89
BRANCH 75 95
ATOM     95  O4  BDP C   6      14.815  24.459  28.5700  0.00  0.00     0.000 O
BRANCH 95 99
ATOM     96  C1  BDP C   6      13.719  24.124  32.7090  0.00  0.00     0.000 C
ATOM     97  C2  BDP C   6      14.422  22.969  32.0530  0.00  0.00     0.000 C
ATOM     98  C3  BDP C   6      15.104  23.316  30.7210  0.00  0.00     0.000 C
ATOM     99  C4  BDP C   6      14.164  24.083  29.8030  0.00  0.00     0.000 C
ATOM    100  C5  BDP C   6      13.553  25.251  30.6120  0.00  0.00     0.000 C
ATOM    101  O5  BDP C   6      12.861  24.592  31.6850  0.00  0.00     0.000 O
BRANCH 100 102
ATOM    102   C  BDP C   6      12.540  26.040  29.8220  0.00  0.00     0.000 C
ATOM    103   O  BDP C   6      11.383  25.634  29.6370  0.00  0.00     0.000 OA
ATOM    104   O  BDP C   6      12.910  27.129  29.3680  0.00  0.00     0.000 OA
ENDBRANCH 100 102
ENDBRANCH 95 99
ENDBRANCH 75 95
ENDBRANCH 74 78
ENDBRANCH 58 74
ENDBRANCH 57 61
ENDBRANCH 37 57
ENDBRANCH 36 40
ENDBRANCH 23 36
ENDBRANCH 22 26
ENDBRANCH 1 22
TORSDOF 20
ENDMDL
MODEL 100
REMARK VINA RESULT:      -2.4      6.828     13.113
ROOT
ATOM      1  C1  NGY C   1      17.371  37.778  21.0920  0.00  0.00     0.000 C
ATOM      2  C2  NGY C   1      18.146  36.632  20.4570  0.00  0.00     0.000 C
ATOM      3  C3  NGY C   1      19.499  36.466  21.1420  0.00  0.00     0.000 C
ATOM      4  C4  NGY C   1      20.221  37.799  21.0980  0.00  0.00     0.000 C
ATOM      5  C5  NGY C   1      19.379  38.836  21.8370  0.00  0.00     0.000 C
ATOM      6  O5  NGY C   1      18.115  38.977  21.1380  0.00  0.00     0.000 O
ATOM      7   O  NGY C   1      20.231  35.441  20.4860  0.00  0.00     0.000 O
ATOM      9  HD  NGY C   1      20.338  35.152  19.6770  0.00  0.00     0.000 HD
ATOM      9   O  NGY C   1      21.507  37.701  21.6930  0.00  0.00     0.000 O
ATOM     11  HD  NGY C   1      21.614  37.412  20.8840  0.00  0.00     0.000 HD
ENDROOT
BRANCH 2 13
ATOM     11   N  NGY C   1      17.025  35.812  20.0630  0.00  0.00     0.000 N
ATOM     13  HD  NGY C   1      17.459  35.135  19.7440  0.00  0.00     0.000 HD
ATOM     13   C  NGY C   1      17.197  34.620  19.4950  0.00  0.00     0.000 C
ATOM     14   O  NGY C   1      18.316  34.233  19.1520  0.00  0.00     0.000 OA
ATOM     15   C  NGY C   1      15.973  33.773  19.3220  0.00  0.00     0.000 C
ENDBRANCH 2 13
BRANCH 5 16
ATOM     16   C  NGY C   1      19.966  40.210  21.8890  0.00  0.00     0.000 C
ATOM     17   O  NGY C   1      21.868  41.519  24.7400  0.00  0.00     0.000 OA
ATOM     18   O  NGY C   1      20.444  40.456  23.2150  0.00  0.00     0.000 O
ATOM     19   S  NGY C   1      21.474  41.633  23.3590  0.00  0.00     0.000 S
ATOM     20   O  NGY C   1      20.762  42.856  23.0920  0.00  0.00     0.000 OA
ATOM     21   O  NGY C   1      22.508  41.337  22.3810  0.00  0.00     0.000 OA
ENDBRANCH 5 16
BRANCH 1 22
ATOM     22  O4  BDP C   2      16.938  37.388  22.3100  0.00  0.00     0.000 O
BRANCH 22 26
ATOM     23  C1  BDP C   2      13.220  37.478  24.0780  0.00  0.00     0.000 C
ATOM     24  C2  BDP C   2      13.419  38.444  22.9350  0.00  0.00     0.000 C
ATOM     25  C3  BDP C   2      14.652  38.062  22.1590  0.00  0.00     0.000 C
ATOM     26  C4  BDP C   2      15.849  37.939  23.0960  0.00  0.00     0.000 C
ATOM     27  C5  BDP C   2      15.477  37.085  24.3000  0.00  0.00     0.000 C
ATOM     28  O5  BDP C   2      14.325  37.598  25.0170  0.00  0.00     0.000 O
ATOM     29   O  BDP C   2      12.373  38.364  21.9660  0.00  0.00     0.000 O
ATOM     31  HD  BDP C   2      12.602  38.477  21.1380  0.00  0.00     0.000 HD
ATOM     31   O  BDP C   2      14.879  39.096  21.2090  0.00  0.00     0.000 O
ATOM     33  HD  BDP C   2      15.108  39.209  20.3810  0.00  0.00     0.000 HD
BRANCH 27 33
ATOM     33   C  BDP C   2      16.590  37.004  25.3170  0.00  0.00     0.000 C
ATOM     34   O  BDP C   2      16.719  36.022  26.0870  0.00  0.00     0.000 OA
ATOM     35   O  BDP C   2      17.362  37.944  25.4080  0.00  0.00     0.000 OA
ENDBRANCH 27 33
BRANCH 23 36
ATOM     36  O4  SGN C   3      12.071  37.634  24.7760  0.00  0.00     0.000 O
BRANCH 36 40
ATOM     37  C1  SGN C   3      10.499  33.775  25.0260  0.00  0.00     0.000 C
ATOM     38  C2  SGN C   3       9.740  34.801  24.1690  0.00  0.00     0.000 C
ATOM     39  C3  SGN C   3      10.640  35.980  23.8290  0.00  0.00     0.000 C
ATOM     40  C4  SGN C   3      11.167  36.579  25.1150  0.00  0.00     0.000 C
ATOM     41  C5  SGN C   3      11.876  35.498  25.9010  0.00  0.00     0.000 C
ATOM     42  O5  SGN C   3      10.960  34.432  26.1960  0.00  0.00     0.000 O
ATOM     43   O  SGN C   3       9.895  36.939  23.0880  0.00  0.00     0.000 O
ATOM     45  HD  SGN C   3      10.533  37.332  23.5220  0.00  0.00     0.000 HD
BRANCH 38 47
ATOM     45   N  SGN C   3       8.767  33.724  24.4240  0.00  0.00     0.000 N
ATOM     47  HD  SGN C   3       9.303  34.325  24.7420  0.00  0.00     0.000 HD
ATOM     47   S  SGN C   3       7.949  33.336  23.1160  0.00  0.00     0.000 S
ATOM     48   O  SGN C   3       7.111  34.402  22.6950  0.00  0.00     0.000 OA
ATOM     49   O  SGN C   3       8.900  32.855  22.1680  0.00  0.00     0.000 OA
ATOM     50   O  SGN C   3       7.090  32.262  23.6100  0.00  0.00     0.000 OA
ENDBRANCH 38 47
BRANCH 41 51
ATOM     51   C  SGN C   3      12.455  35.968  27.2080  0.00  0.00     0.000 C
ATOM     52   O  SGN C   3      11.517  39.024  29.1220  0.00  0.00     0.000 OA
ATOM     53   O  SGN C   3      12.224  36.881  29.9230  0.00  0.00     0.000 OA
ATOM     54   O  SGN C   3      13.721  38.256  28.6440  0.00  0.00     0.000 OA
ATOM     55   O  SGN C   3      11.783  37.141  27.6090  0.00  0.00     0.000 O
ATOM     56   S  SGN C   3      12.368  37.895  28.9500  0.00  0.00     0.000 S
ENDBRANCH 41 51
BRANCH 37 57
ATOM     57  O4  IDS C   4      11.565  33.204  24.4130  0.00  0.00     0.000 O
BRANCH 57 61
ATOM     58  C1  IDS C   4      13.543  30.253  23.0520  0.00  0.00     0.000 C
ATOM     59  C2  IDS C   4      12.102  30.387  22.6750  0.00  0.00     0.000 C
ATOM     60  C3  IDS C   4      11.226  30.852  23.8410  0.00  0.00     0.000 C
ATOM     61  C4  IDS C   4      11.851  31.848  24.8070  0.00  0.00     0.000 C
ATOM     62  C5  IDS C   4      13.362  31.618  24.9240  0.00  0.00     0.000 C
ATOM     63  O5  IDS C   4      13.971  31.465  23.6500  0.00  0.00     0.000 O
ATOM     64   O  IDS C   4      10.906  29.675  24.5590  0.00  0.00     0.000 O
ATOM     66  HD  IDS C   4      11.279  29.686  25.3410  0.00  0.00     0.000 HD
BRANCH 59 66
ATOM     66   O  IDS C   4      11.914  31.371  21.5920  0.00  0.00     0.000 O
ATOM     67   S  IDS C   4      11.438  30.798  20.1860  0.00  0.00     0.000 S
ATOM     68   O  IDS C   4      10.121  30.280  20.4710  0.00  0.00     0.000 OA
ATOM     69   O  IDS C   4      11.465  31.937  19.2900  0.00  0.00     0.000 OA
ATOM     70   O  IDS C   4      12.364  29.738  19.8180  0.00  0.00     0.000 OA
ENDBRANCH 59 66
BRANCH 62 71
ATOM     71   C  IDS C   4      14.090  32.771  25.5890  0.00  0.00     0.000 C
ATOM     72   O  IDS C   4      14.041  32.907  26.7960  0.00  0.00     0.000 OA
ATOM     73   O  IDS C   4      14.643  33.621  24.8640  0.00  0.00     0.000 OA
ENDBRANCH 62 71
BRANCH 58 74
ATOM     74  O4  SGN C   5      13.877  29.068  23.6380  0.00  0.00     0.000 O
BRANCH 74 78
ATOM     75  C1  SGN C   5      16.959  26.304  24.1950  0.00  0.00     0.000 C
ATOM     76  C2  SGN C   5      17.369  27.789  24.2240  0.00  0.00     0.000 C
ATOM     77  C3  SGN C   5      16.134  28.690  24.3540  0.00  0.00     0.000 C
ATOM     78  C4  SGN C   5      15.048  28.300  23.3610  0.00  0.00     0.000 C
ATOM     79  C5  SGN C   5      14.755  26.812  23.4880  0.00  0.00     0.000 C
ATOM     80  O5  SGN C   5      15.962  26.054  23.2120  0.00  0.00     0.000 O
ATOM     81   O  SGN C   5      16.528  30.045  24.1570  0.00  0.00     0.000 O
ATOM     83  HD  SGN C   5      17.287  30.344  24.4470  0.00  0.00     0.000 HD
BRANCH 76 85
ATOM     83   N  SGN C   5      18.765  27.371  24.4030  0.00  0.00     0.000 N
ATOM     85  HD  SGN C   5      19.450  27.176  24.8950  0.00  0.00     0.000 HD
ATOM     85   S  SGN C   5      19.870  27.913  25.4430  0.00  0.00     0.000 S
ATOM     86   O  SGN C   5      21.085  27.190  25.2970  0.00  0.00     0.000 OA
ATOM     87   O  SGN C   5      19.934  29.322  25.2890  0.00  0.00     0.000 OA
ATOM     88   O  SGN C   5      19.133  27.478  26.7070  0.00  0.00     0.000 OA
ENDBRANCH 76 85
BRANCH 79 89
ATOM     89   C  SGN C   5      13.665  26.329  22.5530  0.00  0.00     0.000 C
ATOM     90   O  SGN C   5      12.466  26.033  23.3100  0.00  0.00     0.000 O
ATOM     91   S  SGN C   5      11.065  26.262  22.5600  0.00  0.00     0.000 S
ATOM     92   O  SGN C   5      11.095  27.607  22.0460  0.00  0.00     0.000 OA
ATOM     93   O  SGN C   5      10.977  25.275  21.5150  0.00  0.00     0.000 OA
ATOM     94   O  SGN C   5      10.096  26.071  23.6050  0.00  0.00     0.000 OA
ENDBRANCH 79 89
BRANCH 75 95
ATOM     95  O4  BDP C   6      16.457  26.033  25.4360  0.00  0.00     0.000 O
BRANCH 95 99
ATOM     96  C1  BDP C   6      16.563  22.449  27.8020  0.00  0.00     0.000 C
ATOM     97  C2  BDP C   6      17.775  22.816  26.9930  0.00  0.00     0.000 C
ATOM     98  C3  BDP C   6      17.792  24.271  26.4990  0.00  0.00     0.000 C
ATOM     99  C4  BDP C   6      16.467  24.650  25.8550  0.00  0.00     0.000 C
ATOM    100  C5  BDP C   6      15.331  24.242  26.8220  0.00  0.00     0.000 C
ATOM    101  O5  BDP C   6      15.494  22.821  26.9520  0.00  0.00     0.000 O
BRANCH 100 102
ATOM    102   C  BDP C   6      13.960  24.502  26.2500  0.00  0.00     0.000 C
ATOM    103   O  BDP C   6      13.294  25.501  26.5550  0.00  0.00     0.000 OA
ATOM    104   O  BDP C   6      13.525  23.672  25.4430  0.00  0.00     0.000 OA
ENDBRANCH 100 102
ENDBRANCH 95 99
ENDBRANCH 75 95
ENDBRANCH 74 78
ENDBRANCH 58 74
ENDBRANCH 57 61
ENDBRANCH 37 57
ENDBRANCH 36 40
ENDBRANCH 23 36
ENDBRANCH 22 26
ENDBRANCH 1 22
TORSDOF 20
ENDMDL
