MODEL 1
REMARK VINA RESULT:      -5.3      0.000      0.000
ROOT
ATOM      1  C1  BGC C   1       5.328   3.015   3.7490  0.00  0.00     0.000 C
ATOM      2  C2  BGC C   1       4.086   2.907   4.6340  0.00  0.00     0.000 C
ATOM      3  C3  BGC C   1       2.887   2.475   3.7990  0.00  0.00     0.000 C
ATOM      4  C4  BGC C   1       2.717   3.327   2.5520  0.00  0.00     0.000 C
ATOM      5  C5  BGC C   1       4.056   3.491   1.8390  0.00  0.00     0.000 C
ATOM      6  O5  BGC C   1       5.102   3.855   2.6830  0.00  0.00     0.000 O
ATOM      7   O  BGC C   1       4.359   1.950   5.6300  0.00  0.00     0.000 O
ATOM      9  HD  BGC C   1       3.737   2.552   5.6520  0.00  0.00     0.000 HD
ATOM      9   O  BGC C   1       1.724   2.514   4.6370  0.00  0.00     0.000 O
ATOM     11  HD  BGC C   1       1.102   3.116   4.6600  0.00  0.00     0.000 HD
ATOM     11   O  BGC C   1       1.774   2.659   1.7220  0.00  0.00     0.000 O
ATOM     13  HD  BGC C   1       1.152   3.261   1.7440  0.00  0.00     0.000 HD
ATOM     13   O  BGC C   1       3.700   5.894   1.3500  0.00  0.00     0.000 O
ATOM     15  HD  BGC C   1       3.078   6.496   1.3730  0.00  0.00     0.000 HD
ATOM     15   C  BGC C   1       3.895   4.579   0.7610  0.00  0.00     0.000 C
ENDROOT
BRANCH 1 16
ATOM     16  O4  BGC C   2       6.371   3.582   4.5060  0.00  0.00     0.000 O
BRANCH 16 20
ATOM     17  C1  BGC C   2      10.452   3.715   4.4510  0.00  0.00     0.000 C
ATOM     18  C2  BGC C   2       9.745   4.607   3.4430  0.00  0.00     0.000 C
ATOM     19  C3  BGC C   2       8.271   4.753   3.7930  0.00  0.00     0.000 C
ATOM     20  C4  BGC C   2       7.666   3.402   3.9830  0.00  0.00     0.000 C
ATOM     21  C5  BGC C   2       8.493   2.562   4.9510  0.00  0.00     0.000 C
ATOM     22  O5  BGC C   2       9.819   2.470   4.5240  0.00  0.00     0.000 O
ATOM     23   O  BGC C   2      10.387   5.891   3.4290  0.00  0.00     0.000 O
ATOM     25  HD  BGC C   2       9.793   6.519   3.3720  0.00  0.00     0.000 HD
ATOM     25   O  BGC C   2       7.605   5.435   2.7370  0.00  0.00     0.000 O
ATOM     27  HD  BGC C   2       7.011   6.063   2.6800  0.00  0.00     0.000 HD
ATOM     27   C  BGC C   2       7.953   1.138   5.1950  0.00  0.00     0.000 C
ATOM     28   O  BGC C   2       7.776   0.430   3.9570  0.00  0.00     0.000 O
ATOM     30  HD  BGC C   2       7.183   1.058   3.9000  0.00  0.00     0.000 HD
BRANCH 17 30
ATOM     30  O4  BGC C   3      11.788   3.516   4.0390  0.00  0.00     0.000 O
BRANCH 30 34
ATOM     31  C1  BGC C   3      15.540   3.237   5.5170  0.00  0.00     0.000 C
ATOM     32  C2  BGC C   3      14.653   1.982   5.6980  0.00  0.00     0.000 C
ATOM     33  C3  BGC C   3      13.441   2.050   4.8340  0.00  0.00     0.000 C
ATOM     34  C4  BGC C   3      12.752   3.396   5.0740  0.00  0.00     0.000 C
ATOM     35  C5  BGC C   3      13.712   4.611   5.0050  0.00  0.00     0.000 C
ATOM     36  O5  BGC C   3      14.821   4.401   5.8430  0.00  0.00     0.000 O
ATOM     37   O  BGC C   3      15.233   0.711   5.4760  0.00  0.00     0.000 O
ATOM     39  HD  BGC C   3      14.528   1.206   5.3870  0.00  0.00     0.000 HD
ATOM     39   O  BGC C   3      12.545   0.940   5.1350  0.00  0.00     0.000 O
ATOM     41  HD  BGC C   3      11.840   1.435   5.0450  0.00  0.00     0.000 HD
ATOM     41   C  BGC C   3      13.089   5.964   5.4210  0.00  0.00     0.000 C
ATOM     42   O  BGC C   3      12.661   6.051   6.8270  0.00  0.00     0.000 O
ATOM     44  HD  BGC C   3      11.956   6.546   6.7380  0.00  0.00     0.000 HD
BRANCH 31 44
ATOM     44  O4  BGC C   4      16.669   3.169   6.3220  0.00  0.00     0.000 O
BRANCH 44 48
ATOM     45  C1  BGC C   4      20.675   4.000   6.4740  0.00  0.00     0.000 C
ATOM     46  C2  BGC C   4      19.858   5.229   5.9610  0.00  0.00     0.000 C
ATOM     47  C3  BGC C   4      18.417   4.808   6.2800  0.00  0.00     0.000 C
ATOM     48  C4  BGC C   4      17.938   3.449   5.8100  0.00  0.00     0.000 C
ATOM     49  C5  BGC C   4      18.897   2.419   6.4290  0.00  0.00     0.000 C
ATOM     50  O5  BGC C   4      20.211   2.696   6.0900  0.00  0.00     0.000 O
ATOM     51   O  BGC C   4      20.057   6.654   6.5070  0.00  0.00     0.000 O
ATOM     53  HD  BGC C   4      19.453   7.197   6.2070  0.00  0.00     0.000 HD
ATOM     53   O  BGC C   4      17.668   5.785   5.4150  0.00  0.00     0.000 O
ATOM     55  HD  BGC C   4      17.063   6.327   5.1150  0.00  0.00     0.000 HD
ATOM     55   C  BGC C   4      18.627   1.033   5.9040  0.00  0.00     0.000 C
ATOM     56   O  BGC C   4      18.678   0.889   4.4800  0.00  0.00     0.000 O
ATOM     58  HD  BGC C   4      18.073   1.432   4.1800  0.00  0.00     0.000 HD
BRANCH 45 58
ATOM     58  O4  BGC C   5      22.011   4.050   6.0690  0.00  0.00     0.000 O
BRANCH 58 62
ATOM     59  C1  BGC C   5      24.622   3.599   4.5420  0.00  0.00     0.000 C
ATOM     60  C2  BGC C   5      24.709   4.923   5.1180  0.00  0.00     0.000 C
ATOM     61  C3  BGC C   5      23.435   5.748   4.9540  0.00  0.00     0.000 C
ATOM     62  C4  BGC C   5      22.245   4.804   4.8540  0.00  0.00     0.000 C
ATOM     63  C5  BGC C   5      22.632   3.695   3.9030  0.00  0.00     0.000 C
ATOM     64  O5  BGC C   5      24.010   3.534   3.5760  0.00  0.00     0.000 O
ATOM     65   O  BGC C   5      22.138   4.936   1.8910  0.00  0.00     0.000 O
ATOM     67  HD  BGC C   5      21.852   4.377   2.4860  0.00  0.00     0.000 HD
ATOM     67   O  BGC C   5      22.138   4.936   1.8910  0.00  0.00     0.000 O
ATOM     69  HD  BGC C   5      21.852   4.377   2.4860  0.00  0.00     0.000 HD
ENDBRANCH 58 62
ENDBRANCH 45 58
ENDBRANCH 44 48
ENDBRANCH 31 44
ENDBRANCH 30 34
ENDBRANCH 17 30
ENDBRANCH 16 20
ENDBRANCH 1 16
TORSDOF 8
ENDMDL
MODEL 2
REMARK VINA RESULT:      -4.9      2.092      2.736
ROOT
ATOM      1  C1  BGC C   1       4.104   2.986   3.6580  0.00  0.00     0.000 C
ATOM      2  C2  BGC C   1       3.081   2.481   4.6750  0.00  0.00     0.000 C
ATOM      3  C3  BGC C   1       1.971   1.716   3.9630  0.00  0.00     0.000 C
ATOM      4  C4  BGC C   1       1.389   2.499   2.7980  0.00  0.00     0.000 C
ATOM      5  C5  BGC C   1       2.510   3.084   1.9420  0.00  0.00     0.000 C
ATOM      6  O5  BGC C   1       3.496   3.736   2.6780  0.00  0.00     0.000 O
ATOM      7   O  BGC C   1       3.759   1.635   5.5720  0.00  0.00     0.000 O
ATOM      9  HD  BGC C   1       2.993   2.015   5.7040  0.00  0.00     0.000 HD
ATOM      9   O  BGC C   1       0.972   1.376   4.9330  0.00  0.00     0.000 O
ATOM     11  HD  BGC C   1       0.205   1.757   5.0650  0.00  0.00     0.000 HD
ATOM     11   O  BGC C   1       0.594   1.589   2.0460  0.00  0.00     0.000 O
ATOM     13  HD  BGC C   1      -0.173   1.969   2.1780  0.00  0.00     0.000 HD
ATOM     13   O  BGC C   1       1.379   5.268   1.6430  0.00  0.00     0.000 O
ATOM     15  HD  BGC C   1       0.612   5.648   1.7750  0.00  0.00     0.000 HD
ATOM     15   C  BGC C   1       1.886   4.090   0.9580  0.00  0.00     0.000 C
ENDROOT
BRANCH 1 16
ATOM     16  O4  BGC C   2       5.015   3.832   4.3180  0.00  0.00     0.000 O
BRANCH 16 20
ATOM     17  C1  BGC C   2       8.925   4.958   3.9740  0.00  0.00     0.000 C
ATOM     18  C2  BGC C   2       7.957   5.611   3.0000  0.00  0.00     0.000 C
ATOM     19  C3  BGC C   2       6.518   5.405   3.4500  0.00  0.00     0.000 C
ATOM     20  C4  BGC C   2       6.279   3.956   3.7090  0.00  0.00     0.000 C
ATOM     21  C5  BGC C   2       7.347   3.381   4.6350  0.00  0.00     0.000 C
ATOM     22  O5  BGC C   2       8.625   3.600   4.1180  0.00  0.00     0.000 O
ATOM     23   O  BGC C   2       8.260   7.012   2.9140  0.00  0.00     0.000 O
ATOM     25  HD  BGC C   2       7.528   7.473   2.8860  0.00  0.00     0.000 HD
ATOM     25   O  BGC C   2       5.639   5.863   2.4290  0.00  0.00     0.000 O
ATOM     27  HD  BGC C   2       4.907   6.324   2.4010  0.00  0.00     0.000 HD
ATOM     27   C  BGC C   2       7.192   1.877   4.9450  0.00  0.00     0.000 C
ATOM     28   O  BGC C   2       7.117   1.102   3.7380  0.00  0.00     0.000 O
ATOM     30  HD  BGC C   2       6.385   1.563   3.7100  0.00  0.00     0.000 HD
BRANCH 17 30
ATOM     30  O4  BGC C   3      10.240   5.077   3.4740  0.00  0.00     0.000 O
BRANCH 30 34
ATOM     31  C1  BGC C   3      14.060   5.556   4.7050  0.00  0.00     0.000 C
ATOM     32  C2  BGC C   3      13.467   4.140   4.8930  0.00  0.00     0.000 C
ATOM     33  C3  BGC C   3      12.212   3.972   4.1090  0.00  0.00     0.000 C
ATOM     34  C4  BGC C   3      11.277   5.137   4.4420  0.00  0.00     0.000 C
ATOM     35  C5  BGC C   3      11.956   6.528   4.3590  0.00  0.00     0.000 C
ATOM     36  O5  BGC C   3      13.139   6.535   5.1190  0.00  0.00     0.000 O
ATOM     37   O  BGC C   3      14.283   3.024   4.5880  0.00  0.00     0.000 O
ATOM     39  HD  BGC C   3      13.486   3.362   4.5610  0.00  0.00     0.000 HD
ATOM     39   O  BGC C   3      11.590   2.691   4.4220  0.00  0.00     0.000 O
ATOM     41  HD  BGC C   3      10.793   3.029   4.3960  0.00  0.00     0.000 HD
ATOM     41   C  BGC C   3      11.096   7.709   4.8640  0.00  0.00     0.000 C
ATOM     42   O  BGC C   3      10.755   7.671   6.2960  0.00  0.00     0.000 O
ATOM     44  HD  BGC C   3       9.958   8.009   6.2690  0.00  0.00     0.000 HD
BRANCH 31 44
ATOM     44  O4  BGC C   4      15.231   5.708   5.4360  0.00  0.00     0.000 O
BRANCH 44 48
ATOM     45  C1  BGC C   4      19.083   7.089   5.3250  0.00  0.00     0.000 C
ATOM     46  C2  BGC C   4      18.056   8.253   5.1490  0.00  0.00     0.000 C
ATOM     47  C3  BGC C   4      16.735   7.572   5.5290  0.00  0.00     0.000 C
ATOM     48  C4  BGC C   4      16.376   6.261   4.8570  0.00  0.00     0.000 C
ATOM     49  C5  BGC C   4      17.531   5.293   5.1620  0.00  0.00     0.000 C
ATOM     50  O5  BGC C   4      18.743   5.820   4.7470  0.00  0.00     0.000 O
ATOM     51   O  BGC C   4      18.142   9.573   5.9370  0.00  0.00     0.000 O
ATOM     53  HD  BGC C   4      17.439  10.063   5.8130  0.00  0.00     0.000 HD
ATOM     53   O  BGC C   4      15.761   8.562   4.9530  0.00  0.00     0.000 O
ATOM     55  HD  BGC C   4      15.058   9.052   4.8290  0.00  0.00     0.000 HD
ATOM     55   C  BGC C   4      17.374   3.997   4.4090  0.00  0.00     0.000 C
ATOM     56   O  BGC C   4      17.255   4.117   2.9870  0.00  0.00     0.000 O
ATOM     58  HD  BGC C   4      16.552   4.607   2.8630  0.00  0.00     0.000 HD
BRANCH 45 58
ATOM     58  O4  BGC C   5      20.337   7.409   4.8000  0.00  0.00     0.000 O
BRANCH 58 62
ATOM     59  C1  BGC C   5      22.744   8.435   3.2160  0.00  0.00     0.000 C
ATOM     60  C2  BGC C   5      21.566   8.900   2.5170  0.00  0.00     0.000 C
ATOM     61  C3  BGC C   5      20.485   7.834   2.3600  0.00  0.00     0.000 C
ATOM     62  C4  BGC C   5      20.611   6.833   3.4990  0.00  0.00     0.000 C
ATOM     63  C5  BGC C   5      22.078   6.497   3.6420  0.00  0.00     0.000 C
ATOM     64  O5  BGC C   5      23.031   7.346   3.0050  0.00  0.00     0.000 O
ATOM     65   O  BGC C   5      22.113   4.863   1.8630  0.00  0.00     0.000 O
ATOM     67  HD  BGC C   5      22.026   5.009   2.7120  0.00  0.00     0.000 HD
ATOM     67   O  BGC C   5      22.113   4.863   1.8630  0.00  0.00     0.000 O
ATOM     69  HD  BGC C   5      22.026   5.009   2.7120  0.00  0.00     0.000 HD
ENDBRANCH 58 62
ENDBRANCH 45 58
ENDBRANCH 44 48
ENDBRANCH 31 44
ENDBRANCH 30 34
ENDBRANCH 17 30
ENDBRANCH 16 20
ENDBRANCH 1 16
TORSDOF 8
ENDMDL
MODEL 3
REMARK VINA RESULT:      -4.9      1.748      3.614
ROOT
ATOM      1  C1  BGC C   1       4.748   3.818   4.0820  0.00  0.00     0.000 C
ATOM      2  C2  BGC C   1       3.843   4.503   3.0590  0.00  0.00     0.000 C
ATOM      3  C3  BGC C   1       2.442   4.674   3.6340  0.00  0.00     0.000 C
ATOM      4  C4  BGC C   1       1.896   3.379   4.2120  0.00  0.00     0.000 C
ATOM      5  C5  BGC C   1       2.947   2.709   5.0930  0.00  0.00     0.000 C
ATOM      6  O5  BGC C   1       4.205   2.625   4.5010  0.00  0.00     0.000 O
ATOM      7   O  BGC C   1       4.409   5.759   2.7680  0.00  0.00     0.000 O
ATOM      9  HD  BGC C   1       3.827   5.333   2.2880  0.00  0.00     0.000 HD
ATOM      9   O  BGC C   1       1.598   5.197   2.5990  0.00  0.00     0.000 O
ATOM     11  HD  BGC C   1       1.016   4.772   2.1190  0.00  0.00     0.000 HD
ATOM     11   O  BGC C   1       0.739   3.722   4.9670  0.00  0.00     0.000 O
ATOM     13  HD  BGC C   1       0.157   3.296   4.4870  0.00  0.00     0.000 HD
ATOM     13   O  BGC C   1       2.464   0.434   4.2400  0.00  0.00     0.000 O
ATOM     15  HD  BGC C   1       1.882   0.009   3.7600  0.00  0.00     0.000 HD
ATOM     15   C  BGC C   1       2.462   1.285   5.4200  0.00  0.00     0.000 C
ENDROOT
BRANCH 1 16
ATOM     16  O4  BGC C   2       5.977   3.516   3.4650  0.00  0.00     0.000 O
BRANCH 16 20
ATOM     17  C1  BGC C   2       9.935   3.325   4.4520  0.00  0.00     0.000 C
ATOM     18  C2  BGC C   2       9.025   2.332   5.1580  0.00  0.00     0.000 C
ATOM     19  C3  BGC C   2       7.675   2.246   4.4600  0.00  0.00     0.000 C
ATOM     20  C4  BGC C   2       7.112   3.617   4.2920  0.00  0.00     0.000 C
ATOM     21  C5  BGC C   2       8.130   4.552   3.6450  0.00  0.00     0.000 C
ATOM     22  O5  BGC C   2       9.318   4.578   4.3760  0.00  0.00     0.000 O
ATOM     23   O  BGC C   2       9.665   1.047   5.1730  0.00  0.00     0.000 O
ATOM     25  HD  BGC C   2       9.084   0.424   5.0180  0.00  0.00     0.000 HD
ATOM     25   O  BGC C   2       6.792   1.456   5.2470  0.00  0.00     0.000 O
ATOM     27  HD  BGC C   2       6.211   0.833   5.0920  0.00  0.00     0.000 HD
ATOM     27   C  BGC C   2       7.641   6.002   3.4480  0.00  0.00     0.000 C
ATOM     28   O  BGC C   2       7.171   6.565   4.6830  0.00  0.00     0.000 O
ATOM     30  HD  BGC C   2       6.589   5.942   4.5280  0.00  0.00     0.000 HD
BRANCH 17 30
ATOM     30  O4  BGC C   3      11.136   3.458   5.1820  0.00  0.00     0.000 O
BRANCH 30 34
ATOM     31  C1  BGC C   3      15.139   3.694   4.6800  0.00  0.00     0.000 C
ATOM     32  C2  BGC C   3      14.308   4.789   3.9690  0.00  0.00     0.000 C
ATOM     33  C3  BGC C   3      12.912   4.826   4.4860  0.00  0.00     0.000 C
ATOM     34  C4  BGC C   3      12.338   3.409   4.4290  0.00  0.00     0.000 C
ATOM     35  C5  BGC C   3      13.268   2.332   5.0440  0.00  0.00     0.000 C
ATOM     36  O5  BGC C   3      14.555   2.429   4.4880  0.00  0.00     0.000 O
ATOM     37   O  BGC C   3      14.784   6.121   4.0010  0.00  0.00     0.000 O
ATOM     39  HD  BGC C   3      14.091   5.604   4.0310  0.00  0.00     0.000 HD
ATOM     39   O  BGC C   3      12.107   5.753   3.6990  0.00  0.00     0.000 O
ATOM     41  HD  BGC C   3      11.414   5.235   3.7290  0.00  0.00     0.000 HD
ATOM     41   C  BGC C   3      12.804   0.871   4.8400  0.00  0.00     0.000 C
ATOM     42   O  BGC C   3      12.766   0.414   3.4410  0.00  0.00     0.000 O
ATOM     44  HD  BGC C   3      12.073  -0.103   3.4710  0.00  0.00     0.000 HD
BRANCH 31 44
ATOM     44  O4  BGC C   4      16.440   3.663   4.1950  0.00  0.00     0.000 O
BRANCH 44 48
ATOM     45  C1  BGC C   4      20.349   2.994   5.2120  0.00  0.00     0.000 C
ATOM     46  C2  BGC C   4      19.445   1.781   5.5990  0.00  0.00     0.000 C
ATOM     47  C3  BGC C   4      18.139   2.110   4.8640  0.00  0.00     0.000 C
ATOM     48  C4  BGC C   4      17.526   3.483   5.0560  0.00  0.00     0.000 C
ATOM     49  C5  BGC C   4      18.599   4.496   4.6240  0.00  0.00     0.000 C
ATOM     50  O5  BGC C   4      19.775   4.305   5.3300  0.00  0.00     0.000 O
ATOM     51   O  BGC C   4      19.811   0.323   5.2640  0.00  0.00     0.000 O
ATOM     53  HD  BGC C   4      19.157  -0.216   5.4400  0.00  0.00     0.000 HD
ATOM     53   O  BGC C   4      17.200   1.181   5.5820  0.00  0.00     0.000 O
ATOM     55  HD  BGC C   4      16.545   0.641   5.7580  0.00  0.00     0.000 HD
ATOM     55   C  BGC C   4      18.172   5.909   4.9220  0.00  0.00     0.000 C
ATOM     56   O  BGC C   4      17.829   6.178   6.2870  0.00  0.00     0.000 O
ATOM     58  HD  BGC C   4      17.175   5.638   6.4620  0.00  0.00     0.000 HD
BRANCH 45 58
ATOM     58  O4  BGC C   5      21.525   3.037   5.9650  0.00  0.00     0.000 O
BRANCH 58 62
ATOM     59  C1  BGC C   5      24.009   1.489   6.8510  0.00  0.00     0.000 C
ATOM     60  C2  BGC C   5      24.288   2.887   7.0990  0.00  0.00     0.000 C
ATOM     61  C3  BGC C   5      23.884   3.806   5.9490  0.00  0.00     0.000 C
ATOM     62  C4  BGC C   5      22.738   3.162   5.1830  0.00  0.00     0.000 C
ATOM     63  C5  BGC C   5      23.095   1.707   4.9820  0.00  0.00     0.000 C
ATOM     64  O5  BGC C   5      24.151   1.155   5.7650  0.00  0.00     0.000 O
ATOM     65   O  BGC C   5      24.508   2.082   3.0580  0.00  0.00     0.000 O
ATOM     67  HD  BGC C   5      23.716   1.886   3.3490  0.00  0.00     0.000 HD
ATOM     67   O  BGC C   5      24.508   2.082   3.0580  0.00  0.00     0.000 O
ATOM     69  HD  BGC C   5      23.716   1.886   3.3490  0.00  0.00     0.000 HD
ENDBRANCH 58 62
ENDBRANCH 45 58
ENDBRANCH 44 48
ENDBRANCH 31 44
ENDBRANCH 30 34
ENDBRANCH 17 30
ENDBRANCH 16 20
ENDBRANCH 1 16
TORSDOF 8
ENDMDL
MODEL 4
REMARK VINA RESULT:      -4.7      2.349      4.265
ROOT
ATOM      1  C1  BGC C   1       4.031   5.159   2.3330  0.00  0.00     0.000 C
ATOM      2  C2  BGC C   1       3.156   4.718   1.1600  0.00  0.00     0.000 C
ATOM      3  C3  BGC C   1       1.732   5.226   1.3510  0.00  0.00     0.000 C
ATOM      4  C4  BGC C   1       1.182   4.891   2.7280  0.00  0.00     0.000 C
ATOM      5  C5  BGC C   1       2.208   5.233   3.8040  0.00  0.00     0.000 C
ATOM      6  O5  BGC C   1       3.488   4.758   3.5320  0.00  0.00     0.000 O
ATOM      7   O  BGC C   1       3.716   5.261  -0.0120  0.00  0.00     0.000 O
ATOM      9  HD  BGC C   1       3.159   4.599   0.0330  0.00  0.00     0.000 HD
ATOM      9   O  BGC C   1       0.921   4.681   0.3020  0.00  0.00     0.000 O
ATOM     11  HD  BGC C   1       0.364   4.020   0.3470  0.00  0.00     0.000 HD
ATOM     11   O  BGC C   1      -0.007   5.655   2.8930  0.00  0.00     0.000 O
ATOM     13  HD  BGC C   1      -0.565   4.994   2.9380  0.00  0.00     0.000 HD
ATOM     13   O  BGC C   1       1.788   3.168   5.1070  0.00  0.00     0.000 O
ATOM     15  HD  BGC C   1       1.231   2.507   5.1520  0.00  0.00     0.000 HD
ATOM     15   C  BGC C   1       1.730   4.621   5.1340  0.00  0.00     0.000 C
ENDROOT
BRANCH 1 16
ATOM     16  O4  BGC C   2       5.287   4.532   2.2190  0.00  0.00     0.000 O
BRANCH 16 20
ATOM     17  C1  BGC C   2       9.199   5.382   3.0250  0.00  0.00     0.000 C
ATOM     18  C2  BGC C   2       8.345   4.984   4.2190  0.00  0.00     0.000 C
ATOM     19  C3  BGC C   2       7.040   4.349   3.7610  0.00  0.00     0.000 C
ATOM     20  C4  BGC C   2       6.371   5.241   2.7700  0.00  0.00     0.000 C
ATOM     21  C5  BGC C   2       7.334   5.643   1.6570  0.00  0.00     0.000 C
ATOM     22  O5  BGC C   2       8.482   6.238   2.1810  0.00  0.00     0.000 O
ATOM     23   O  BGC C   2       9.090   4.068   5.0350  0.00  0.00     0.000 O
ATOM     25  HD  BGC C   2       8.571   3.437   5.3230  0.00  0.00     0.000 HD
ATOM     25   O  BGC C   2       6.193   4.159   4.8880  0.00  0.00     0.000 O
ATOM     27  HD  BGC C   2       5.674   3.529   5.1760  0.00  0.00     0.000 HD
ATOM     27   C  BGC C   2       6.733   6.584   0.5920  0.00  0.00     0.000 C
ATOM     28   O  BGC C   2       6.162   7.756   1.1960  0.00  0.00     0.000 O
ATOM     30  HD  BGC C   2       5.643   7.125   1.4840  0.00  0.00     0.000 HD
BRANCH 17 30
ATOM     30  O4  BGC C   3      10.350   6.061   3.4800  0.00  0.00     0.000 O
BRANCH 30 34
ATOM     31  C1  BGC C   3      14.368   6.075   3.0470  0.00  0.00     0.000 C
ATOM     32  C2  BGC C   3      13.573   6.823   1.9510  0.00  0.00     0.000 C
ATOM     33  C3  BGC C   3      12.164   7.059   2.3730  0.00  0.00     0.000 C
ATOM     34  C4  BGC C   3      11.571   5.726   2.8380  0.00  0.00     0.000 C
ATOM     35  C5  BGC C   3      12.468   4.958   3.8420  0.00  0.00     0.000 C
ATOM     36  O5  BGC C   3      13.771   4.834   3.3300  0.00  0.00     0.000 O
ATOM     37   O  BGC C   3      14.067   8.067   1.4920  0.00  0.00     0.000 O
ATOM     39  HD  BGC C   3      13.366   7.602   1.6950  0.00  0.00     0.000 HD
ATOM     39   O  BGC C   3      11.395   7.621   1.2700  0.00  0.00     0.000 O
ATOM     41  HD  BGC C   3      10.693   7.156   1.4730  0.00  0.00     0.000 HD
ATOM     41   C  BGC C   3      11.988   3.531   4.1910  0.00  0.00     0.000 C
ATOM     42   O  BGC C   3      11.981   2.579   3.0670  0.00  0.00     0.000 O
ATOM     44  HD  BGC C   3      11.280   2.114   3.2700  0.00  0.00     0.000 HD
BRANCH 31 44
ATOM     44  O4  BGC C   4      15.681   5.860   2.6500  0.00  0.00     0.000 O
BRANCH 44 48
ATOM     45  C1  BGC C   4      19.549   5.516   3.9470  0.00  0.00     0.000 C
ATOM     46  C2  BGC C   4      18.651   4.378   4.5290  0.00  0.00     0.000 C
ATOM     47  C3  BGC C   4      17.375   4.518   3.6880  0.00  0.00     0.000 C
ATOM     48  C4  BGC C   4      16.728   5.885   3.5750  0.00  0.00     0.000 C
ATOM     49  C5  BGC C   4      17.801   6.821   2.9960  0.00  0.00     0.000 C
ATOM     50  O5  BGC C   4      18.946   6.807   3.7760  0.00  0.00     0.000 O
ATOM     51   O  BGC C   4      19.060   2.894   4.5090  0.00  0.00     0.000 O
ATOM     53  HD  BGC C   4      18.409   2.382   4.7600  0.00  0.00     0.000 HD
ATOM     53   O  BGC C   4      16.420   3.725   4.5360  0.00  0.00     0.000 O
ATOM     55  HD  BGC C   4      15.769   3.212   4.7880  0.00  0.00     0.000 HD
ATOM     55   C  BGC C   4      17.333   8.253   2.9880  0.00  0.00     0.000 C
ATOM     56   O  BGC C   4      16.921   8.777   4.2550  0.00  0.00     0.000 O
ATOM     58  HD  BGC C   4      16.269   8.265   4.5070  0.00  0.00     0.000 HD
BRANCH 45 58
ATOM     58  O4  BGC C   5      20.686   5.741   4.7260  0.00  0.00     0.000 O
BRANCH 58 62
ATOM     59  C1  BGC C   5      22.775   3.536   4.3700  0.00  0.00     0.000 C
ATOM     60  C2  BGC C   5      23.361   4.514   5.2600  0.00  0.00     0.000 C
ATOM     61  C3  BGC C   5      23.157   5.957   4.8060  0.00  0.00     0.000 C
ATOM     62  C4  BGC C   5      21.887   6.035   3.9710  0.00  0.00     0.000 C
ATOM     63  C5  BGC C   5      21.909   4.869   3.0100  0.00  0.00     0.000 C
ATOM     64  O5  BGC C   5      22.826   3.805   3.2580  0.00  0.00     0.000 O
ATOM     65   O  BGC C   5      23.346   5.937   1.3870  0.00  0.00     0.000 O
ATOM     67  HD  BGC C   5      22.534   5.765   1.6350  0.00  0.00     0.000 HD
ATOM     67   O  BGC C   5      23.346   5.937   1.3870  0.00  0.00     0.000 O
ATOM     69  HD  BGC C   5      22.534   5.765   1.6350  0.00  0.00     0.000 HD
ENDBRANCH 58 62
ENDBRANCH 45 58
ENDBRANCH 44 48
ENDBRANCH 31 44
ENDBRANCH 30 34
ENDBRANCH 17 30
ENDBRANCH 16 20
ENDBRANCH 1 16
TORSDOF 8
ENDMDL
MODEL 5
REMARK VINA RESULT:      -4.6      2.619     14.022
ROOT
ATOM      1  C1  BGC C   1      21.795   7.468   3.7440  0.00  0.00     0.000 C
ATOM      2  C2  BGC C   1      23.071   6.731   3.3380  0.00  0.00     0.000 C
ATOM      3  C3  BGC C   1      24.295   7.536   3.7560  0.00  0.00     0.000 C
ATOM      4  C4  BGC C   1      24.215   8.983   3.2990  0.00  0.00     0.000 C
ATOM      5  C5  BGC C   1      22.840   9.563   3.6200  0.00  0.00     0.000 C
ATOM      6  O5  BGC C   1      21.781   8.746   3.2330  0.00  0.00     0.000 O
ATOM      7   O  BGC C   1      23.061   5.482   3.9880  0.00  0.00     0.000 O
ATOM      9  HD  BGC C   1      23.536   5.698   3.2970  0.00  0.00     0.000 HD
ATOM      9   O  BGC C   1      25.459   6.875   3.2420  0.00  0.00     0.000 O
ATOM     11  HD  BGC C   1      25.934   7.091   2.5510  0.00  0.00     0.000 HD
ATOM     11   O  BGC C   1      25.242   9.689   3.9860  0.00  0.00     0.000 O
ATOM     13  HD  BGC C   1      25.717   9.905   3.2950  0.00  0.00     0.000 HD
ATOM     13   O  BGC C   1      22.639  10.744   1.4520  0.00  0.00     0.000 O
ATOM     15  HD  BGC C   1      23.114  10.961   0.7610  0.00  0.00     0.000 HD
ATOM     15   C  BGC C   1      22.709  10.915   2.8950  0.00  0.00     0.000 C
ENDROOT
BRANCH 1 16
ATOM     16  O4  BGC C   2      20.690   6.793   3.1920  0.00  0.00     0.000 O
BRANCH 16 20
ATOM     17  C1  BGC C   2      16.791   6.038   4.1440  0.00  0.00     0.000 C
ATOM     18  C2  BGC C   2      17.095   7.445   3.6550  0.00  0.00     0.000 C
ATOM     19  C3  BGC C   2      18.466   7.503   2.9970  0.00  0.00     0.000 C
ATOM     20  C4  BGC C   2      19.486   6.913   3.9120  0.00  0.00     0.000 C
ATOM     21  C5  BGC C   2      19.049   5.536   4.4040  0.00  0.00     0.000 C
ATOM     22  O5  BGC C   2      17.795   5.600   5.0140  0.00  0.00     0.000 O
ATOM     23   O  BGC C   2      16.075   7.845   2.7270  0.00  0.00     0.000 O
ATOM     25  HD  BGC C   2      16.429   8.275   2.0640  0.00  0.00     0.000 HD
ATOM     25   O  BGC C   2      18.795   8.860   2.7200  0.00  0.00     0.000 O
ATOM     27  HD  BGC C   2      19.149   9.290   2.0570  0.00  0.00     0.000 HD
ATOM     27   C  BGC C   2      20.035   4.854   5.3750  0.00  0.00     0.000 C
ATOM     28   O  BGC C   2      20.336   5.704   6.4940  0.00  0.00     0.000 O
ATOM     30  HD  BGC C   2      20.689   6.135   5.8310  0.00  0.00     0.000 HD
BRANCH 17 30
ATOM     30  O4  BGC C   3      15.563   6.042   4.8400  0.00  0.00     0.000 O
BRANCH 30 34
ATOM     31  C1  BGC C   3      12.313   3.736   5.5190  0.00  0.00     0.000 C
ATOM     32  C2  BGC C   3      13.574   3.378   6.3410  0.00  0.00     0.000 C
ATOM     33  C3  BGC C   3      14.583   4.471   6.2850  0.00  0.00     0.000 C
ATOM     34  C4  BGC C   3      14.824   4.830   4.8160  0.00  0.00     0.000 C
ATOM     35  C5  BGC C   3      13.522   5.057   4.0060  0.00  0.00     0.000 C
ATOM     36  O5  BGC C   3      12.652   3.965   4.1730  0.00  0.00     0.000 O
ATOM     37   O  BGC C   3      13.413   3.050   7.7090  0.00  0.00     0.000 O
ATOM     39  HD  BGC C   3      13.904   3.449   7.1170  0.00  0.00     0.000 HD
ATOM     39   O  BGC C   3      15.819   4.051   6.9330  0.00  0.00     0.000 O
ATOM     41  HD  BGC C   3      16.310   4.449   6.3410  0.00  0.00     0.000 HD
ATOM     41   C  BGC C   3      13.719   5.241   2.4840  0.00  0.00     0.000 C
ATOM     42   O  BGC C   3      14.266   4.070   1.7770  0.00  0.00     0.000 O
ATOM     44  HD  BGC C   3      14.756   4.469   1.1850  0.00  0.00     0.000 HD
BRANCH 31 44
ATOM     44  O4  BGC C   4      11.375   2.714   5.5750  0.00  0.00     0.000 O
BRANCH 44 48
ATOM     45  C1  BGC C   4       7.320   2.213   5.3120  0.00  0.00     0.000 C
ATOM     46  C2  BGC C   4       8.060   1.487   4.1430  0.00  0.00     0.000 C
ATOM     47  C3  BGC C   4       9.521   1.541   4.6100  0.00  0.00     0.000 C
ATOM     48  C4  BGC C   4      10.098   2.878   5.0330  0.00  0.00     0.000 C
ATOM     49  C5  BGC C   4       9.201   3.389   6.1720  0.00  0.00     0.000 C
ATOM     50  O5  BGC C   4       7.877   3.454   5.7720  0.00  0.00     0.000 O
ATOM     51   O  BGC C   4       7.757   0.035   3.7330  0.00  0.00     0.000 O
ATOM     53  HD  BGC C   4       8.328  -0.257   3.1510  0.00  0.00     0.000 HD
ATOM     53   O  BGC C   4      10.216   1.232   3.3120  0.00  0.00     0.000 O
ATOM     55  HD  BGC C   4      10.787   0.941   2.7300  0.00  0.00     0.000 HD
ATOM     55   C  BGC C   4       9.571   4.794   6.5730  0.00  0.00     0.000 C
ATOM     56   O  BGC C   4       9.553   5.764   5.5210  0.00  0.00     0.000 O
ATOM     58  HD  BGC C   4      10.124   5.473   4.9390  0.00  0.00     0.000 HD
BRANCH 45 58
ATOM     58  O4  BGC C   5       5.990   2.500   4.9960  0.00  0.00     0.000 O
BRANCH 58 62
ATOM     59  C1  BGC C   5       3.466   4.083   4.3050  0.00  0.00     0.000 C
ATOM     60  C2  BGC C   5       3.294   2.767   3.7290  0.00  0.00     0.000 C
ATOM     61  C3  BGC C   5       4.533   2.250   3.0030  0.00  0.00     0.000 C
ATOM     62  C4  BGC C   5       5.769   2.891   3.6180  0.00  0.00     0.000 C
ATOM     63  C5  BGC C   5       5.474   4.363   3.7860  0.00  0.00     0.000 C
ATOM     64  O5  BGC C   5       4.118   4.796   3.6910  0.00  0.00     0.000 O
ATOM     65   O  BGC C   5       5.987   4.962   1.5020  0.00  0.00     0.000 O
ATOM     67  HD  BGC C   5       6.276   4.889   2.3160  0.00  0.00     0.000 HD
ATOM     67   O  BGC C   5       5.987   4.962   1.5020  0.00  0.00     0.000 O
ATOM     69  HD  BGC C   5       6.276   4.889   2.3160  0.00  0.00     0.000 HD
ENDBRANCH 58 62
ENDBRANCH 45 58
ENDBRANCH 44 48
ENDBRANCH 31 44
ENDBRANCH 30 34
ENDBRANCH 17 30
ENDBRANCH 16 20
ENDBRANCH 1 16
TORSDOF 8
ENDMDL
MODEL 6
REMARK VINA RESULT:      -4.5      2.350     14.404
ROOT
ATOM      1  C1  BGC C   1      22.124   4.597   4.3140  0.00  0.00     0.000 C
ATOM      2  C2  BGC C   1      23.344   3.720   4.5940  0.00  0.00     0.000 C
ATOM      3  C3  BGC C   1      24.597   4.582   4.6870  0.00  0.00     0.000 C
ATOM      4  C4  BGC C   1      24.737   5.522   3.5010  0.00  0.00     0.000 C
ATOM      5  C5  BGC C   1      23.411   6.225   3.2240  0.00  0.00     0.000 C
ATOM      6  O5  BGC C   1      22.317   5.365   3.1890  0.00  0.00     0.000 O
ATOM      7   O  BGC C   1      23.116   3.055   5.8140  0.00  0.00     0.000 O
ATOM      9  HD  BGC C   1      23.688   2.829   5.2050  0.00  0.00     0.000 HD
ATOM      9   O  BGC C   1      25.728   3.711   4.8180  0.00  0.00     0.000 O
ATOM     11  HD  BGC C   1      26.301   3.485   4.2090  0.00  0.00     0.000 HD
ATOM     11   O  BGC C   1      25.753   6.461   3.8380  0.00  0.00     0.000 O
ATOM     13  HD  BGC C   1      26.326   6.235   3.2290  0.00  0.00     0.000 HD
ATOM     13   O  BGC C   1      23.598   5.985   0.7650  0.00  0.00     0.000 O
ATOM     15  HD  BGC C   1      24.171   5.760   0.1560  0.00  0.00     0.000 HD
ATOM     15   C  BGC C   1      23.521   6.936   1.8630  0.00  0.00     0.000 C
ENDROOT
BRANCH 1 16
ATOM     16  O4  BGC C   2      21.018   3.763   4.0600  0.00  0.00     0.000 O
BRANCH 16 20
ATOM     17  C1  BGC C   2      17.015   3.723   4.8650  0.00  0.00     0.000 C
ATOM     18  C2  BGC C   2      17.574   5.035   4.3370  0.00  0.00     0.000 C
ATOM     19  C3  BGC C   2      18.958   4.830   3.7380  0.00  0.00     0.000 C
ATOM     20  C4  BGC C   2      19.827   4.118   4.7200  0.00  0.00     0.000 C
ATOM     21  C5  BGC C   2      19.143   2.859   5.2440  0.00  0.00     0.000 C
ATOM     22  O5  BGC C   2      17.896   3.161   5.7950  0.00  0.00     0.000 O
ATOM     23   O  BGC C   2      16.673   5.559   3.3500  0.00  0.00     0.000 O
ATOM     25  HD  BGC C   2      17.119   5.893   2.6870  0.00  0.00     0.000 HD
ATOM     25   O  BGC C   2      19.524   6.097   3.4250  0.00  0.00     0.000 O
ATOM     27  HD  BGC C   2      19.970   6.431   2.7620  0.00  0.00     0.000 HD
ATOM     27   C  BGC C   2      19.961   2.065   6.2840  0.00  0.00     0.000 C
ATOM     28   O  BGC C   2      20.361   2.901   7.3810  0.00  0.00     0.000 O
ATOM     30  HD  BGC C   2      20.807   3.235   6.7190  0.00  0.00     0.000 HD
BRANCH 17 30
ATOM     30  O4  BGC C   3      15.781   3.967   5.5050  0.00  0.00     0.000 O
BRANCH 30 34
ATOM     31  C1  BGC C   3      12.064   2.431   5.9110  0.00  0.00     0.000 C
ATOM     32  C2  BGC C   3      13.222   1.522   6.3900  0.00  0.00     0.000 C
ATOM     33  C3  BGC C   3      14.490   2.291   6.5250  0.00  0.00     0.000 C
ATOM     34  C4  BGC C   3      14.734   3.052   5.2190  0.00  0.00     0.000 C
ATOM     35  C5  BGC C   3      13.501   3.846   4.7180  0.00  0.00     0.000 C
ATOM     36  O5  BGC C   3      12.374   3.008   4.6670  0.00  0.00     0.000 O
ATOM     37   O  BGC C   3      13.057   0.805   7.5990  0.00  0.00     0.000 O
ATOM     39  HD  BGC C   3      13.603   1.247   7.0930  0.00  0.00     0.000 HD
ATOM     39   O  BGC C   3      15.596   1.390   6.8240  0.00  0.00     0.000 O
ATOM     41  HD  BGC C   3      16.143   1.832   6.3180  0.00  0.00     0.000 HD
ATOM     41   C  BGC C   3      13.653   4.475   3.3140  0.00  0.00     0.000 C
ATOM     42   O  BGC C   3      13.810   3.514   2.2090  0.00  0.00     0.000 O
ATOM     44  HD  BGC C   3      14.356   3.956   1.7030  0.00  0.00     0.000 HD
BRANCH 31 44
ATOM     44  O4  BGC C   4      10.884   1.710   5.7890  0.00  0.00     0.000 O
BRANCH 44 48
ATOM     45  C1  BGC C   4       6.854   1.861   6.4950  0.00  0.00     0.000 C
ATOM     46  C2  BGC C   4       7.198   2.357   5.0540  0.00  0.00     0.000 C
ATOM     47  C3  BGC C   4       8.664   1.927   4.9110  0.00  0.00     0.000 C
ATOM     48  C4  BGC C   4       9.643   2.318   6.0000  0.00  0.00     0.000 C
ATOM     49  C5  BGC C   4       9.087   1.732   7.3070  0.00  0.00     0.000 C
ATOM     50  O5  BGC C   4       7.793   2.169   7.5370  0.00  0.00     0.000 O
ATOM     51   O  BGC C   4       6.447   1.874   3.8000  0.00  0.00     0.000 O
ATOM     53  HD  BGC C   4       6.831   2.149   3.0740  0.00  0.00     0.000 HD
ATOM     53   O  BGC C   4       9.064   2.770   3.7320  0.00  0.00     0.000 O
ATOM     55  HD  BGC C   4       9.448   3.046   3.0060  0.00  0.00     0.000 HD
ATOM     55   C  BGC C   4       9.886   2.191   8.4990  0.00  0.00     0.000 C
ATOM     56   O  BGC C   4      10.000   3.609   8.6590  0.00  0.00     0.000 O
ATOM     58  HD  BGC C   4      10.384   3.885   7.9330  0.00  0.00     0.000 HD
BRANCH 45 58
ATOM     58  O4  BGC C   5       5.628   2.358   6.9440  0.00  0.00     0.000 O
BRANCH 58 62
ATOM     59  C1  BGC C   5       2.807   3.349   7.5850  0.00  0.00     0.000 C
ATOM     60  C2  BGC C   5       3.167   2.429   8.6420  0.00  0.00     0.000 C
ATOM     61  C3  BGC C   5       3.824   1.146   8.1400  0.00  0.00     0.000 C
ATOM     62  C4  BGC C   5       4.520   1.433   6.8180  0.00  0.00     0.000 C
ATOM     63  C5  BGC C   5       3.566   2.248   5.9760  0.00  0.00     0.000 C
ATOM     64  O5  BGC C   5       2.446   2.853   6.6180  0.00  0.00     0.000 O
ATOM     65   O  BGC C   5       2.287   0.357   5.1840  0.00  0.00     0.000 O
ATOM     67  HD  BGC C   5       2.943   0.903   5.0350  0.00  0.00     0.000 HD
ATOM     67   O  BGC C   5       2.287   0.357   5.1840  0.00  0.00     0.000 O
ATOM     69  HD  BGC C   5       2.943   0.903   5.0350  0.00  0.00     0.000 HD
ENDBRANCH 58 62
ENDBRANCH 45 58
ENDBRANCH 44 48
ENDBRANCH 31 44
ENDBRANCH 30 34
ENDBRANCH 17 30
ENDBRANCH 16 20
ENDBRANCH 1 16
TORSDOF 8
ENDMDL
MODEL 7
REMARK VINA RESULT:      -4.5      2.489      3.663
ROOT
ATOM      1  C1  BGC C   1       6.276   1.797   6.6600  0.00  0.00     0.000 C
ATOM      2  C2  BGC C   1       5.786   1.241   7.9970  0.00  0.00     0.000 C
ATOM      3  C3  BGC C   1       4.366   0.707   7.8520  0.00  0.00     0.000 C
ATOM      4  C4  BGC C   1       3.438   1.714   7.1940  0.00  0.00     0.000 C
ATOM      5  C5  BGC C   1       4.100   2.313   5.9570  0.00  0.00     0.000 C
ATOM      6  O5  BGC C   1       5.406   2.745   6.1730  0.00  0.00     0.000 O
ATOM      7   O  BGC C   1       6.663   0.205   8.3710  0.00  0.00     0.000 O
ATOM      9  HD  BGC C   1       6.120   0.632   8.8930  0.00  0.00     0.000 HD
ATOM      9   O  BGC C   1       3.902   0.318   9.1520  0.00  0.00     0.000 O
ATOM     11  HD  BGC C   1       3.359   0.746   9.6740  0.00  0.00     0.000 HD
ATOM     11   O  BGC C   1       2.248   1.012   6.8480  0.00  0.00     0.000 O
ATOM     13  HD  BGC C   1       1.706   1.439   7.3700  0.00  0.00     0.000 HD
ATOM     13   O  BGC C   1       3.326   4.616   6.4440  0.00  0.00     0.000 O
ATOM     15  HD  BGC C   1       2.784   5.043   6.9660  0.00  0.00     0.000 HD
ATOM     15   C  BGC C   1       3.256   3.515   5.4960  0.00  0.00     0.000 C
ENDROOT
BRANCH 1 16
ATOM     16  O4  BGC C   2       7.513   2.438   6.8650  0.00  0.00     0.000 O
BRANCH 16 20
ATOM     17  C1  BGC C   2      10.509   3.799   4.4470  0.00  0.00     0.000 C
ATOM     18  C2  BGC C   2       9.559   4.856   4.9890  0.00  0.00     0.000 C
ATOM     19  C3  BGC C   2       8.733   4.301   6.1400  0.00  0.00     0.000 C
ATOM     20  C4  BGC C   2       8.089   3.022   5.7220  0.00  0.00     0.000 C
ATOM     21  C5  BGC C   2       9.114   2.063   5.1230  0.00  0.00     0.000 C
ATOM     22  O5  BGC C   2       9.795   2.659   4.0610  0.00  0.00     0.000 O
ATOM     23   O  BGC C   2      10.326   5.990   5.4220  0.00  0.00     0.000 O
ATOM     25  HD  BGC C   2      10.003   6.302   6.1620  0.00  0.00     0.000 HD
ATOM     25   O  BGC C   2       7.734   5.249   6.4980  0.00  0.00     0.000 O
ATOM     27  HD  BGC C   2       7.411   5.561   7.2380  0.00  0.00     0.000 HD
ATOM     27   C  BGC C   2       8.534   0.716   4.6430  0.00  0.00     0.000 C
ATOM     28   O  BGC C   2       7.450   0.915   3.7210  0.00  0.00     0.000 O
ATOM     30  HD  BGC C   2       7.126   1.227   4.4620  0.00  0.00     0.000 HD
BRANCH 17 30
ATOM     30  O4  BGC C   3      11.182   4.312   3.3180  0.00  0.00     0.000 O
BRANCH 30 34
ATOM     31  C1  BGC C   3      15.177   4.797   2.9400  0.00  0.00     0.000 C
ATOM     32  C2  BGC C   3      14.438   4.303   1.6740  0.00  0.00     0.000 C
ATOM     33  C3  BGC C   3      12.966   4.488   1.8010  0.00  0.00     0.000 C
ATOM     34  C4  BGC C   3      12.515   3.863   3.1240  0.00  0.00     0.000 C
ATOM     35  C5  BGC C   3      13.368   4.296   4.3440  0.00  0.00     0.000 C
ATOM     36  O5  BGC C   3      14.733   4.095   4.0750  0.00  0.00     0.000 O
ATOM     37   O  BGC C   3      14.805   4.855   0.4230  0.00  0.00     0.000 O
ATOM     39  HD  BGC C   3      14.157   4.569   0.9220  0.00  0.00     0.000 HD
ATOM     39   O  BGC C   3      12.281   3.875   0.6700  0.00  0.00     0.000 O
ATOM     41  HD  BGC C   3      11.633   3.589   1.1680  0.00  0.00     0.000 HD
ATOM     41   C  BGC C   3      13.058   3.548   5.6600  0.00  0.00     0.000 C
ATOM     42   O  BGC C   3      13.343   2.103   5.6430  0.00  0.00     0.000 O
ATOM     44  HD  BGC C   3      12.695   1.817   6.1410  0.00  0.00     0.000 HD
BRANCH 31 44
ATOM     44  O4  BGC C   4      16.549   4.625   2.8160  0.00  0.00     0.000 O
BRANCH 44 48
ATOM     45  C1  BGC C   4      20.084   5.965   4.3880  0.00  0.00     0.000 C
ATOM     46  C2  BGC C   4      19.768   4.508   4.8570  0.00  0.00     0.000 C
ATOM     47  C3  BGC C   4      18.612   4.118   3.9280  0.00  0.00     0.000 C
ATOM     48  C4  BGC C   4      17.423   5.053   3.8180  0.00  0.00     0.000 C
ATOM     49  C5  BGC C   4      17.985   6.408   3.3580  0.00  0.00     0.000 C
ATOM     50  O5  BGC C   4      18.971   6.857   4.2210  0.00  0.00     0.000 O
ATOM     51   O  BGC C   4      20.804   3.371   4.8120  0.00  0.00     0.000 O
ATOM     53  HD  BGC C   4      20.443   2.605   4.9930  0.00  0.00     0.000 HD
ATOM     53   O  BGC C   4      18.077   2.925   4.6710  0.00  0.00     0.000 O
ATOM     55  HD  BGC C   4      17.716   2.159   4.8530  0.00  0.00     0.000 HD
ATOM     55   C  BGC C   4      16.922   7.476   3.3690  0.00  0.00     0.000 C
ATOM     56   O  BGC C   4      16.253   7.672   4.6200  0.00  0.00     0.000 O
ATOM     58  HD  BGC C   4      15.892   6.906   4.8020  0.00  0.00     0.000 HD
BRANCH 45 58
ATOM     58  O4  BGC C   5      20.956   6.622   5.2600  0.00  0.00     0.000 O
BRANCH 58 62
ATOM     59  C1  BGC C   5      23.686   5.611   4.3220  0.00  0.00     0.000 C
ATOM     60  C2  BGC C   5      23.937   6.484   5.4480  0.00  0.00     0.000 C
ATOM     61  C3  BGC C   5      23.142   7.786   5.4050  0.00  0.00     0.000 C
ATOM     62  C4  BGC C   5      21.860   7.554   4.6180  0.00  0.00     0.000 C
ATOM     63  C5  BGC C   5      22.230   6.779   3.3750  0.00  0.00     0.000 C
ATOM     64  O5  BGC C   5      23.509   6.149   3.3270  0.00  0.00     0.000 O
ATOM     65   O  BGC C   5      22.959   8.705   2.1110  0.00  0.00     0.000 O
ATOM     67  HD  BGC C   5      22.309   8.164   2.3000  0.00  0.00     0.000 HD
ATOM     67   O  BGC C   5      22.959   8.705   2.1110  0.00  0.00     0.000 O
ATOM     69  HD  BGC C   5      22.309   8.164   2.3000  0.00  0.00     0.000 HD
ENDBRANCH 58 62
ENDBRANCH 45 58
ENDBRANCH 44 48
ENDBRANCH 31 44
ENDBRANCH 30 34
ENDBRANCH 17 30
ENDBRANCH 16 20
ENDBRANCH 1 16
TORSDOF 8
ENDMDL
MODEL 8
REMARK VINA RESULT:      -4.3      2.220      3.004
ROOT
ATOM      1  C1  BGC C   1       4.609   2.583   6.1420  0.00  0.00     0.000 C
ATOM      2  C2  BGC C   1       3.757   1.684   7.0370  0.00  0.00     0.000 C
ATOM      3  C3  BGC C   1       2.480   1.282   6.3090  0.00  0.00     0.000 C
ATOM      4  C4  BGC C   1       1.753   2.480   5.7200  0.00  0.00     0.000 C
ATOM      5  C5  BGC C   1       2.736   3.385   4.9830  0.00  0.00     0.000 C
ATOM      6  O5  BGC C   1       3.888   3.673   5.7090  0.00  0.00     0.000 O
ATOM      7   O  BGC C   1       4.524   0.544   7.3430  0.00  0.00     0.000 O
ATOM      9  HD  BGC C   1       3.826   0.824   7.7720  0.00  0.00     0.000 HD
ATOM      9   O  BGC C   1       1.655   0.552   7.2260  0.00  0.00     0.000 O
ATOM     11  HD  BGC C   1       0.957   0.832   7.6560  0.00  0.00     0.000 HD
ATOM     11   O  BGC C   1       0.765   1.967   4.8330  0.00  0.00     0.000 O
ATOM     13  HD  BGC C   1       0.067   2.247   5.2620  0.00  0.00     0.000 HD
ATOM     13   O  BGC C   1       1.738   5.477   5.8570  0.00  0.00     0.000 O
ATOM     15  HD  BGC C   1       1.040   5.757   6.2870  0.00  0.00     0.000 HD
ATOM     15   C  BGC C   1       2.018   4.707   4.6560  0.00  0.00     0.000 C
ENDROOT
BRANCH 1 16
ATOM     16  O4  BGC C   2       5.688   3.078   6.8990  0.00  0.00     0.000 O
BRANCH 16 20
ATOM     17  C1  BGC C   2       9.455   4.484   6.1850  0.00  0.00     0.000 C
ATOM     18  C2  BGC C   2       8.342   5.519   6.1500  0.00  0.00     0.000 C
ATOM     19  C3  BGC C   2       7.070   4.965   6.7780  0.00  0.00     0.000 C
ATOM     20  C4  BGC C   2       6.737   3.651   6.1550  0.00  0.00     0.000 C
ATOM     21  C5  BGC C   2       7.942   2.715   6.1730  0.00  0.00     0.000 C
ATOM     22  O5  BGC C   2       9.043   3.307   5.5510  0.00  0.00     0.000 O
ATOM     23   O  BGC C   2       8.778   6.693   6.8520  0.00  0.00     0.000 O
ATOM     25  HD  BGC C   2       8.129   7.013   7.3280  0.00  0.00     0.000 HD
ATOM     25   O  BGC C   2       6.005   5.884   6.5630  0.00  0.00     0.000 O
ATOM     27  HD  BGC C   2       5.356   6.204   7.0390  0.00  0.00     0.000 HD
ATOM     27   C  BGC C   2       7.697   1.334   5.5300  0.00  0.00     0.000 C
ATOM     28   O  BGC C   2       7.195   1.465   4.1900  0.00  0.00     0.000 O
ATOM     30  HD  BGC C   2       6.546   1.786   4.6660  0.00  0.00     0.000 HD
BRANCH 17 30
ATOM     30  O4  BGC C   3      10.583   4.990   5.5040  0.00  0.00     0.000 O
BRANCH 30 34
ATOM     31  C1  BGC C   3      14.431   4.040   4.7080  0.00  0.00     0.000 C
ATOM     32  C2  BGC C   3      13.384   3.495   3.7070  0.00  0.00     0.000 C
ATOM     33  C3  BGC C   3      12.069   4.173   3.8800  0.00  0.00     0.000 C
ATOM     34  C4  BGC C   3      11.680   4.101   5.3590  0.00  0.00     0.000 C
ATOM     35  C5  BGC C   3      12.809   4.540   6.3250  0.00  0.00     0.000 C
ATOM     36  O5  BGC C   3      13.995   3.845   6.0310  0.00  0.00     0.000 O
ATOM     37   O  BGC C   3      13.685   3.549   2.3250  0.00  0.00     0.000 O
ATOM     39  HD  BGC C   3      13.073   3.630   2.9320  0.00  0.00     0.000 HD
ATOM     39   O  BGC C   3      11.061   3.539   3.0390  0.00  0.00     0.000 O
ATOM     41  HD  BGC C   3      10.449   3.620   3.6460  0.00  0.00     0.000 HD
ATOM     41   C  BGC C   3      12.517   4.308   7.8250  0.00  0.00     0.000 C
ATOM     42   O  BGC C   3      12.367   2.898   8.2240  0.00  0.00     0.000 O
ATOM     44  HD  BGC C   3      11.755   2.979   8.8310  0.00  0.00     0.000 HD
BRANCH 31 44
ATOM     44  O4  BGC C   4      15.655   3.407   4.5430  0.00  0.00     0.000 O
BRANCH 44 48
ATOM     45  C1  BGC C   4      19.679   4.125   4.3130  0.00  0.00     0.000 C
ATOM     46  C2  BGC C   4      19.267   3.649   5.7420  0.00  0.00     0.000 C
ATOM     47  C3  BGC C   4      17.833   3.154   5.5120  0.00  0.00     0.000 C
ATOM     48  C4  BGC C   4      16.854   4.074   4.8090  0.00  0.00     0.000 C
ATOM     49  C5  BGC C   4      17.481   4.407   3.4460  0.00  0.00     0.000 C
ATOM     50  O5  BGC C   4      18.746   4.951   3.6000  0.00  0.00     0.000 O
ATOM     51   O  BGC C   4      20.021   2.547   6.5080  0.00  0.00     0.000 O
ATOM     53  HD  BGC C   4      19.602   2.319   7.2310  0.00  0.00     0.000 HD
ATOM     53   O  BGC C   4      17.345   3.111   6.9340  0.00  0.00     0.000 O
ATOM     55  HD  BGC C   4      16.926   2.883   7.6560  0.00  0.00     0.000 HD
ATOM     55   C  BGC C   4      16.679   5.451   2.7130  0.00  0.00     0.000 C
ATOM     56   O  BGC C   4      16.467   6.679   3.4180  0.00  0.00     0.000 O
ATOM     58  HD  BGC C   4      16.048   6.451   4.1410  0.00  0.00     0.000 HD
BRANCH 45 58
ATOM     58  O4  BGC C   5      20.877   4.844   4.3210  0.00  0.00     0.000 O
BRANCH 58 62
ATOM     59  C1  BGC C   5      23.659   6.107   4.1970  0.00  0.00     0.000 C
ATOM     60  C2  BGC C   5      22.772   7.000   3.4830  0.00  0.00     0.000 C
ATOM     61  C3  BGC C   5      21.816   6.284   2.5330  0.00  0.00     0.000 C
ATOM     62  C4  BGC C   5      21.571   4.874   3.0500  0.00  0.00     0.000 C
ATOM     63  C5  BGC C   5      22.912   4.302   3.4470  0.00  0.00     0.000 C
ATOM     64  O5  BGC C   5      24.012   5.198   3.5970  0.00  0.00     0.000 O
ATOM     65   O  BGC C   5      23.552   3.645   1.2120  0.00  0.00     0.000 O
ATOM     67  HD  BGC C   5      23.187   3.409   1.9610  0.00  0.00     0.000 HD
ATOM     67   O  BGC C   5      23.552   3.645   1.2120  0.00  0.00     0.000 O
ATOM     69  HD  BGC C   5      23.187   3.409   1.9610  0.00  0.00     0.000 HD
ENDBRANCH 58 62
ENDBRANCH 45 58
ENDBRANCH 44 48
ENDBRANCH 31 44
ENDBRANCH 30 34
ENDBRANCH 17 30
ENDBRANCH 16 20
ENDBRANCH 1 16
TORSDOF 8
ENDMDL
MODEL 9
REMARK VINA RESULT:      -4.2      2.724      6.161
ROOT
ATOM      1  C1  BGC C   1      10.365   2.358   5.1780  0.00  0.00     0.000 C
ATOM      2  C2  BGC C   1       9.450   1.398   4.4180  0.00  0.00     0.000 C
ATOM      3  C3  BGC C   1       8.039   1.970   4.3440  0.00  0.00     0.000 C
ATOM      4  C4  BGC C   1       7.525   2.410   5.7040  0.00  0.00     0.000 C
ATOM      5  C5  BGC C   1       8.586   3.231   6.4300  0.00  0.00     0.000 C
ATOM      6  O5  BGC C   1       9.851   2.649   6.4210  0.00  0.00     0.000 O
ATOM      7   O  BGC C   1       9.983   1.241   3.1250  0.00  0.00     0.000 O
ATOM      9  HD  BGC C   1       9.418   0.714   3.5150  0.00  0.00     0.000 HD
ATOM      9   O  BGC C   1       7.191   0.984   3.7420  0.00  0.00     0.000 O
ATOM     11  HD  BGC C   1       6.625   0.456   4.1320  0.00  0.00     0.000 HD
ATOM     11   O  BGC C   1       6.352   3.181   5.4710  0.00  0.00     0.000 O
ATOM     13  HD  BGC C   1       5.786   2.654   5.8610  0.00  0.00     0.000 HD
ATOM     13   O  BGC C   1       8.175   2.150   8.6210  0.00  0.00     0.000 O
ATOM     15  HD  BGC C   1       7.610   1.622   9.0110  0.00  0.00     0.000 HD
ATOM     15   C  BGC C   1       8.138   3.408   7.8930  0.00  0.00     0.000 C
ENDROOT
BRANCH 1 16
ATOM     16  O4  BGC C   2      11.607   1.728   5.3830  0.00  0.00     0.000 O
BRANCH 16 20
ATOM     17  C1  BGC C   2      15.508   2.797   5.9500  0.00  0.00     0.000 C
ATOM     18  C2  BGC C   2      14.595   2.946   7.1570  0.00  0.00     0.000 C
ATOM     19  C3  BGC C   2      13.291   2.192   6.9450  0.00  0.00     0.000 C
ATOM     20  C4  BGC C   2      12.689   2.592   5.6390  0.00  0.00     0.000 C
ATOM     21  C5  BGC C   2      13.708   2.478   4.5090  0.00  0.00     0.000 C
ATOM     22  O5  BGC C   2      14.852   3.226   4.7910  0.00  0.00     0.000 O
ATOM     23   O  BGC C   2      15.278   2.451   8.3190  0.00  0.00     0.000 O
ATOM     25  HD  BGC C   2      14.729   2.005   8.8180  0.00  0.00     0.000 HD
ATOM     25   O  BGC C   2      12.393   2.503   8.0030  0.00  0.00     0.000 O
ATOM     27  HD  BGC C   2      11.844   2.057   8.5030  0.00  0.00     0.000 HD
ATOM     27   C  BGC C   2      13.180   2.891   3.1190  0.00  0.00     0.000 C
ATOM     28   O  BGC C   2      12.622   4.214   3.1470  0.00  0.00     0.000 O
ATOM     30  HD  BGC C   2      12.072   3.768   3.6460  0.00  0.00     0.000 HD
BRANCH 17 30
ATOM     30  O4  BGC C   3      16.660   3.591   6.1360  0.00  0.00     0.000 O
BRANCH 30 34
ATOM     31  C1  BGC C   3      20.327   4.215   4.5560  0.00  0.00     0.000 C
ATOM     32  C2  BGC C   3      19.164   4.973   3.8720  0.00  0.00     0.000 C
ATOM     33  C3  BGC C   3      17.940   4.958   4.7190  0.00  0.00     0.000 C
ATOM     34  C4  BGC C   3      17.648   3.510   5.1200  0.00  0.00     0.000 C
ATOM     35  C5  BGC C   3      18.880   2.757   5.6840  0.00  0.00     0.000 C
ATOM     36  O5  BGC C   3      19.967   2.878   4.8000  0.00  0.00     0.000 O
ATOM     37   O  BGC C   3      19.373   6.321   3.4920  0.00  0.00     0.000 O
ATOM     39  HD  BGC C   3      18.815   5.742   3.8140  0.00  0.00     0.000 HD
ATOM     39   O  BGC C   3      16.817   5.539   3.9930  0.00  0.00     0.000 O
ATOM     41  HD  BGC C   3      16.260   4.960   4.3150  0.00  0.00     0.000 HD
ATOM     41   C  BGC C   3      18.670   1.245   5.9270  0.00  0.00     0.000 C
ATOM     42   O  BGC C   3      18.406   0.446   4.7190  0.00  0.00     0.000 O
ATOM     44  HD  BGC C   3      17.849  -0.133   5.0410  0.00  0.00     0.000 HD
BRANCH 31 44
ATOM     44  O4  BGC C   4      21.468   4.233   3.7630  0.00  0.00     0.000 O
BRANCH 44 48
ATOM     45  C1  BGC C   4      25.554   4.477   3.7950  0.00  0.00     0.000 C
ATOM     46  C2  BGC C   4      25.063   3.089   4.3180  0.00  0.00     0.000 C
ATOM     47  C3  BGC C   4      23.579   3.110   3.9290  0.00  0.00     0.000 C
ATOM     48  C4  BGC C   4      22.741   4.307   4.3330  0.00  0.00     0.000 C
ATOM     49  C5  BGC C   4      23.425   5.537   3.7160  0.00  0.00     0.000 C
ATOM     50  O5  BGC C   4      24.749   5.622   4.1140  0.00  0.00     0.000 O
ATOM     51   O  BGC C   4      25.652   1.753   3.8300  0.00  0.00     0.000 O
ATOM     53  HD  BGC C   4      25.196   1.079   4.1250  0.00  0.00     0.000 HD
ATOM     53   O  BGC C   4      23.071   1.992   4.7980  0.00  0.00     0.000 O
ATOM     55  HD  BGC C   4      22.615   1.318   5.0940  0.00  0.00     0.000 HD
ATOM     55   C  BGC C   4      22.780   6.816   4.1810  0.00  0.00     0.000 C
ATOM     56   O  BGC C   4      22.725   7.002   5.6010  0.00  0.00     0.000 O
ATOM     58  HD  BGC C   4      22.269   6.327   5.8960  0.00  0.00     0.000 HD
BRANCH 45 58
ATOM     58  O4  BGC C   5      26.837   4.788   4.2520  0.00  0.00     0.000 O
BRANCH 58 62
ATOM     59  C1  BGC C   5      28.880   3.173   2.6490  0.00  0.00     0.000 C
ATOM     60  C2  BGC C   5      29.638   3.997   3.5640  0.00  0.00     0.000 C
ATOM     61  C3  BGC C   5      29.149   5.442   3.6360  0.00  0.00     0.000 C
ATOM     62  C4  BGC C   5      27.668   5.479   3.2870  0.00  0.00     0.000 C
ATOM     63  C5  BGC C   5      27.472   4.608   2.0690  0.00  0.00     0.000 C
ATOM     64  O5  BGC C   5      28.518   3.709   1.7040  0.00  0.00     0.000 O
ATOM     65   O  BGC C   5      28.151   6.290   0.4730  0.00  0.00     0.000 O
ATOM     67  HD  BGC C   5      27.495   5.913   0.8940  0.00  0.00     0.000 HD
ATOM     67   O  BGC C   5      28.151   6.290   0.4730  0.00  0.00     0.000 O
ATOM     69  HD  BGC C   5      27.495   5.913   0.8940  0.00  0.00     0.000 HD
ENDBRANCH 58 62
ENDBRANCH 45 58
ENDBRANCH 44 48
ENDBRANCH 31 44
ENDBRANCH 30 34
ENDBRANCH 17 30
ENDBRANCH 16 20
ENDBRANCH 1 16
TORSDOF 8
ENDMDL
MODEL 10
REMARK VINA RESULT:      -4.2      3.003      6.643
ROOT
ATOM      1  C1  BGC C   1      10.627   1.816   5.3140  0.00  0.00     0.000 C
ATOM      2  C2  BGC C   1       9.688   1.083   4.3570  0.00  0.00     0.000 C
ATOM      3  C3  BGC C   1       8.249   1.525   4.5960  0.00  0.00     0.000 C
ATOM      4  C4  BGC C   1       7.861   1.449   6.0630  0.00  0.00     0.000 C
ATOM      5  C5  BGC C   1       8.949   2.074   6.9310  0.00  0.00     0.000 C
ATOM      6  O5  BGC C   1      10.235   1.638   6.6210  0.00  0.00     0.000 O
ATOM      7   O  BGC C   1      10.087   1.405   3.0450  0.00  0.00     0.000 O
ATOM      9  HD  BGC C   1       9.596   0.732   3.2830  0.00  0.00     0.000 HD
ATOM      9   O  BGC C   1       7.394   0.721   3.7720  0.00  0.00     0.000 O
ATOM     11  HD  BGC C   1       6.903   0.049   4.0090  0.00  0.00     0.000 HD
ATOM     11   O  BGC C   1       6.630   2.151   6.2010  0.00  0.00     0.000 O
ATOM     13  HD  BGC C   1       6.139   1.478   6.4380  0.00  0.00     0.000 HD
ATOM     13   O  BGC C   1       8.833   0.303   8.6600  0.00  0.00     0.000 O
ATOM     15  HD  BGC C   1       8.342  -0.369   8.8970  0.00  0.00     0.000 HD
ATOM     15   C  BGC C   1       8.652   1.723   8.4000  0.00  0.00     0.000 C
ENDROOT
BRANCH 1 16
ATOM     16  O4  BGC C   2      11.916   1.262   5.1920  0.00  0.00     0.000 O
BRANCH 16 20
ATOM     17  C1  BGC C   2      15.798   2.451   5.6350  0.00  0.00     0.000 C
ATOM     18  C2  BGC C   2      15.034   2.180   6.9220  0.00  0.00     0.000 C
ATOM     19  C3  BGC C   2      13.753   1.409   6.6380  0.00  0.00     0.000 C
ATOM     20  C4  BGC C   2      12.976   2.107   5.5720  0.00  0.00     0.000 C
ATOM     21  C5  BGC C   2      13.853   2.399   4.3580  0.00  0.00     0.000 C
ATOM     22  O5  BGC C   2      14.984   3.131   4.7230  0.00  0.00     0.000 O
ATOM     23   O  BGC C   2      15.879   1.438   7.8150  0.00  0.00     0.000 O
ATOM     25  HD  BGC C   2      15.419   0.826   8.2200  0.00  0.00     0.000 HD
ATOM     25   O  BGC C   2      12.978   1.336   7.8290  0.00  0.00     0.000 O
ATOM     27  HD  BGC C   2      12.518   0.724   8.2330  0.00  0.00     0.000 HD
ATOM     27   C  BGC C   2      13.138   3.138   3.2080  0.00  0.00     0.000 C
ATOM     28   O  BGC C   2      12.521   4.350   3.6730  0.00  0.00     0.000 O
ATOM     30  HD  BGC C   2      12.060   3.738   4.0770  0.00  0.00     0.000 HD
BRANCH 17 30
ATOM     30  O4  BGC C   3      16.922   3.255   5.9210  0.00  0.00     0.000 O
BRANCH 30 34
ATOM     31  C1  BGC C   3      20.802   3.683   4.8700  0.00  0.00     0.000 C
ATOM     32  C2  BGC C   3      19.780   4.441   3.9890  0.00  0.00     0.000 C
ATOM     33  C3  BGC C   3      18.446   4.507   4.6470  0.00  0.00     0.000 C
ATOM     34  C4  BGC C   3      18.044   3.091   5.0670  0.00  0.00     0.000 C
ATOM     35  C5  BGC C   3      19.152   2.330   5.8400  0.00  0.00     0.000 C
ATOM     36  O5  BGC C   3      20.359   2.372   5.1210  0.00  0.00     0.000 O
ATOM     37   O  BGC C   3      20.093   5.760   3.5810  0.00  0.00     0.000 O
ATOM     39  HD  BGC C   3      19.473   5.215   3.8440  0.00  0.00     0.000 HD
ATOM     39   O  BGC C   3      17.464   5.084   3.7360  0.00  0.00     0.000 O
ATOM     41  HD  BGC C   3      16.844   4.540   4.0000  0.00  0.00     0.000 HD
ATOM     41   C  BGC C   3      18.851   0.840   6.1200  0.00  0.00     0.000 C
ATOM     42   O  BGC C   3      18.735  -0.012   4.9240  0.00  0.00     0.000 O
ATOM     44  HD  BGC C   3      18.116  -0.556   5.1870  0.00  0.00     0.000 HD
BRANCH 31 44
ATOM     44  O4  BGC C   4      22.045   3.625   4.2540  0.00  0.00     0.000 O
BRANCH 44 48
ATOM     45  C1  BGC C   4      26.089   3.775   4.8730  0.00  0.00     0.000 C
ATOM     46  C2  BGC C   4      25.485   2.427   5.3820  0.00  0.00     0.000 C
ATOM     47  C3  BGC C   4      24.075   2.463   4.7800  0.00  0.00     0.000 C
ATOM     48  C4  BGC C   4      23.223   3.698   5.0010  0.00  0.00     0.000 C
ATOM     49  C5  BGC C   4      24.027   4.879   4.4340  0.00  0.00     0.000 C
ATOM     50  O5  BGC C   4      25.281   4.953   5.0170  0.00  0.00     0.000 O
ATOM     51   O  BGC C   4      26.098   1.056   5.0480  0.00  0.00     0.000 O
ATOM     53  HD  BGC C   4      25.584   0.407   5.3040  0.00  0.00     0.000 HD
ATOM     53   O  BGC C   4      23.412   1.403   5.6160  0.00  0.00     0.000 O
ATOM     55  HD  BGC C   4      22.898   0.755   5.8730  0.00  0.00     0.000 HD
ATOM     55   C  BGC C   4      23.360   6.195   4.7400  0.00  0.00     0.000 C
ATOM     56   O  BGC C   4      23.106   6.453   6.1260  0.00  0.00     0.000 O
ATOM     58  HD  BGC C   4      22.592   5.805   6.3820  0.00  0.00     0.000 HD
BRANCH 45 58
ATOM     58  O4  BGC C   5      27.301   4.080   5.4970  0.00  0.00     0.000 O
BRANCH 58 62
ATOM     59  C1  BGC C   5      29.839   4.775   7.0540  0.00  0.00     0.000 C
ATOM     60  C2  BGC C   5      29.284   3.596   7.6830  0.00  0.00     0.000 C
ATOM     61  C3  BGC C   5      27.775   3.669   7.8980  0.00  0.00     0.000 C
ATOM     62  C4  BGC C   5      27.171   4.590   6.8470  0.00  0.00     0.000 C
ATOM     63  C5  BGC C   5      28.048   5.819   6.7700  0.00  0.00     0.000 C
ATOM     64  O5  BGC C   5      29.345   5.762   7.3600  0.00  0.00     0.000 O
ATOM     65   O  BGC C   5      27.058   6.926   8.6760  0.00  0.00     0.000 O
ATOM     67  HD  BGC C   5      27.060   6.825   7.8160  0.00  0.00     0.000 HD
ATOM     67   O  BGC C   5      27.058   6.926   8.6760  0.00  0.00     0.000 O
ATOM     69  HD  BGC C   5      27.060   6.825   7.8160  0.00  0.00     0.000 HD
ENDBRANCH 58 62
ENDBRANCH 45 58
ENDBRANCH 44 48
ENDBRANCH 31 44
ENDBRANCH 30 34
ENDBRANCH 17 30
ENDBRANCH 16 20
ENDBRANCH 1 16
TORSDOF 8
ENDMDL
MODEL 11
REMARK VINA RESULT:      -4.2      2.396     14.385
ROOT
ATOM      1  C1  BGC C   1      21.311   7.216   3.9960  0.00  0.00     0.000 C
ATOM      2  C2  BGC C   1      22.528   6.427   4.4770  0.00  0.00     0.000 C
ATOM      3  C3  BGC C   1      23.769   7.311   4.4470  0.00  0.00     0.000 C
ATOM      4  C4  BGC C   1      23.943   8.013   3.1100  0.00  0.00     0.000 C
ATOM      5  C5  BGC C   1      22.621   8.630   2.6620  0.00  0.00     0.000 C
ATOM      6  O5  BGC C   1      21.537   7.761   2.7520  0.00  0.00     0.000 O
ATOM      7   O  BGC C   1      22.262   6.000   5.7920  0.00  0.00     0.000 O
ATOM      9  HD  BGC C   1      22.859   5.673   5.2560  0.00  0.00     0.000 HD
ATOM      9   O  BGC C   1      24.902   6.498   4.7780  0.00  0.00     0.000 O
ATOM     11  HD  BGC C   1      25.499   6.171   4.2420  0.00  0.00     0.000 HD
ATOM     11   O  BGC C   1      24.937   9.014   3.2980  0.00  0.00     0.000 O
ATOM     13  HD  BGC C   1      25.534   8.687   2.7620  0.00  0.00     0.000 HD
ATOM     13   O  BGC C   1      22.898   7.934   0.3000  0.00  0.00     0.000 O
ATOM     15  HD  BGC C   1      23.495   7.607  -0.2360  0.00  0.00     0.000 HD
ATOM     15   C  BGC C   1      22.773   9.074   1.1950  0.00  0.00     0.000 C
ENDROOT
BRANCH 1 16
ATOM     16  O4  BGC C   2      20.223   6.332   3.8660  0.00  0.00     0.000 O
BRANCH 16 20
ATOM     17  C1  BGC C   2      16.199   6.342   4.5580  0.00  0.00     0.000 C
ATOM     18  C2  BGC C   2      16.733   7.499   3.7290  0.00  0.00     0.000 C
ATOM     19  C3  BGC C   2      18.142   7.203   3.2350  0.00  0.00     0.000 C
ATOM     20  C4  BGC C   2      19.000   6.795   4.3860  0.00  0.00     0.000 C
ATOM     21  C5  BGC C   2      18.338   5.684   5.1960  0.00  0.00     0.000 C
ATOM     22  O5  BGC C   2      17.065   6.067   5.6210  0.00  0.00     0.000 O
ATOM     23   O  BGC C   2      15.849   7.721   2.6190  0.00  0.00     0.000 O
ATOM     25  HD  BGC C   2      16.307   7.894   1.9050  0.00  0.00     0.000 HD
ATOM     25   O  BGC C   2      18.678   8.370   2.6240  0.00  0.00     0.000 O
ATOM     27  HD  BGC C   2      19.136   8.543   1.9100  0.00  0.00     0.000 HD
ATOM     27   C  BGC C   2      19.146   5.210   6.4220  0.00  0.00     0.000 C
ATOM     28   O  BGC C   2      19.483   6.311   7.2810  0.00  0.00     0.000 O
ATOM     30  HD  BGC C   2      19.940   6.484   6.5660  0.00  0.00     0.000 HD
BRANCH 17 30
ATOM     30  O4  BGC C   3      14.937   6.691   5.0860  0.00  0.00     0.000 O
BRANCH 30 34
ATOM     31  C1  BGC C   3      11.325   5.050   5.8570  0.00  0.00     0.000 C
ATOM     32  C2  BGC C   3      12.364   4.952   6.9990  0.00  0.00     0.000 C
ATOM     33  C3  BGC C   3      13.513   5.869   6.7620  0.00  0.00     0.000 C
ATOM     34  C4  BGC C   3      14.048   5.617   5.3500  0.00  0.00     0.000 C
ATOM     35  C5  BGC C   3      12.947   5.601   4.2580  0.00  0.00     0.000 C
ATOM     36  O5  BGC C   3      11.915   4.719   4.6240  0.00  0.00     0.000 O
ATOM     37   O  BGC C   3      11.928   5.189   8.3250  0.00  0.00     0.000 O
ATOM     39  HD  BGC C   3      12.564   5.294   7.7460  0.00  0.00     0.000 HD
ATOM     39   O  BGC C   3      14.549   5.648   7.7640  0.00  0.00     0.000 O
ATOM     41  HD  BGC C   3      15.184   5.754   7.1850  0.00  0.00     0.000 HD
ATOM     41   C  BGC C   3      13.424   5.170   2.8520  0.00  0.00     0.000 C
ATOM     42   O  BGC C   3      13.910   3.783   2.7530  0.00  0.00     0.000 O
ATOM     44  HD  BGC C   3      14.546   3.889   2.1740  0.00  0.00     0.000 HD
BRANCH 31 44
ATOM     44  O4  BGC C   4      10.254   4.194   6.0830  0.00  0.00     0.000 O
BRANCH 44 48
ATOM     45  C1  BGC C   4       6.518   3.203   4.7350  0.00  0.00     0.000 C
ATOM     46  C2  BGC C   4       7.613   2.282   4.1070  0.00  0.00     0.000 C
ATOM     47  C3  BGC C   4       8.839   2.615   4.9660  0.00  0.00     0.000 C
ATOM     48  C4  BGC C   4       9.221   4.070   5.1500  0.00  0.00     0.000 C
ATOM     49  C5  BGC C   4       7.993   4.761   5.7630  0.00  0.00     0.000 C
ATOM     50  O5  BGC C   4       6.871   4.574   4.9730  0.00  0.00     0.000 O
ATOM     51   O  BGC C   4       7.486   0.748   4.0520  0.00  0.00     0.000 O
ATOM     53  HD  BGC C   4       8.222   0.379   3.7820  0.00  0.00     0.000 HD
ATOM     53   O  BGC C   4       9.925   2.055   4.0890  0.00  0.00     0.000 O
ATOM     55  HD  BGC C   4      10.661   1.685   3.8190  0.00  0.00     0.000 HD
ATOM     55   C  BGC C   4       8.186   6.253   5.8450  0.00  0.00     0.000 C
ATOM     56   O  BGC C   4       8.494   6.907   4.6090  0.00  0.00     0.000 O
ATOM     58  HD  BGC C   4       9.229   6.537   4.3390  0.00  0.00     0.000 HD
BRANCH 45 58
ATOM     58  O4  BGC C   5       5.359   3.250   3.9560  0.00  0.00     0.000 O
BRANCH 58 62
ATOM     59  C1  BGC C   5       2.577   3.874   2.8500  0.00  0.00     0.000 C
ATOM     60  C2  BGC C   5       2.633   4.461   4.1710  0.00  0.00     0.000 C
ATOM     61  C3  BGC C   5       3.247   3.543   5.2250  0.00  0.00     0.000 C
ATOM     62  C4  BGC C   5       4.212   2.585   4.5410  0.00  0.00     0.000 C
ATOM     63  C5  BGC C   5       3.525   2.064   3.3010  0.00  0.00     0.000 C
ATOM     64  O5  BGC C   5       2.365   2.749   2.8320  0.00  0.00     0.000 O
ATOM     65   O  BGC C   5       2.247   0.362   4.4450  0.00  0.00     0.000 O
ATOM     67  HD  BGC C   5       2.969   0.556   4.0080  0.00  0.00     0.000 HD
ATOM     67   O  BGC C   5       2.247   0.362   4.4450  0.00  0.00     0.000 O
ATOM     69  HD  BGC C   5       2.969   0.556   4.0080  0.00  0.00     0.000 HD
ENDBRANCH 58 62
ENDBRANCH 45 58
ENDBRANCH 44 48
ENDBRANCH 31 44
ENDBRANCH 30 34
ENDBRANCH 17 30
ENDBRANCH 16 20
ENDBRANCH 1 16
TORSDOF 8
ENDMDL
MODEL 12
REMARK VINA RESULT:      -4.2      3.623     15.329
ROOT
ATOM      1  C1  BGC C   1      25.840   8.688   4.7360  0.00  0.00     0.000 C
ATOM      2  C2  BGC C   1      26.531   9.267   5.9700  0.00  0.00     0.000 C
ATOM      3  C3  BGC C   1      27.740  10.096   5.5510  0.00  0.00     0.000 C
ATOM      4  C4  BGC C   1      28.650   9.342   4.5950  0.00  0.00     0.000 C
ATOM      5  C5  BGC C   1      27.828   8.679   3.4940  0.00  0.00     0.000 C
ATOM      6  O5  BGC C   1      26.726   7.971   3.9660  0.00  0.00     0.000 O
ATOM      7   O  BGC C   1      25.593  10.075   6.6410  0.00  0.00     0.000 O
ATOM      9  HD  BGC C   1      26.321   9.746   6.9760  0.00  0.00     0.000 HD
ATOM      9   O  BGC C   1      28.430  10.508   6.7380  0.00  0.00     0.000 O
ATOM     11  HD  BGC C   1      29.158  10.179   7.0730  0.00  0.00     0.000 HD
ATOM     11   O  BGC C   1      29.557  10.296   4.0530  0.00  0.00     0.000 O
ATOM     13  HD  BGC C   1      30.285   9.967   4.3880  0.00  0.00     0.000 HD
ATOM     13   O  BGC C   1      29.127   6.571   3.5520  0.00  0.00     0.000 O
ATOM     15  HD  BGC C   1      29.855   6.242   3.8870  0.00  0.00     0.000 HD
ATOM     15   C  BGC C   1      28.745   7.708   2.7300  0.00  0.00     0.000 C
ENDROOT
BRANCH 1 16
ATOM     16  O4  BGC C   2      24.841   7.790   5.1600  0.00  0.00     0.000 O
BRANCH 16 20
ATOM     17  C1  BGC C   2      21.188   6.482   3.8870  0.00  0.00     0.000 C
ATOM     18  C2  BGC C   2      22.393   5.869   3.1910  0.00  0.00     0.000 C
ATOM     19  C3  BGC C   2      23.668   6.145   3.9760  0.00  0.00     0.000 C
ATOM     20  C4  BGC C   2      23.773   7.605   4.2620  0.00  0.00     0.000 C
ATOM     21  C5  BGC C   2      22.486   8.135   4.8880  0.00  0.00     0.000 C
ATOM     22  O5  BGC C   2      21.385   7.854   4.0770  0.00  0.00     0.000 O
ATOM     23   O  BGC C   2      22.182   4.456   3.0570  0.00  0.00     0.000 O
ATOM     25  HD  BGC C   2      22.918   4.029   3.2170  0.00  0.00     0.000 HD
ATOM     25   O  BGC C   2      24.789   5.722   3.2090  0.00  0.00     0.000 O
ATOM     27  HD  BGC C   2      25.526   5.295   3.3690  0.00  0.00     0.000 HD
ATOM     27   C  BGC C   2      22.494   9.645   5.2010  0.00  0.00     0.000 C
ATOM     28   O  BGC C   2      22.829  10.417   4.0360  0.00  0.00     0.000 O
ATOM     30  HD  BGC C   2      23.565   9.990   4.1960  0.00  0.00     0.000 HD
BRANCH 17 30
ATOM     30  O4  BGC C   3      20.043   6.299   3.0820  0.00  0.00     0.000 O
BRANCH 30 34
ATOM     31  C1  BGC C   3      16.092   5.517   3.4260  0.00  0.00     0.000 C
ATOM     32  C2  BGC C   3      16.484   7.013   3.4500  0.00  0.00     0.000 C
ATOM     33  C3  BGC C   3      17.882   7.212   2.9760  0.00  0.00     0.000 C
ATOM     34  C4  BGC C   3      18.797   6.269   3.7610  0.00  0.00     0.000 C
ATOM     35  C5  BGC C   3      18.292   4.805   3.8100  0.00  0.00     0.000 C
ATOM     36  O5  BGC C   3      16.956   4.768   4.2450  0.00  0.00     0.000 O
ATOM     37   O  BGC C   3      15.682   7.930   2.7300  0.00  0.00     0.000 O
ATOM     39  HD  BGC C   3      16.484   7.708   2.9680  0.00  0.00     0.000 HD
ATOM     39   O  BGC C   3      18.282   8.603   3.1540  0.00  0.00     0.000 O
ATOM     41  HD  BGC C   3      19.084   8.381   3.3920  0.00  0.00     0.000 HD
ATOM     41   C  BGC C   3      19.090   3.866   4.7440  0.00  0.00     0.000 C
ATOM     42   O  BGC C   3      19.035   4.209   6.1750  0.00  0.00     0.000 O
ATOM     44  HD  BGC C   3      19.837   3.987   6.4130  0.00  0.00     0.000 HD
BRANCH 31 44
ATOM     44  O4  BGC C   4      14.788   5.336   3.8670  0.00  0.00     0.000 O
BRANCH 44 48
ATOM     45  C1  BGC C   4      11.717   2.650   4.2080  0.00  0.00     0.000 C
ATOM     46  C2  BGC C   4      12.923   2.255   5.1190  0.00  0.00     0.000 C
ATOM     47  C3  BGC C   4      13.786   3.522   5.0720  0.00  0.00     0.000 C
ATOM     48  C4  BGC C   4      14.141   4.107   3.7190  0.00  0.00     0.000 C
ATOM     49  C5  BGC C   4      12.805   4.399   3.0160  0.00  0.00     0.000 C
ATOM     50  O5  BGC C   4      12.022   3.259   2.9430  0.00  0.00     0.000 O
ATOM     51   O  BGC C   4      12.760   1.859   6.5980  0.00  0.00     0.000 O
ATOM     53  HD  BGC C   4      13.527   1.783   6.9920  0.00  0.00     0.000 HD
ATOM     53   O  BGC C   4      15.086   2.965   5.5860  0.00  0.00     0.000 O
ATOM     55  HD  BGC C   4      15.853   2.889   5.9800  0.00  0.00     0.000 HD
ATOM     55   C  BGC C   4      13.019   4.834   1.5890  0.00  0.00     0.000 C
ATOM     56   O  BGC C   4      13.766   3.926   0.7700  0.00  0.00     0.000 O
ATOM     58  HD  BGC C   4      14.533   3.850   1.1640  0.00  0.00     0.000 HD
BRANCH 45 58
ATOM     58  O4  BGC C   5      10.905   1.556   3.9040  0.00  0.00     0.000 O
BRANCH 58 62
ATOM     59  C1  BGC C   5       9.102   1.676   6.3710  0.00  0.00     0.000 C
ATOM     60  C2  BGC C   5       8.700   0.501   5.6280  0.00  0.00     0.000 C
ATOM     61  C3  BGC C   5       8.572   0.741   4.1260  0.00  0.00     0.000 C
ATOM     62  C4  BGC C   5       9.503   1.876   3.7260  0.00  0.00     0.000 C
ATOM     63  C5  BGC C   5       9.333   2.976   4.7480  0.00  0.00     0.000 C
ATOM     64  O5  BGC C   5       8.678   2.663   5.9760  0.00  0.00     0.000 O
ATOM     65   O  BGC C   5       7.344   3.914   3.7470  0.00  0.00     0.000 O
ATOM     67  HD  BGC C   5       8.208   3.941   3.8070  0.00  0.00     0.000 HD
ATOM     67   O  BGC C   5       7.344   3.914   3.7470  0.00  0.00     0.000 O
ATOM     69  HD  BGC C   5       8.208   3.941   3.8070  0.00  0.00     0.000 HD
ENDBRANCH 58 62
ENDBRANCH 45 58
ENDBRANCH 44 48
ENDBRANCH 31 44
ENDBRANCH 30 34
ENDBRANCH 17 30
ENDBRANCH 16 20
ENDBRANCH 1 16
TORSDOF 8
ENDMDL
MODEL 13
REMARK VINA RESULT:      -4.1      5.675     10.023
ROOT
ATOM      1  C1  BGC C   1      14.049   4.025   2.9520  0.00  0.00     0.000 C
ATOM      2  C2  BGC C   1      13.229   3.959   1.6640  0.00  0.00     0.000 C
ATOM      3  C3  BGC C   1      11.778   3.623   1.9850  0.00  0.00     0.000 C
ATOM      4  C4  BGC C   1      11.656   2.408   2.8890  0.00  0.00     0.000 C
ATOM      5  C5  BGC C   1      12.634   2.517   4.0560  0.00  0.00     0.000 C
ATOM      6  O5  BGC C   1      13.928   2.859   3.6730  0.00  0.00     0.000 O
ATOM      7   O  BGC C   1      13.314   5.220   1.0440  0.00  0.00     0.000 O
ATOM      9  HD  BGC C   1      13.081   4.476   0.6660  0.00  0.00     0.000 HD
ATOM      9   O  BGC C   1      11.078   3.442   0.7460  0.00  0.00     0.000 O
ATOM     11  HD  BGC C   1      10.846   2.699   0.3690  0.00  0.00     0.000 HD
ATOM     11   O  BGC C   1      10.310   2.372   3.3520  0.00  0.00     0.000 O
ATOM     13  HD  BGC C   1      10.077   1.629   2.9740  0.00  0.00     0.000 HD
ATOM     13   O  BGC C   1      13.301   0.133   3.9470  0.00  0.00     0.000 O
ATOM     15  HD  BGC C   1      13.068  -0.611   3.5690  0.00  0.00     0.000 HD
ATOM     15   C  BGC C   1      12.678   1.155   4.7730  0.00  0.00     0.000 C
ENDROOT
BRANCH 1 16
ATOM     16  O4  BGC C   2      15.409   4.161   2.6130  0.00  0.00     0.000 O
BRANCH 16 20
ATOM     17  C1  BGC C   2      18.694   6.108   4.0590  0.00  0.00     0.000 C
ATOM     18  C2  BGC C   2      18.405   4.747   4.6720  0.00  0.00     0.000 C
ATOM     19  C3  BGC C   2      17.406   3.974   3.8230  0.00  0.00     0.000 C
ATOM     20  C4  BGC C   2      16.207   4.823   3.5660  0.00  0.00     0.000 C
ATOM     21  C5  BGC C   2      16.610   6.192   3.0260  0.00  0.00     0.000 C
ATOM     22  O5  BGC C   2      17.505   6.825   3.8900  0.00  0.00     0.000 O
ATOM     23   O  BGC C   2      19.638   4.019   4.7850  0.00  0.00     0.000 O
ATOM     25  HD  BGC C   2      19.512   3.188   4.5740  0.00  0.00     0.000 HD
ATOM     25   O  BGC C   2      17.021   2.792   4.5150  0.00  0.00     0.000 O
ATOM     27  HD  BGC C   2      16.895   1.962   4.3040  0.00  0.00     0.000 HD
ATOM     27   C  BGC C   2      15.433   7.149   2.7470  0.00  0.00     0.000 C
ATOM     28   O  BGC C   2      14.602   7.304   3.9090  0.00  0.00     0.000 O
ATOM     30  HD  BGC C   2      14.476   6.473   3.6980  0.00  0.00     0.000 HD
BRANCH 17 30
ATOM     30  O4  BGC C   3      19.540   6.838   4.9230  0.00  0.00     0.000 O
BRANCH 30 34
ATOM     31  C1  BGC C   3      22.795   9.226   4.7370  0.00  0.00     0.000 C
ATOM     32  C2  BGC C   3      21.430   9.954   4.7720  0.00  0.00     0.000 C
ATOM     33  C3  BGC C   3      20.337   9.031   5.1850  0.00  0.00     0.000 C
ATOM     34  C4  BGC C   3      20.405   7.779   4.3060  0.00  0.00     0.000 C
ATOM     35  C5  BGC C   3      21.823   7.161   4.2060  0.00  0.00     0.000 C
ATOM     36  O5  BGC C   3      22.755   8.147   3.8370  0.00  0.00     0.000 O
ATOM     37   O  BGC C   3      21.305  11.110   5.5780  0.00  0.00     0.000 O
ATOM     39  HD  BGC C   3      20.922  10.390   5.2890  0.00  0.00     0.000 HD
ATOM     39   O  BGC C   3      19.044   9.692   5.0600  0.00  0.00     0.000 O
ATOM     41  HD  BGC C   3      18.661   8.971   4.7710  0.00  0.00     0.000 HD
ATOM     41   C  BGC C   3      21.965   6.009   3.1850  0.00  0.00     0.000 C
ATOM     42   O  BGC C   3      21.745   6.386   1.7790  0.00  0.00     0.000 O
ATOM     44  HD  BGC C   3      21.362   5.665   1.4890  0.00  0.00     0.000 HD
BRANCH 31 44
ATOM     44  O4  BGC C   4      23.811  10.091   4.3530  0.00  0.00     0.000 O
BRANCH 44 48
ATOM     45  C1  BGC C   4      27.713  11.155   4.9890  0.00  0.00     0.000 C
ATOM     46  C2  BGC C   4      27.610   9.775   4.2640  0.00  0.00     0.000 C
ATOM     47  C3  BGC C   4      26.130   9.737   3.8620  0.00  0.00     0.000 C
ATOM     48  C4  BGC C   4      25.083  10.008   4.9240  0.00  0.00     0.000 C
ATOM     49  C5  BGC C   4      25.400  11.402   5.4900  0.00  0.00     0.000 C
ATOM     50  O5  BGC C   4      26.701  11.464   5.9600  0.00  0.00     0.000 O
ATOM     51   O  BGC C   4      28.440   9.421   3.0170  0.00  0.00     0.000 O
ATOM     53  HD  BGC C   4      28.184   8.670   2.6680  0.00  0.00     0.000 HD
ATOM     53   O  BGC C   4      25.984   8.269   3.5640  0.00  0.00     0.000 O
ATOM     55  HD  BGC C   4      25.728   7.519   3.2160  0.00  0.00     0.000 HD
ATOM     55   C  BGC C   4      24.527  11.724   6.6750  0.00  0.00     0.000 C
ATOM     56   O  BGC C   4      24.573  10.783   7.7540  0.00  0.00     0.000 O
ATOM     58  HD  BGC C   4      24.317  10.032   7.4050  0.00  0.00     0.000 HD
BRANCH 45 58
ATOM     58  O4  BGC C   5      28.928  11.309   5.6600  0.00  0.00     0.000 O
BRANCH 58 62
ATOM     59  C1  BGC C   5      31.127  11.885   3.6150  0.00  0.00     0.000 C
ATOM     60  C2  BGC C   5      31.759  11.920   4.9160  0.00  0.00     0.000 C
ATOM     61  C3  BGC C   5      30.963  12.695   5.9630  0.00  0.00     0.000 C
ATOM     62  C4  BGC C   5      29.487  12.644   5.5970  0.00  0.00     0.000 C
ATOM     63  C5  BGC C   5      29.382  12.925   4.1160  0.00  0.00     0.000 C
ATOM     64  O5  BGC C   5      30.566  12.840   3.3260  0.00  0.00     0.000 O
ATOM     65   O  BGC C   5      29.508  15.328   4.3290  0.00  0.00     0.000 O
ATOM     67  HD  BGC C   5      28.997  14.631   4.2710  0.00  0.00     0.000 HD
ATOM     67   O  BGC C   5      29.508  15.328   4.3290  0.00  0.00     0.000 O
ATOM     69  HD  BGC C   5      28.997  14.631   4.2710  0.00  0.00     0.000 HD
ENDBRANCH 58 62
ENDBRANCH 45 58
ENDBRANCH 44 48
ENDBRANCH 31 44
ENDBRANCH 30 34
ENDBRANCH 17 30
ENDBRANCH 16 20
ENDBRANCH 1 16
TORSDOF 8
ENDMDL
MODEL 14
REMARK VINA RESULT:      -4.1      2.979     14.582
ROOT
ATOM      1  C1  BGC C   1      24.438   7.754   3.5060  0.00  0.00     0.000 C
ATOM      2  C2  BGC C   1      25.063   8.220   2.1910  0.00  0.00     0.000 C
ATOM      3  C3  BGC C   1      26.579   8.070   2.2510  0.00  0.00     0.000 C
ATOM      4  C4  BGC C   1      27.169   8.697   3.5030  0.00  0.00     0.000 C
ATOM      5  C5  BGC C   1      26.365   8.281   4.7320  0.00  0.00     0.000 C
ATOM      6  O5  BGC C   1      24.989   8.421   4.5760  0.00  0.00     0.000 O
ATOM      7   O  BGC C   1      24.533   7.418   1.1630  0.00  0.00     0.000 O
ATOM      9  HD  BGC C   1      24.921   8.186   1.0670  0.00  0.00     0.000 HD
ATOM      9   O  BGC C   1      27.130   8.638   1.0560  0.00  0.00     0.000 O
ATOM     11  HD  BGC C   1      27.518   9.407   0.9600  0.00  0.00     0.000 HD
ATOM     11   O  BGC C   1      28.515   8.244   3.5950  0.00  0.00     0.000 O
ATOM     13  HD  BGC C   1      28.903   9.013   3.4990  0.00  0.00     0.000 HD
ATOM     13   O  BGC C   1      26.415  10.541   5.7460  0.00  0.00     0.000 O
ATOM     15  HD  BGC C   1      26.803  11.310   5.6500  0.00  0.00     0.000 HD
ATOM     15   C  BGC C   1      26.816   9.154   5.9180  0.00  0.00     0.000 C
ENDROOT
BRANCH 1 16
ATOM     16  O4  BGC C   2      23.066   8.067   3.4870  0.00  0.00     0.000 O
BRANCH 16 20
ATOM     17  C1  BGC C   2      19.589   6.559   5.0080  0.00  0.00     0.000 C
ATOM     18  C2  BGC C   2      20.420   7.403   5.9610  0.00  0.00     0.000 C
ATOM     19  C3  BGC C   2      21.474   8.196   5.2010  0.00  0.00     0.000 C
ATOM     20  C4  BGC C   2      22.253   7.276   4.3210  0.00  0.00     0.000 C
ATOM     21  C5  BGC C   2      21.324   6.422   3.4620  0.00  0.00     0.000 C
ATOM     22  O5  BGC C   2      20.418   5.718   4.2570  0.00  0.00     0.000 O
ATOM     23   O  BGC C   2      19.547   8.288   6.6780  0.00  0.00     0.000 O
ATOM     25  HD  BGC C   2      19.913   9.068   6.7560  0.00  0.00     0.000 HD
ATOM     25   O  BGC C   2      22.346   8.825   6.1320  0.00  0.00     0.000 O
ATOM     27  HD  BGC C   2      22.713   9.606   6.2090  0.00  0.00     0.000 HD
ATOM     27   C  BGC C   2      22.042   5.424   2.5310  0.00  0.00     0.000 C
ATOM     28   O  BGC C   2      22.945   4.582   3.2670  0.00  0.00     0.000 O
ATOM     30  HD  BGC C   2      23.311   5.363   3.3440  0.00  0.00     0.000 HD
BRANCH 17 30
ATOM     30  O4  BGC C   3      18.695   5.759   5.7520  0.00  0.00     0.000 O
BRANCH 30 34
ATOM     31  C1  BGC C   3      15.609   3.205   5.2100  0.00  0.00     0.000 C
ATOM     32  C2  BGC C   3      17.019   2.567   5.1990  0.00  0.00     0.000 C
ATOM     33  C3  BGC C   3      18.039   3.505   5.7440  0.00  0.00     0.000 C
ATOM     34  C4  BGC C   3      17.906   4.841   5.0100  0.00  0.00     0.000 C
ATOM     35  C5  BGC C   3      16.453   5.375   4.9420  0.00  0.00     0.000 C
ATOM     36  O5  BGC C   3      15.596   4.381   4.4380  0.00  0.00     0.000 O
ATOM     37   O  BGC C   3      17.204   1.336   5.8730  0.00  0.00     0.000 O
ATOM     39  HD  BGC C   3      17.544   2.108   5.6780  0.00  0.00     0.000 HD
ATOM     39   O  BGC C   3      19.376   2.945   5.5800  0.00  0.00     0.000 O
ATOM     41  HD  BGC C   3      19.716   3.717   5.3850  0.00  0.00     0.000 HD
ATOM     41   C  BGC C   3      16.254   6.626   4.0540  0.00  0.00     0.000 C
ATOM     42   O  BGC C   3      16.527   6.427   2.6200  0.00  0.00     0.000 O
ATOM     44  HD  BGC C   3      16.867   7.199   2.4250  0.00  0.00     0.000 HD
BRANCH 31 44
ATOM     44  O4  BGC C   4      14.661   2.327   4.7020  0.00  0.00     0.000 O
BRANCH 44 48
ATOM     45  C1  BGC C   4      10.681   1.815   3.8910  0.00  0.00     0.000 C
ATOM     46  C2  BGC C   4      11.351   2.785   2.8660  0.00  0.00     0.000 C
ATOM     47  C3  BGC C   4      12.842   2.581   3.1620  0.00  0.00     0.000 C
ATOM     48  C4  BGC C   4      13.318   2.698   4.5970  0.00  0.00     0.000 C
ATOM     49  C5  BGC C   4      12.514   1.664   5.4010  0.00  0.00     0.000 C
ATOM     50  O5  BGC C   4      11.152   1.864   5.2460  0.00  0.00     0.000 O
ATOM     51   O  BGC C   4      11.158   2.658   1.3440  0.00  0.00     0.000 O
ATOM     53  HD  BGC C   4      11.684   3.193   0.9110  0.00  0.00     0.000 HD
ATOM     53   O  BGC C   4      13.407   3.799   2.4840  0.00  0.00     0.000 O
ATOM     55  HD  BGC C   4      13.933   4.334   2.0520  0.00  0.00     0.000 HD
ATOM     55   C  BGC C   4      12.777   1.793   6.8790  0.00  0.00     0.000 C
ATOM     56   O  BGC C   4      12.529   3.087   7.4420  0.00  0.00     0.000 O
ATOM     58  HD  BGC C   4      13.055   3.622   7.0100  0.00  0.00     0.000 HD
BRANCH 45 58
ATOM     58  O4  BGC C   5       9.300   2.006   3.9730  0.00  0.00     0.000 O
BRANCH 58 62
ATOM     59  C1  BGC C   5       6.360   2.813   4.2100  0.00  0.00     0.000 C
ATOM     60  C2  BGC C   5       7.113   4.042   4.0860  0.00  0.00     0.000 C
ATOM     61  C3  BGC C   5       8.366   4.084   4.9570  0.00  0.00     0.000 C
ATOM     62  C4  BGC C   5       8.853   2.660   5.1860  0.00  0.00     0.000 C
ATOM     63  C5  BGC C   5       7.644   1.822   5.5310  0.00  0.00     0.000 C
ATOM     64  O5  BGC C   5       6.350   2.358   5.2600  0.00  0.00     0.000 O
ATOM     65   O  BGC C   5       7.587   2.450   7.8630  0.00  0.00     0.000 O
ATOM     67  HD  BGC C   5       7.861   1.879   7.2720  0.00  0.00     0.000 HD
ATOM     67   O  BGC C   5       7.587   2.450   7.8630  0.00  0.00     0.000 O
ATOM     69  HD  BGC C   5       7.861   1.879   7.2720  0.00  0.00     0.000 HD
ENDBRANCH 58 62
ENDBRANCH 45 58
ENDBRANCH 44 48
ENDBRANCH 31 44
ENDBRANCH 30 34
ENDBRANCH 17 30
ENDBRANCH 16 20
ENDBRANCH 1 16
TORSDOF 8
ENDMDL
MODEL 15
REMARK VINA RESULT:      -4.1      5.475     10.013
ROOT
ATOM      1  C1  BGC C   1      14.099   3.974   2.9400  0.00  0.00     0.000 C
ATOM      2  C2  BGC C   1      13.281   3.895   1.6520  0.00  0.00     0.000 C
ATOM      3  C3  BGC C   1      11.830   3.555   1.9750  0.00  0.00     0.000 C
ATOM      4  C4  BGC C   1      11.713   2.346   2.8890  0.00  0.00     0.000 C
ATOM      5  C5  BGC C   1      12.690   2.468   4.0550  0.00  0.00     0.000 C
ATOM      6  O5  BGC C   1      13.983   2.813   3.6700  0.00  0.00     0.000 O
ATOM      7   O  BGC C   1      13.360   5.151   1.0230  0.00  0.00     0.000 O
ATOM      9  HD  BGC C   1      13.131   4.404   0.6510  0.00  0.00     0.000 HD
ATOM      9   O  BGC C   1      11.132   3.362   0.7380  0.00  0.00     0.000 O
ATOM     11  HD  BGC C   1      10.903   2.615   0.3650  0.00  0.00     0.000 HD
ATOM     11   O  BGC C   1      10.367   2.309   3.3500  0.00  0.00     0.000 O
ATOM     13  HD  BGC C   1      10.137   1.562   2.9780  0.00  0.00     0.000 HD
ATOM     13   O  BGC C   1      13.366   0.087   3.9640  0.00  0.00     0.000 O
ATOM     15  HD  BGC C   1      13.136  -0.661   3.5920  0.00  0.00     0.000 HD
ATOM     15   C  BGC C   1      12.739   1.113   4.7830  0.00  0.00     0.000 C
ENDROOT
BRANCH 1 16
ATOM     16  O4  BGC C   2      15.459   4.113   2.6020  0.00  0.00     0.000 O
BRANCH 16 20
ATOM     17  C1  BGC C   2      18.702   6.168   3.9930  0.00  0.00     0.000 C
ATOM     18  C2  BGC C   2      18.464   4.801   4.6160  0.00  0.00     0.000 C
ATOM     19  C3  BGC C   2      17.477   3.993   3.7840  0.00  0.00     0.000 C
ATOM     20  C4  BGC C   2      16.249   4.804   3.5400  0.00  0.00     0.000 C
ATOM     21  C5  BGC C   2      16.603   6.182   2.9870  0.00  0.00     0.000 C
ATOM     22  O5  BGC C   2      17.489   6.847   3.8360  0.00  0.00     0.000 O
ATOM     23   O  BGC C   2      19.719   4.112   4.7150  0.00  0.00     0.000 O
ATOM     25  HD  BGC C   2      19.616   3.277   4.5100  0.00  0.00     0.000 HD
ATOM     25   O  BGC C   2      17.137   2.804   4.4880  0.00  0.00     0.000 O
ATOM     27  HD  BGC C   2      17.035   1.969   4.2820  0.00  0.00     0.000 HD
ATOM     27   C  BGC C   2      15.393   7.101   2.7210  0.00  0.00     0.000 C
ATOM     28   O  BGC C   2      14.573   7.236   3.8930  0.00  0.00     0.000 O
ATOM     30  HD  BGC C   2      14.470   6.401   3.6880  0.00  0.00     0.000 HD
BRANCH 17 30
ATOM     30  O4  BGC C   3      19.537   6.927   4.8410  0.00  0.00     0.000 O
BRANCH 30 34
ATOM     31  C1  BGC C   3      22.691   9.444   4.6070  0.00  0.00     0.000 C
ATOM     32  C2  BGC C   3      21.297  10.116   4.6440  0.00  0.00     0.000 C
ATOM     33  C3  BGC C   3      20.246   9.153   5.0750  0.00  0.00     0.000 C
ATOM     34  C4  BGC C   3      20.359   7.896   4.2080  0.00  0.00     0.000 C
ATOM     35  C5  BGC C   3      21.800   7.336   4.1040  0.00  0.00     0.000 C
ATOM     36  O5  BGC C   3      22.689   8.354   3.7180  0.00  0.00     0.000 O
ATOM     37   O  BGC C   3      21.131  11.275   5.4400  0.00  0.00     0.000 O
ATOM     39  HD  BGC C   3      20.776  10.536   5.1610  0.00  0.00     0.000 HD
ATOM     39   O  BGC C   3      18.926   9.760   4.9530  0.00  0.00     0.000 O
ATOM     41  HD  BGC C   3      18.571   9.022   4.6730  0.00  0.00     0.000 HD
ATOM     41   C  BGC C   3      21.982   6.179   3.0940  0.00  0.00     0.000 C
ATOM     42   O  BGC C   3      21.738   6.532   1.6860  0.00  0.00     0.000 O
ATOM     44  HD  BGC C   3      21.382   5.793   1.4060  0.00  0.00     0.000 HD
BRANCH 31 44
ATOM     44  O4  BGC C   4      23.668  10.345   4.2070  0.00  0.00     0.000 O
BRANCH 44 48
ATOM     45  C1  BGC C   4      27.528  11.573   4.8040  0.00  0.00     0.000 C
ATOM     46  C2  BGC C   4      27.476  10.183   4.0930  0.00  0.00     0.000 C
ATOM     47  C3  BGC C   4      25.996  10.080   3.7020  0.00  0.00     0.000 C
ATOM     48  C4  BGC C   4      24.947  10.320   4.7690  0.00  0.00     0.000 C
ATOM     49  C5  BGC C   4      25.210  11.730   5.3210  0.00  0.00     0.000 C
ATOM     50  O5  BGC C   4      26.511  11.850   5.7800  0.00  0.00     0.000 O
ATOM     51   O  BGC C   4      28.311   9.850   2.8430  0.00  0.00     0.000 O
ATOM     53  HD  BGC C   4      28.084   9.087   2.5040  0.00  0.00     0.000 HD
ATOM     53   O  BGC C   4      25.908   8.606   3.4200  0.00  0.00     0.000 O
ATOM     55  HD  BGC C   4      25.681   7.842   3.0800  0.00  0.00     0.000 HD
ATOM     55   C  BGC C   4      24.333  12.028   6.5080  0.00  0.00     0.000 C
ATOM     56   O  BGC C   4      24.425  11.100   7.5960  0.00  0.00     0.000 O
ATOM     58  HD  BGC C   4      24.198  10.337   7.2560  0.00  0.00     0.000 HD
BRANCH 45 58
ATOM     58  O4  BGC C   5      28.740  11.782   5.4650  0.00  0.00     0.000 O
BRANCH 58 62
ATOM     59  C1  BGC C   5      31.360  11.649   7.0370  0.00  0.00     0.000 C
ATOM     60  C2  BGC C   5      30.794  10.318   7.0730  0.00  0.00     0.000 C
ATOM     61  C3  BGC C   5      29.297  10.297   7.3730  0.00  0.00     0.000 C
ATOM     62  C4  BGC C   5      28.681  11.607   6.9020  0.00  0.00     0.000 C
ATOM     63  C5  BGC C   5      29.593  12.722   7.3610  0.00  0.00     0.000 C
ATOM     64  O5  BGC C   5      30.910  12.384   7.7910  0.00  0.00     0.000 O
ATOM     65   O  BGC C   5      28.717  12.823   9.6100  0.00  0.00     0.000 O
ATOM     67  HD  BGC C   5      28.681  13.135   8.8030  0.00  0.00     0.000 HD
ATOM     67   O  BGC C   5      28.717  12.823   9.6100  0.00  0.00     0.000 O
ATOM     69  HD  BGC C   5      28.681  13.135   8.8030  0.00  0.00     0.000 HD
ENDBRANCH 58 62
ENDBRANCH 45 58
ENDBRANCH 44 48
ENDBRANCH 31 44
ENDBRANCH 30 34
ENDBRANCH 17 30
ENDBRANCH 16 20
ENDBRANCH 1 16
TORSDOF 8
ENDMDL
MODEL 16
REMARK VINA RESULT:      -3.9      6.205     10.067
ROOT
ATOM      1  C1  BGC C   1      14.405   3.412   3.7210  0.00  0.00     0.000 C
ATOM      2  C2  BGC C   1      13.726   2.493   4.7360  0.00  0.00     0.000 C
ATOM      3  C3  BGC C   1      13.021   1.350   4.0160  0.00  0.00     0.000 C
ATOM      4  C4  BGC C   1      12.124   1.843   2.8930  0.00  0.00     0.000 C
ATOM      5  C5  BGC C   1      12.863   2.871   2.0400  0.00  0.00     0.000 C
ATOM      6  O5  BGC C   1      13.504   3.860   2.7810  0.00  0.00     0.000 O
ATOM      7   O  BGC C   1      14.728   1.991   5.5880  0.00  0.00     0.000 O
ATOM      9  HD  BGC C   1      13.877   2.007   5.7480  0.00  0.00     0.000 HD
ATOM      9   O  BGC C   1      12.293   0.592   4.9910  0.00  0.00     0.000 O
ATOM     11  HD  BGC C   1      11.442   0.607   5.1520  0.00  0.00     0.000 HD
ATOM     11   O  BGC C   1      11.764   0.702   2.1220  0.00  0.00     0.000 O
ATOM     13  HD  BGC C   1      10.914   0.717   2.2830  0.00  0.00     0.000 HD
ATOM     13   O  BGC C   1      10.904   4.376   1.8460  0.00  0.00     0.000 O
ATOM     15  HD  BGC C   1      10.053   4.391   2.0070  0.00  0.00     0.000 HD
ATOM     15   C  BGC C   1      11.840   3.543   1.1060  0.00  0.00     0.000 C
ENDROOT
BRANCH 1 16
ATOM     16  O4  BGC C   2      14.894   4.547   4.3960  0.00  0.00     0.000 O
BRANCH 16 20
ATOM     17  C1  BGC C   2      18.160   6.996   4.3030  0.00  0.00     0.000 C
ATOM     18  C2  BGC C   2      17.249   7.056   3.0870  0.00  0.00     0.000 C
ATOM     19  C3  BGC C   2      15.908   6.399   3.3830  0.00  0.00     0.000 C
ATOM     20  C4  BGC C   2      16.134   5.034   3.9430  0.00  0.00     0.000 C
ATOM     21  C5  BGC C   2      17.119   5.075   5.1060  0.00  0.00     0.000 C
ATOM     22  O5  BGC C   2      18.322   5.671   4.7210  0.00  0.00     0.000 O
ATOM     23   O  BGC C   2      17.062   8.430   2.7150  0.00  0.00     0.000 O
ATOM     25  HD  BGC C   2      16.239   8.567   2.4850  0.00  0.00     0.000 HD
ATOM     25   O  BGC C   2      15.156   6.308   2.1800  0.00  0.00     0.000 O
ATOM     27  HD  BGC C   2      14.332   6.445   1.9500  0.00  0.00     0.000 HD
ATOM     27   C  BGC C   2      17.430   3.702   5.7380  0.00  0.00     0.000 C
ATOM     28   O  BGC C   2      17.877   2.763   4.7470  0.00  0.00     0.000 O
ATOM     30  HD  BGC C   2      17.053   2.899   4.5180  0.00  0.00     0.000 HD
BRANCH 17 30
ATOM     30  O4  BGC C   3      19.426   7.518   3.9620  0.00  0.00     0.000 O
BRANCH 30 34
ATOM     31  C1  BGC C   3      22.440   9.708   5.5290  0.00  0.00     0.000 C
ATOM     32  C2  BGC C   3      22.469   8.196   5.8560  0.00  0.00     0.000 C
ATOM     33  C3  BGC C   3      21.545   7.435   4.9700  0.00  0.00     0.000 C
ATOM     34  C4  BGC C   3      20.169   8.103   5.0210  0.00  0.00     0.000 C
ATOM     35  C5  BGC C   3      20.211   9.639   4.8100  0.00  0.00     0.000 C
ATOM     36  O5  BGC C   3      21.141  10.222   5.6870  0.00  0.00     0.000 O
ATOM     37   O  BGC C   3      23.713   7.523   5.8120  0.00  0.00     0.000 O
ATOM     39  HD  BGC C   3      22.864   7.478   5.6470  0.00  0.00     0.000 HD
ATOM     39   O  BGC C   3      21.470   6.043   5.3970  0.00  0.00     0.000 O
ATOM     41  HD  BGC C   3      20.621   5.999   5.2320  0.00  0.00     0.000 HD
ATOM     41   C  BGC C   3      18.867  10.369   5.0350  0.00  0.00     0.000 C
ATOM     42   O  BGC C   3      18.343  10.309   6.4100  0.00  0.00     0.000 O
ATOM     44  HD  BGC C   3      17.494  10.265   6.2440  0.00  0.00     0.000 HD
BRANCH 31 44
ATOM     44  O4  BGC C   4      23.305  10.414   6.3560  0.00  0.00     0.000 O
BRANCH 44 48
ATOM     45  C1  BGC C   4      25.991  13.498   6.5280  0.00  0.00     0.000 C
ATOM     46  C2  BGC C   4      24.529  14.025   6.3750  0.00  0.00     0.000 C
ATOM     47  C3  BGC C   4      23.705  12.759   6.6440  0.00  0.00     0.000 C
ATOM     48  C4  BGC C   4      24.040  11.498   5.8720  0.00  0.00     0.000 C
ATOM     49  C5  BGC C   4      25.517  11.193   6.1720  0.00  0.00     0.000 C
ATOM     50  O5  BGC C   4      26.322  12.274   5.8540  0.00  0.00     0.000 O
ATOM     51   O  BGC C   4      23.949  15.152   7.2490  0.00  0.00     0.000 O
ATOM     53  HD  BGC C   4      23.097  15.246   7.1220  0.00  0.00     0.000 HD
ATOM     53   O  BGC C   4      22.378  13.194   6.0840  0.00  0.00     0.000 O
ATOM     55  HD  BGC C   4      21.527  13.289   5.9560  0.00  0.00     0.000 HD
ATOM     55   C  BGC C   4      26.023  10.050   5.3310  0.00  0.00     0.000 C
ATOM     56   O  BGC C   4      25.879  10.211   3.9150  0.00  0.00     0.000 O
ATOM     58  HD  BGC C   4      25.028  10.306   3.7870  0.00  0.00     0.000 HD
BRANCH 45 58
ATOM     58  O4  BGC C   5      26.936  14.428   6.0890  0.00  0.00     0.000 O
BRANCH 58 62
ATOM     59  C1  BGC C   5      27.200  16.641   8.1830  0.00  0.00     0.000 C
ATOM     60  C2  BGC C   5      28.146  16.956   7.1340  0.00  0.00     0.000 C
ATOM     61  C3  BGC C   5      28.955  15.752   6.6580  0.00  0.00     0.000 C
ATOM     62  C4  BGC C   5      28.141  14.487   6.8900  0.00  0.00     0.000 C
ATOM     63  C5  BGC C   5      27.553  14.581   8.2790  0.00  0.00     0.000 C
ATOM     64  O5  BGC C   5      27.555  15.850   8.9300  0.00  0.00     0.000 O
ATOM     65   O  BGC C   5      29.540  13.818   9.4220  0.00  0.00     0.000 O
ATOM     67  HD  BGC C   5      28.777  13.604   9.0730  0.00  0.00     0.000 HD
ATOM     67   O  BGC C   5      29.540  13.818   9.4220  0.00  0.00     0.000 O
ATOM     69  HD  BGC C   5      28.777  13.604   9.0730  0.00  0.00     0.000 HD
ENDBRANCH 58 62
ENDBRANCH 45 58
ENDBRANCH 44 48
ENDBRANCH 31 44
ENDBRANCH 30 34
ENDBRANCH 17 30
ENDBRANCH 16 20
ENDBRANCH 1 16
TORSDOF 8
ENDMDL
MODEL 17
REMARK VINA RESULT:      -3.9      3.492     14.972
ROOT
ATOM      1  C1  BGC C   1      24.004   6.929   4.9550  0.00  0.00     0.000 C
ATOM      2  C2  BGC C   1      25.146   7.356   4.0350  0.00  0.00     0.000 C
ATOM      3  C3  BGC C   1      26.439   6.665   4.4530  0.00  0.00     0.000 C
ATOM      4  C4  BGC C   1      26.718   6.817   5.9390  0.00  0.00     0.000 C
ATOM      5  C5  BGC C   1      25.458   6.514   6.7460  0.00  0.00     0.000 C
ATOM      6  O5  BGC C   1      24.320   7.162   6.2740  0.00  0.00     0.000 O
ATOM      7   O  BGC C   1      24.794   6.984   2.7240  0.00  0.00     0.000 O
ATOM      9  HD  BGC C   1      25.394   7.567   2.9490  0.00  0.00     0.000 HD
ATOM      9   O  BGC C   1      27.504   7.192   3.6500  0.00  0.00     0.000 O
ATOM     11  HD  BGC C   1      28.104   7.775   3.8760  0.00  0.00     0.000 HD
ATOM     11   O  BGC C   1      27.761   5.903   6.2570  0.00  0.00     0.000 O
ATOM     13  HD  BGC C   1      28.361   6.485   6.4830  0.00  0.00     0.000 HD
ATOM     13   O  BGC C   1      25.802   8.398   8.3170  0.00  0.00     0.000 O
ATOM     15  HD  BGC C   1      26.402   8.981   8.5430  0.00  0.00     0.000 HD
ATOM     15   C  BGC C   1      25.705   6.951   8.2010  0.00  0.00     0.000 C
ENDROOT
BRANCH 1 16
ATOM     16  O4  BGC C   2      22.871   7.712   4.6590  0.00  0.00     0.000 O
BRANCH 16 20
ATOM     17  C1  BGC C   2      18.813   7.285   4.5050  0.00  0.00     0.000 C
ATOM     18  C2  BGC C   2      19.430   7.268   5.8940  0.00  0.00     0.000 C
ATOM     19  C3  BGC C   2      20.859   7.792   5.8560  0.00  0.00     0.000 C
ATOM     20  C4  BGC C   2      21.630   7.063   4.8080  0.00  0.00     0.000 C
ATOM     21  C5  BGC C   2      20.889   7.074   3.4740  0.00  0.00     0.000 C
ATOM     22  O5  BGC C   2      19.603   6.550   3.6150  0.00  0.00     0.000 O
ATOM     23   O  BGC C   2      18.624   8.071   6.7690  0.00  0.00     0.000 O
ATOM     25  HD  BGC C   2      19.131   8.536   7.2970  0.00  0.00     0.000 HD
ATOM     25   O  BGC C   2      21.464   7.590   7.1270  0.00  0.00     0.000 O
ATOM     27  HD  BGC C   2      21.971   8.055   7.6550  0.00  0.00     0.000 HD
ATOM     27   C  BGC C   2      21.604   6.324   2.3310  0.00  0.00     0.000 C
ATOM     28   O  BGC C   2      21.917   4.974   2.7090  0.00  0.00     0.000 O
ATOM     30  HD  BGC C   2      22.423   5.438   3.2370  0.00  0.00     0.000 HD
BRANCH 17 30
ATOM     30  O4  BGC C   3      17.530   6.697   4.5580  0.00  0.00     0.000 O
BRANCH 30 34
ATOM     31  C1  BGC C   3      14.146   6.500   2.3560  0.00  0.00     0.000 C
ATOM     32  C2  BGC C   3      15.143   5.333   2.1610  0.00  0.00     0.000 C
ATOM     33  C3  BGC C   3      16.166   5.311   3.2420  0.00  0.00     0.000 C
ATOM     34  C4  BGC C   3      16.785   6.707   3.3500  0.00  0.00     0.000 C
ATOM     35  C5  BGC C   3      15.740   7.850   3.4180  0.00  0.00     0.000 C
ATOM     36  O5  BGC C   3      14.824   7.732   2.3580  0.00  0.00     0.000 O
ATOM     37   O  BGC C   3      14.628   4.017   2.0680  0.00  0.00     0.000 O
ATOM     39  HD  BGC C   3      15.266   4.522   2.3670  0.00  0.00     0.000 HD
ATOM     39   O  BGC C   3      17.183   4.305   2.9550  0.00  0.00     0.000 O
ATOM     41  HD  BGC C   3      17.820   4.810   3.2540  0.00  0.00     0.000 HD
ATOM     41   C  BGC C   3      16.326   9.279   3.3430  0.00  0.00     0.000 C
ATOM     42   O  BGC C   3      16.999   9.615   2.0760  0.00  0.00     0.000 O
ATOM     44  HD  BGC C   3      17.636  10.119   2.3750  0.00  0.00     0.000 HD
BRANCH 31 44
ATOM     44  O4  BGC C   4      13.193   6.515   1.3460  0.00  0.00     0.000 O
BRANCH 44 48
ATOM     45  C1  BGC C   4       9.237   7.134   0.4940  0.00  0.00     0.000 C
ATOM     46  C2  BGC C   4       9.945   8.464   0.9080  0.00  0.00     0.000 C
ATOM     47  C3  BGC C   4      11.425   8.062   0.8700  0.00  0.00     0.000 C
ATOM     48  C4  BGC C   4      11.857   6.817   1.6210  0.00  0.00     0.000 C
ATOM     49  C5  BGC C   4      11.021   5.661   1.0500  0.00  0.00     0.000 C
ATOM     50  O5  BGC C   4       9.666   5.930   1.1490  0.00  0.00     0.000 O
ATOM     51   O  BGC C   4       9.799   9.773   0.1110  0.00  0.00     0.000 O
ATOM     53  HD  BGC C   4      10.342  10.383   0.4000  0.00  0.00     0.000 HD
ATOM     53   O  BGC C   4      12.019   9.196   1.6590  0.00  0.00     0.000 O
ATOM     55  HD  BGC C   4      12.562   9.805   1.9480  0.00  0.00     0.000 HD
ATOM     55   C  BGC C   4      11.239   4.390   1.8290  0.00  0.00     0.000 C
ATOM     56   O  BGC C   4      10.982   4.474   3.2360  0.00  0.00     0.000 O
ATOM     58  HD  BGC C   4      11.525   5.083   3.5250  0.00  0.00     0.000 HD
BRANCH 45 58
ATOM     58  O4  BGC C   5       7.855   7.189   0.6920  0.00  0.00     0.000 O
BRANCH 58 62
ATOM     59  C1  BGC C   5       4.900   7.397   1.4500  0.00  0.00     0.000 C
ATOM     60  C2  BGC C   5       5.634   8.125   2.4620  0.00  0.00     0.000 C
ATOM     61  C3  BGC C   5       6.877   7.393   2.9620  0.00  0.00     0.000 C
ATOM     62  C4  BGC C   5       7.385   6.474   1.8610  0.00  0.00     0.000 C
ATOM     63  C5  BGC C   5       6.186   5.754   1.2890  0.00  0.00     0.000 C
ATOM     64  O5  BGC C   5       4.886   6.261   1.5880  0.00  0.00     0.000 O
ATOM     65   O  BGC C   5       6.092   4.061   3.0100  0.00  0.00     0.000 O
ATOM     67  HD  BGC C   5       6.382   4.281   2.2240  0.00  0.00     0.000 HD
ATOM     67   O  BGC C   5       6.092   4.061   3.0100  0.00  0.00     0.000 O
ATOM     69  HD  BGC C   5       6.382   4.281   2.2240  0.00  0.00     0.000 HD
ENDBRANCH 58 62
ENDBRANCH 45 58
ENDBRANCH 44 48
ENDBRANCH 31 44
ENDBRANCH 30 34
ENDBRANCH 17 30
ENDBRANCH 16 20
ENDBRANCH 1 16
TORSDOF 8
ENDMDL
MODEL 18
REMARK VINA RESULT:      -3.9      3.611      6.324
ROOT
ATOM      1  C1  BGC C   1      10.650   2.817   6.4850  0.00  0.00     0.000 C
ATOM      2  C2  BGC C   1       9.714   3.449   7.5140  0.00  0.00     0.000 C
ATOM      3  C3  BGC C   1       8.642   2.448   7.9290  0.00  0.00     0.000 C
ATOM      4  C4  BGC C   1       7.951   1.816   6.7320  0.00  0.00     0.000 C
ATOM      5  C5  BGC C   1       8.984   1.365   5.7040  0.00  0.00     0.000 C
ATOM      6  O5  BGC C   1       9.943   2.330   5.4090  0.00  0.00     0.000 O
ATOM      7   O  BGC C   1      10.495   3.818   8.6260  0.00  0.00     0.000 O
ATOM      9  HD  BGC C   1       9.706   4.116   8.4310  0.00  0.00     0.000 HD
ATOM      9   O  BGC C   1       7.714   3.121   8.7910  0.00  0.00     0.000 O
ATOM     11  HD  BGC C   1       6.925   3.420   8.5960  0.00  0.00     0.000 HD
ATOM     11   O  BGC C   1       7.203   0.711   7.2250  0.00  0.00     0.000 O
ATOM     13  HD  BGC C   1       6.413   1.009   7.0300  0.00  0.00     0.000 HD
ATOM     13   O  BGC C   1       7.667   2.173   3.7680  0.00  0.00     0.000 O
ATOM     15  HD  BGC C   1       6.878   2.472   3.5720  0.00  0.00     0.000 HD
ATOM     15   C  BGC C   1       8.241   0.999   4.4060  0.00  0.00     0.000 C
ENDROOT
BRANCH 1 16
ATOM     16  O4  BGC C   2      11.515   3.813   5.9920  0.00  0.00     0.000 O
BRANCH 16 20
ATOM     17  C1  BGC C   2      15.305   4.062   4.4920  0.00  0.00     0.000 C
ATOM     18  C2  BGC C   2      14.227   3.637   3.5070  0.00  0.00     0.000 C
ATOM     19  C3  BGC C   2      12.841   3.929   4.0650  0.00  0.00     0.000 C
ATOM     20  C4  BGC C   2      12.720   3.346   5.4320  0.00  0.00     0.000 C
ATOM     21  C5  BGC C   2      13.889   3.772   6.3160  0.00  0.00     0.000 C
ATOM     22  O5  BGC C   2      15.108   3.434   5.7260  0.00  0.00     0.000 O
ATOM     23   O  BGC C   2      14.428   4.336   2.2700  0.00  0.00     0.000 O
ATOM     25  HD  BGC C   2      13.666   4.586   1.9430  0.00  0.00     0.000 HD
ATOM     25   O  BGC C   2      11.862   3.355   3.2080  0.00  0.00     0.000 O
ATOM     27  HD  BGC C   2      11.100   3.605   2.8800  0.00  0.00     0.000 HD
ATOM     27   C  BGC C   2      13.858   3.199   7.7480  0.00  0.00     0.000 C
ATOM     28   O  BGC C   2      13.749   1.766   7.7330  0.00  0.00     0.000 O
ATOM     30  HD  BGC C   2      12.987   2.016   7.4060  0.00  0.00     0.000 HD
BRANCH 17 30
ATOM     30  O4  BGC C   3      16.569   3.682   3.9910  0.00  0.00     0.000 O
BRANCH 30 34
ATOM     31  C1  BGC C   3      20.233   5.339   3.5830  0.00  0.00     0.000 C
ATOM     32  C2  BGC C   3      20.097   4.280   4.7030  0.00  0.00     0.000 C
ATOM     33  C3  BGC C   3      18.842   3.493   4.5500  0.00  0.00     0.000 C
ATOM     34  C4  BGC C   3      17.673   4.471   4.4100  0.00  0.00     0.000 C
ATOM     35  C5  BGC C   3      17.914   5.587   3.3610  0.00  0.00     0.000 C
ATOM     36  O5  BGC C   3      19.142   6.225   3.6080  0.00  0.00     0.000 O
ATOM     37   O  BGC C   3      21.142   3.340   4.8710  0.00  0.00     0.000 O
ATOM     39  HD  BGC C   3      20.287   3.476   4.8840  0.00  0.00     0.000 HD
ATOM     39   O  BGC C   3      18.656   2.612   5.6970  0.00  0.00     0.000 O
ATOM     41  HD  BGC C   3      17.801   2.747   5.7100  0.00  0.00     0.000 HD
ATOM     41   C  BGC C   3      16.835   6.694   3.3230  0.00  0.00     0.000 C
ATOM     42   O  BGC C   3      16.726   7.506   4.5470  0.00  0.00     0.000 O
ATOM     44  HD  BGC C   3      15.871   7.641   4.5610  0.00  0.00     0.000 HD
BRANCH 31 44
ATOM     44  O4  BGC C   4      21.405   6.070   3.7290  0.00  0.00     0.000 O
BRANCH 44 48
ATOM     45  C1  BGC C   4      24.470   7.903   1.7290  0.00  0.00     0.000 C
ATOM     46  C2  BGC C   4      23.113   8.639   1.4880  0.00  0.00     0.000 C
ATOM     47  C3  BGC C   4      22.209   7.993   2.5460  0.00  0.00     0.000 C
ATOM     48  C4  BGC C   4      22.142   6.480   2.6150  0.00  0.00     0.000 C
ATOM     49  C5  BGC C   4      23.584   5.997   2.8430  0.00  0.00     0.000 C
ATOM     50  O5  BGC C   4      24.430   6.474   1.8560  0.00  0.00     0.000 O
ATOM     51   O  BGC C   4      22.954  10.165   1.6100  0.00  0.00     0.000 O
ATOM     53  HD  BGC C   4      22.123  10.402   1.5620  0.00  0.00     0.000 HD
ATOM     53   O  BGC C   4      20.862   8.399   2.0140  0.00  0.00     0.000 O
ATOM     55  HD  BGC C   4      20.031   8.636   1.9660  0.00  0.00     0.000 HD
ATOM     55   C  BGC C   4      23.678   4.495   2.7670  0.00  0.00     0.000 C
ATOM     56   O  BGC C   4      23.197   3.905   1.5540  0.00  0.00     0.000 O
ATOM     58  HD  BGC C   4      22.365   4.142   1.5060  0.00  0.00     0.000 HD
BRANCH 45 58
ATOM     58  O4  BGC C   5      25.395   8.157   0.7130  0.00  0.00     0.000 O
BRANCH 58 62
ATOM     59  C1  BGC C   5      26.586  10.939   1.1580  0.00  0.00     0.000 C
ATOM     60  C2  BGC C   5      27.241  10.396  -0.0120  0.00  0.00     0.000 C
ATOM     61  C3  BGC C   5      27.680   8.943   0.1500  0.00  0.00     0.000 C
ATOM     62  C4  BGC C   5      26.769   8.263   1.1620  0.00  0.00     0.000 C
ATOM     63  C5  BGC C   5      26.613   9.207   2.3310  0.00  0.00     0.000 C
ATOM     64  O5  BGC C   5      27.002  10.568   2.1580  0.00  0.00     0.000 O
ATOM     65   O  BGC C   5      28.688   8.588   3.4030  0.00  0.00     0.000 O
ATOM     67  HD  BGC C   5      27.834   8.458   3.3470  0.00  0.00     0.000 HD
ATOM     67   O  BGC C   5      28.688   8.588   3.4030  0.00  0.00     0.000 O
ATOM     69  HD  BGC C   5      27.834   8.458   3.3470  0.00  0.00     0.000 HD
ENDBRANCH 58 62
ENDBRANCH 45 58
ENDBRANCH 44 48
ENDBRANCH 31 44
ENDBRANCH 30 34
ENDBRANCH 17 30
ENDBRANCH 16 20
ENDBRANCH 1 16
TORSDOF 8
ENDMDL
MODEL 19
REMARK VINA RESULT:      -3.9      6.144      9.902
ROOT
ATOM      1  C1  BGC C   1      14.409   3.408   3.7180  0.00  0.00     0.000 C
ATOM      2  C2  BGC C   1      13.735   2.486   4.7340  0.00  0.00     0.000 C
ATOM      3  C3  BGC C   1      13.030   1.343   4.0140  0.00  0.00     0.000 C
ATOM      4  C4  BGC C   1      12.129   1.837   2.8940  0.00  0.00     0.000 C
ATOM      5  C5  BGC C   1      12.864   2.867   2.0410  0.00  0.00     0.000 C
ATOM      6  O5  BGC C   1      13.505   3.856   2.7820  0.00  0.00     0.000 O
ATOM      7   O  BGC C   1      14.740   1.984   5.5820  0.00  0.00     0.000 O
ATOM      9  HD  BGC C   1      13.890   1.998   5.7450  0.00  0.00     0.000 HD
ATOM      9   O  BGC C   1      12.306   0.582   4.9890  0.00  0.00     0.000 O
ATOM     11  HD  BGC C   1      11.455   0.595   5.1520  0.00  0.00     0.000 HD
ATOM     11   O  BGC C   1      11.769   0.696   2.1220  0.00  0.00     0.000 O
ATOM     13  HD  BGC C   1      10.919   0.710   2.2850  0.00  0.00     0.000 HD
ATOM     13   O  BGC C   1      10.902   4.369   1.8560  0.00  0.00     0.000 O
ATOM     15  HD  BGC C   1      10.051   4.382   2.0180  0.00  0.00     0.000 HD
ATOM     15   C  BGC C   1      11.837   3.539   1.1110  0.00  0.00     0.000 C
ENDROOT
BRANCH 1 16
ATOM     16  O4  BGC C   2      14.898   4.542   4.3950  0.00  0.00     0.000 O
BRANCH 16 20
ATOM     17  C1  BGC C   2      18.158   6.999   4.2960  0.00  0.00     0.000 C
ATOM     18  C2  BGC C   2      17.244   7.058   3.0820  0.00  0.00     0.000 C
ATOM     19  C3  BGC C   2      15.906   6.398   3.3810  0.00  0.00     0.000 C
ATOM     20  C4  BGC C   2      16.136   5.033   3.9380  0.00  0.00     0.000 C
ATOM     21  C5  BGC C   2      17.124   5.075   5.1000  0.00  0.00     0.000 C
ATOM     22  O5  BGC C   2      18.324   5.674   4.7120  0.00  0.00     0.000 O
ATOM     23   O  BGC C   2      17.054   8.432   2.7120  0.00  0.00     0.000 O
ATOM     25  HD  BGC C   2      16.229   8.567   2.4850  0.00  0.00     0.000 HD
ATOM     25   O  BGC C   2      15.150   6.307   2.1790  0.00  0.00     0.000 O
ATOM     27  HD  BGC C   2      14.326   6.442   1.9520  0.00  0.00     0.000 HD
ATOM     27   C  BGC C   2      17.440   3.702   5.7290  0.00  0.00     0.000 C
ATOM     28   O  BGC C   2      17.886   2.764   4.7360  0.00  0.00     0.000 O
ATOM     30  HD  BGC C   2      17.062   2.899   4.5090  0.00  0.00     0.000 HD
BRANCH 17 30
ATOM     30  O4  BGC C   3      19.423   7.524   3.9520  0.00  0.00     0.000 O
BRANCH 30 34
ATOM     31  C1  BGC C   3      22.434   9.721   5.5140  0.00  0.00     0.000 C
ATOM     32  C2  BGC C   3      22.470   8.208   5.8370  0.00  0.00     0.000 C
ATOM     33  C3  BGC C   3      21.546   7.446   4.9520  0.00  0.00     0.000 C
ATOM     34  C4  BGC C   3      20.167   8.109   5.0100  0.00  0.00     0.000 C
ATOM     35  C5  BGC C   3      20.203   9.645   4.8040  0.00  0.00     0.000 C
ATOM     36  O5  BGC C   3      21.134  10.229   5.6800  0.00  0.00     0.000 O
ATOM     37   O  BGC C   3      23.717   7.540   5.7860  0.00  0.00     0.000 O
ATOM     39  HD  BGC C   3      22.867   7.493   5.6240  0.00  0.00     0.000 HD
ATOM     39   O  BGC C   3      21.478   6.053   5.3740  0.00  0.00     0.000 O
ATOM     41  HD  BGC C   3      20.629   6.006   5.2120  0.00  0.00     0.000 HD
ATOM     41   C  BGC C   3      18.857  10.369   5.0370  0.00  0.00     0.000 C
ATOM     42   O  BGC C   3      18.339  10.303   6.4140  0.00  0.00     0.000 O
ATOM     44  HD  BGC C   3      17.489  10.256   6.2520  0.00  0.00     0.000 HD
BRANCH 31 44
ATOM     44  O4  BGC C   4      23.299  10.427   6.3400  0.00  0.00     0.000 O
BRANCH 44 48
ATOM     45  C1  BGC C   4      25.973  13.522   6.5120  0.00  0.00     0.000 C
ATOM     46  C2  BGC C   4      24.507  14.044   6.3700  0.00  0.00     0.000 C
ATOM     47  C3  BGC C   4      23.690  12.773   6.6370  0.00  0.00     0.000 C
ATOM     48  C4  BGC C   4      24.027  11.517   5.8580  0.00  0.00     0.000 C
ATOM     49  C5  BGC C   4      25.507  11.218   6.1480  0.00  0.00     0.000 C
ATOM     50  O5  BGC C   4      26.306  12.303   5.8300  0.00  0.00     0.000 O
ATOM     51   O  BGC C   4      23.927  15.164   7.2530  0.00  0.00     0.000 O
ATOM     53  HD  BGC C   4      23.075  15.255   7.1300  0.00  0.00     0.000 HD
ATOM     53   O  BGC C   4      22.359  13.205   6.0870  0.00  0.00     0.000 O
ATOM     55  HD  BGC C   4      21.506  13.296   5.9640  0.00  0.00     0.000 HD
ATOM     55   C  BGC C   4      26.013  10.081   5.2990  0.00  0.00     0.000 C
ATOM     56   O  BGC C   4      25.861  10.248   3.8840  0.00  0.00     0.000 O
ATOM     58  HD  BGC C   4      25.008  10.339   3.7620  0.00  0.00     0.000 HD
BRANCH 45 58
ATOM     58  O4  BGC C   5      26.911  14.459   6.0720  0.00  0.00     0.000 O
BRANCH 58 62
ATOM     59  C1  BGC C   5      28.977  16.232   4.6790  0.00  0.00     0.000 C
ATOM     60  C2  BGC C   5      28.035  17.126   5.3170  0.00  0.00     0.000 C
ATOM     61  C3  BGC C   5      26.576  16.724   5.1160  0.00  0.00     0.000 C
ATOM     62  C4  BGC C   5      26.504  15.218   4.9070  0.00  0.00     0.000 C
ATOM     63  C5  BGC C   5      27.598  14.847   3.9320  0.00  0.00     0.000 C
ATOM     64  O5  BGC C   5      28.629  15.800   3.6780  0.00  0.00     0.000 O
ATOM     65   O  BGC C   5      26.349  15.438   1.9510  0.00  0.00     0.000 O
ATOM     67  HD  BGC C   5      26.578  14.812   2.5040  0.00  0.00     0.000 HD
ATOM     67   O  BGC C   5      26.349  15.438   1.9510  0.00  0.00     0.000 O
ATOM     69  HD  BGC C   5      26.578  14.812   2.5040  0.00  0.00     0.000 HD
ENDBRANCH 58 62
ENDBRANCH 45 58
ENDBRANCH 44 48
ENDBRANCH 31 44
ENDBRANCH 30 34
ENDBRANCH 17 30
ENDBRANCH 16 20
ENDBRANCH 1 16
TORSDOF 8
ENDMDL
MODEL 20
REMARK VINA RESULT:      -3.8      3.459     14.953
ROOT
ATOM      1  C1  BGC C   1      25.210   8.328   6.4320  0.00  0.00     0.000 C
ATOM      2  C2  BGC C   1      26.385   8.629   5.5020  0.00  0.00     0.000 C
ATOM      3  C3  BGC C   1      27.694   8.571   6.2790  0.00  0.00     0.000 C
ATOM      4  C4  BGC C   1      27.647   9.405   7.5480  0.00  0.00     0.000 C
ATOM      5  C5  BGC C   1      26.355   9.131   8.3130  0.00  0.00     0.000 C
ATOM      6  O5  BGC C   1      25.213   9.172   7.5180  0.00  0.00     0.000 O
ATOM      7   O  BGC C   1      26.377   7.657   4.4830  0.00  0.00     0.000 O
ATOM      9  HD  BGC C   1      26.781   8.423   4.4600  0.00  0.00     0.000 HD
ATOM      9   O  BGC C   1      28.750   8.986   5.4020  0.00  0.00     0.000 O
ATOM     11  HD  BGC C   1      29.154   9.752   5.3790  0.00  0.00     0.000 HD
ATOM     11   O  BGC C   1      28.786   9.043   8.3210  0.00  0.00     0.000 O
ATOM     13  HD  BGC C   1      29.190   9.809   8.2980  0.00  0.00     0.000 HD
ATOM     13   O  BGC C   1      25.975  11.515   8.8720  0.00  0.00     0.000 O
ATOM     15  HD  BGC C   1      26.379  12.280   8.8490  0.00  0.00     0.000 HD
ATOM     15   C  BGC C   1      26.221  10.191   9.4220  0.00  0.00     0.000 C
ENDROOT
BRANCH 1 16
ATOM     16  O4  BGC C   2      24.010   8.561   5.7320  0.00  0.00     0.000 O
BRANCH 16 20
ATOM     17  C1  BGC C   2      20.211   7.066   5.6820  0.00  0.00     0.000 C
ATOM     18  C2  BGC C   2      20.483   8.156   6.7070  0.00  0.00     0.000 C
ATOM     19  C3  BGC C   2      21.786   8.877   6.3950  0.00  0.00     0.000 C
ATOM     20  C4  BGC C   2      22.881   7.879   6.2220  0.00  0.00     0.000 C
ATOM     21  C5  BGC C   2      22.478   6.789   5.2340  0.00  0.00     0.000 C
ATOM     22  O5  BGC C   2      21.287   6.174   5.6260  0.00  0.00     0.000 O
ATOM     23   O  BGC C   2      19.384   9.080   6.7030  0.00  0.00     0.000 O
ATOM     25  HD  BGC C   2      19.679   9.892   6.7740  0.00  0.00     0.000 HD
ATOM     25   O  BGC C   2      22.102   9.757   7.4670  0.00  0.00     0.000 O
ATOM     27  HD  BGC C   2      22.396  10.569   7.5380  0.00  0.00     0.000 HD
ATOM     27   C  BGC C   2      23.544   5.697   5.0060  0.00  0.00     0.000 C
ATOM     28   O  BGC C   2      23.957   5.105   6.2480  0.00  0.00     0.000 O
ATOM     30  HD  BGC C   2      24.251   5.917   6.3190  0.00  0.00     0.000 HD
BRANCH 17 30
ATOM     30  O4  BGC C   3      19.054   6.350   6.0600  0.00  0.00     0.000 O
BRANCH 30 34
ATOM     31  C1  BGC C   3      16.120   4.043   4.5080  0.00  0.00     0.000 C
ATOM     32  C2  BGC C   3      17.490   3.348   4.6990  0.00  0.00     0.000 C
ATOM     33  C3  BGC C   3      18.383   4.152   5.5790  0.00  0.00     0.000 C
ATOM     34  C4  BGC C   3      18.430   5.584   5.0400  0.00  0.00     0.000 C
ATOM     35  C5  BGC C   3      17.033   6.188   4.7480  0.00  0.00     0.000 C
ATOM     36  O5  BGC C   3      16.289   5.315   3.9340  0.00  0.00     0.000 O
ATOM     37   O  BGC C   3      17.508   2.027   5.2080  0.00  0.00     0.000 O
ATOM     39  HD  BGC C   3      17.894   2.803   5.2040  0.00  0.00     0.000 HD
ATOM     39   O  BGC C   3      19.715   3.561   5.6190  0.00  0.00     0.000 O
ATOM     41  HD  BGC C   3      20.101   4.337   5.6160  0.00  0.00     0.000 HD
ATOM     41   C  BGC C   3      17.047   7.559   4.0340  0.00  0.00     0.000 C
ATOM     42   O  BGC C   3      17.618   7.553   2.6760  0.00  0.00     0.000 O
ATOM     44  HD  BGC C   3      18.003   8.329   2.6730  0.00  0.00     0.000 HD
BRANCH 31 44
ATOM     44  O4  BGC C   4      15.290   3.289   3.6890  0.00  0.00     0.000 O
BRANCH 44 48
ATOM     45  C1  BGC C   4      11.443   1.997   3.1540  0.00  0.00     0.000 C
ATOM     46  C2  BGC C   4      11.653   3.423   2.5510  0.00  0.00     0.000 C
ATOM     47  C3  BGC C   4      13.181   3.559   2.5830  0.00  0.00     0.000 C
ATOM     48  C4  BGC C   4      13.907   3.274   3.8830  0.00  0.00     0.000 C
ATOM     49  C5  BGC C   4      13.536   1.834   4.2730  0.00  0.00     0.000 C
ATOM     50  O5  BGC C   4      12.162   1.678   4.3550  0.00  0.00     0.000 O
ATOM     51   O  BGC C   4      11.181   3.813   1.1390  0.00  0.00     0.000 O
ATOM     53  HD  BGC C   4      11.474   4.596   0.9120  0.00  0.00     0.000 HD
ATOM     53   O  BGC C   4      13.308   5.048   2.4070  0.00  0.00     0.000 O
ATOM     55  HD  BGC C   4      13.601   5.830   2.1800  0.00  0.00     0.000 HD
ATOM     55   C  BGC C   4      14.066   1.481   5.6390  0.00  0.00     0.000 C
ATOM     56   O  BGC C   4      13.660   2.350   6.7030  0.00  0.00     0.000 O
ATOM     58  HD  BGC C   4      13.954   3.132   6.4760  0.00  0.00     0.000 HD
BRANCH 45 58
ATOM     58  O4  BGC C   5      10.101   1.742   3.4490  0.00  0.00     0.000 O
BRANCH 58 62
ATOM     59  C1  BGC C   5       7.212   2.286   4.2900  0.00  0.00     0.000 C
ATOM     60  C2  BGC C   5       7.975   3.454   4.6700  0.00  0.00     0.000 C
ATOM     61  C3  BGC C   5       9.303   3.126   5.3470  0.00  0.00     0.000 C
ATOM     62  C4  BGC C   5       9.781   1.765   4.8620  0.00  0.00     0.000 C
ATOM     63  C5  BGC C   5       8.591   0.833   4.8970  0.00  0.00     0.000 C
ATOM     64  O5  BGC C   5       7.289   1.403   5.0170  0.00  0.00     0.000 O
ATOM     65   O  BGC C   5       8.759   0.335   7.2550  0.00  0.00     0.000 O
ATOM     67  HD  BGC C   5       8.966   0.100   6.4480  0.00  0.00     0.000 HD
ATOM     67   O  BGC C   5       8.759   0.335   7.2550  0.00  0.00     0.000 O
ATOM     69  HD  BGC C   5       8.966   0.100   6.4480  0.00  0.00     0.000 HD
ENDBRANCH 58 62
ENDBRANCH 45 58
ENDBRANCH 44 48
ENDBRANCH 31 44
ENDBRANCH 30 34
ENDBRANCH 17 30
ENDBRANCH 16 20
ENDBRANCH 1 16
TORSDOF 8
ENDMDL
MODEL 21
REMARK VINA RESULT:      -3.7      5.456     10.220
ROOT
ATOM      1  C1  BGC C   1      14.646   4.149   3.1330  0.00  0.00     0.000 C
ATOM      2  C2  BGC C   1      14.074   4.296   1.7230  0.00  0.00     0.000 C
ATOM      3  C3  BGC C   1      12.555   4.183   1.7620  0.00  0.00     0.000 C
ATOM      4  C4  BGC C   1      12.088   2.952   2.5220  0.00  0.00     0.000 C
ATOM      5  C5  BGC C   1      12.843   2.829   3.8420  0.00  0.00     0.000 C
ATOM      6  O5  BGC C   1      14.222   2.978   3.7180  0.00  0.00     0.000 O
ATOM      7   O  BGC C   1      14.458   5.561   1.2410  0.00  0.00     0.000 O
ATOM      9  HD  BGC C   1      14.189   4.889   0.7650  0.00  0.00     0.000 HD
ATOM      9   O  BGC C   1      12.073   4.194   0.4110  0.00  0.00     0.000 O
ATOM     11  HD  BGC C   1      11.804   3.522  -0.0650  0.00  0.00     0.000 HD
ATOM     11   O  BGC C   1      10.691   3.109   2.7430  0.00  0.00     0.000 O
ATOM     13  HD  BGC C   1      10.422   2.438   2.2670  0.00  0.00     0.000 HD
ATOM     13   O  BGC C   1      13.153   0.380   3.6390  0.00  0.00     0.000 O
ATOM     15  HD  BGC C   1      12.883  -0.292   3.1640  0.00  0.00     0.000 HD
ATOM     15   C  BGC C   1      12.551   1.439   4.4350  0.00  0.00     0.000 C
ENDROOT
BRANCH 1 16
ATOM     16  O4  BGC C   2      16.049   4.081   3.0450  0.00  0.00     0.000 O
BRANCH 16 20
ATOM     17  C1  BGC C   2      19.298   5.257   5.2220  0.00  0.00     0.000 C
ATOM     18  C2  BGC C   2      18.581   4.011   5.7180  0.00  0.00     0.000 C
ATOM     19  C3  BGC C   2      17.641   3.469   4.6510  0.00  0.00     0.000 C
ATOM     20  C4  BGC C   2      16.751   4.564   4.1650  0.00  0.00     0.000 C
ATOM     21  C5  BGC C   2      17.563   5.792   3.7660  0.00  0.00     0.000 C
ATOM     22  O5  BGC C   2      18.368   6.223   4.8210  0.00  0.00     0.000 O
ATOM     23   O  BGC C   2      19.560   3.023   6.0720  0.00  0.00     0.000 O
ATOM     25  HD  BGC C   2      19.298   2.239   5.8150  0.00  0.00     0.000 HD
ATOM     25   O  BGC C   2      16.855   2.422   5.2080  0.00  0.00     0.000 O
ATOM     27  HD  BGC C   2      16.593   1.638   4.9510  0.00  0.00     0.000 HD
ATOM     27   C  BGC C   2      16.723   6.987   3.2680  0.00  0.00     0.000 C
ATOM     28   O  BGC C   2      15.717   7.352   4.2270  0.00  0.00     0.000 O
ATOM     30  HD  BGC C   2      15.455   6.568   3.9690  0.00  0.00     0.000 HD
BRANCH 17 30
ATOM     30  O4  BGC C   3      20.079   5.792   6.2680  0.00  0.00     0.000 O
BRANCH 30 34
ATOM     31  C1  BGC C   3      23.620   7.630   6.9160  0.00  0.00     0.000 C
ATOM     32  C2  BGC C   3      22.455   8.552   6.4830  0.00  0.00     0.000 C
ATOM     33  C3  BGC C   3      21.144   7.858   6.6070  0.00  0.00     0.000 C
ATOM     34  C4  BGC C   3      21.238   6.514   5.8800  0.00  0.00     0.000 C
ATOM     35  C5  BGC C   3      22.492   5.684   6.2600  0.00  0.00     0.000 C
ATOM     36  O5  BGC C   3      23.650   6.469   6.1240  0.00  0.00     0.000 O
ATOM     37   O  BGC C   3      22.311   9.802   7.1300  0.00  0.00     0.000 O
ATOM     39  HD  BGC C   3      21.906   9.117   6.7890  0.00  0.00     0.000 HD
ATOM     39   O  BGC C   3      20.081   8.684   6.0490  0.00  0.00     0.000 O
ATOM     41  HD  BGC C   3      19.676   7.999   5.7080  0.00  0.00     0.000 HD
ATOM     41   C  BGC C   3      22.715   4.409   5.4140  0.00  0.00     0.000 C
ATOM     42   O  BGC C   3      22.981   4.644   3.9850  0.00  0.00     0.000 O
ATOM     44  HD  BGC C   3      22.575   3.958   3.6430  0.00  0.00     0.000 HD
BRANCH 31 44
ATOM     44  O4  BGC C   4      24.841   8.282   6.8000  0.00  0.00     0.000 O
BRANCH 44 48
ATOM     45  C1  BGC C   4      28.517   8.823   8.5190  0.00  0.00     0.000 C
ATOM     46  C2  BGC C   4      28.384   7.396   7.8970  0.00  0.00     0.000 C
ATOM     47  C3  BGC C   4      27.101   7.529   7.0670  0.00  0.00     0.000 C
ATOM     48  C4  BGC C   4      25.858   8.081   7.7360  0.00  0.00     0.000 C
ATOM     49  C5  BGC C   4      26.241   9.470   8.2710  0.00  0.00     0.000 C
ATOM     50  O5  BGC C   4      27.340   9.395   9.1100  0.00  0.00     0.000 O
ATOM     51   O  BGC C   4      29.461   6.773   6.9920  0.00  0.00     0.000 O
ATOM     53  HD  BGC C   4      29.188   6.032   6.6360  0.00  0.00     0.000 HD
ATOM     53   O  BGC C   4      26.788   6.075   6.8450  0.00  0.00     0.000 O
ATOM     55  HD  BGC C   4      26.514   5.334   6.4890  0.00  0.00     0.000 HD
ATOM     55   C  BGC C   4      25.134  10.061   9.1070  0.00  0.00     0.000 C
ATOM     56   O  BGC C   4      24.699   9.262  10.2130  0.00  0.00     0.000 O
ATOM     58  HD  BGC C   4      24.425   8.521   9.8570  0.00  0.00     0.000 HD
BRANCH 45 58
ATOM     58  O4  BGC C   5      29.493   8.875   9.5160  0.00  0.00     0.000 O
BRANCH 58 62
ATOM     59  C1  BGC C   5      31.818   8.938  11.5020  0.00  0.00     0.000 C
ATOM     60  C2  BGC C   5      31.364  10.305  11.3600  0.00  0.00     0.000 C
ATOM     61  C3  BGC C   5      31.107  10.717   9.9130  0.00  0.00     0.000 C
ATOM     62  C4  BGC C   5      30.744   9.480   9.1050  0.00  0.00     0.000 C
ATOM     63  C5  BGC C   5      31.723   8.393   9.4840  0.00  0.00     0.000 C
ATOM     64  O5  BGC C   5      32.505   8.569  10.6630  0.00  0.00     0.000 O
ATOM     65   O  BGC C   5      33.485   9.149   8.0150  0.00  0.00     0.000 O
ATOM     67  HD  BGC C   5      32.804   8.624   8.1210  0.00  0.00     0.000 HD
ATOM     67   O  BGC C   5      33.485   9.149   8.0150  0.00  0.00     0.000 O
ATOM     69  HD  BGC C   5      32.804   8.624   8.1210  0.00  0.00     0.000 HD
ENDBRANCH 58 62
ENDBRANCH 45 58
ENDBRANCH 44 48
ENDBRANCH 31 44
ENDBRANCH 30 34
ENDBRANCH 17 30
ENDBRANCH 16 20
ENDBRANCH 1 16
TORSDOF 8
ENDMDL
MODEL 22
REMARK VINA RESULT:      -3.7      7.175     16.223
ROOT
ATOM      1  C1  BGC C   1      25.058  15.397   3.3060  0.00  0.00     0.000 C
ATOM      2  C2  BGC C   1      25.982  15.735   4.4750  0.00  0.00     0.000 C
ATOM      3  C3  BGC C   1      26.341  17.216   4.4450  0.00  0.00     0.000 C
ATOM      4  C4  BGC C   1      26.840  17.659   3.0800  0.00  0.00     0.000 C
ATOM      5  C5  BGC C   1      25.920  17.130   1.9840  0.00  0.00     0.000 C
ATOM      6  O5  BGC C   1      25.619  15.776   2.1080  0.00  0.00     0.000 O
ATOM      7   O  BGC C   1      25.294  15.423   5.6630  0.00  0.00     0.000 O
ATOM      9  HD  BGC C   1      26.149  15.528   5.5770  0.00  0.00     0.000 HD
ATOM      9   O  BGC C   1      27.309  17.460   5.4750  0.00  0.00     0.000 O
ATOM     11  HD  BGC C   1      28.164  17.566   5.3900  0.00  0.00     0.000 HD
ATOM     11   O  BGC C   1      26.858  19.082   3.0900  0.00  0.00     0.000 O
ATOM     13  HD  BGC C   1      27.714  19.188   3.0050  0.00  0.00     0.000 HD
ATOM     13   O  BGC C   1      27.785  16.511   0.4750  0.00  0.00     0.000 O
ATOM     15  HD  BGC C   1      28.640  16.617   0.3890  0.00  0.00     0.000 HD
ATOM     15   C  BGC C   1      26.611  17.356   0.6270  0.00  0.00     0.000 C
ENDROOT
BRANCH 1 16
ATOM     16  O4  BGC C   2      24.887  14.000   3.2570  0.00  0.00     0.000 O
BRANCH 16 20
ATOM     17  C1  BGC C   2      21.965  11.337   2.2330  0.00  0.00     0.000 C
ATOM     18  C2  BGC C   2      22.775  11.911   1.0810  0.00  0.00     0.000 C
ATOM     19  C3  BGC C   2      24.039  12.585   1.5930  0.00  0.00     0.000 C
ATOM     20  C4  BGC C   2      23.687  13.557   2.6690  0.00  0.00     0.000 C
ATOM     21  C5  BGC C   2      22.812  12.902   3.7340  0.00  0.00     0.000 C
ATOM     22  O5  BGC C   2      21.669  12.340   3.1630  0.00  0.00     0.000 O
ATOM     23   O  BGC C   2      23.105  10.849   0.1730  0.00  0.00     0.000 O
ATOM     25  HD  BGC C   2      23.918  10.942  -0.1100  0.00  0.00     0.000 HD
ATOM     25   O  BGC C   2      24.674  13.267   0.5180  0.00  0.00     0.000 O
ATOM     27  HD  BGC C   2      25.487  13.360   0.2350  0.00  0.00     0.000 HD
ATOM     27   C  BGC C   2      22.380  13.839   4.8810  0.00  0.00     0.000 C
ATOM     28   O  BGC C   2      21.737  15.020   4.3740  0.00  0.00     0.000 O
ATOM     30  HD  BGC C   2      22.550  15.113   4.0910  0.00  0.00     0.000 HD
BRANCH 17 30
ATOM     30  O4  BGC C   3      20.752  10.814   1.7350  0.00  0.00     0.000 O
BRANCH 30 34
ATOM     31  C1  BGC C   3      17.605   8.611   2.9910  0.00  0.00     0.000 C
ATOM     32  C2  BGC C   3      17.421  10.146   3.0630  0.00  0.00     0.000 C
ATOM     33  C3  BGC C   3      18.466  10.851   2.2710  0.00  0.00     0.000 C
ATOM     34  C4  BGC C   3      19.837  10.322   2.7020  0.00  0.00     0.000 C
ATOM     35  C5  BGC C   3      19.928   8.775   2.7320  0.00  0.00     0.000 C
ATOM     36  O5  BGC C   3      18.868   8.243   3.4870  0.00  0.00     0.000 O
ATOM     37   O  BGC C   3      16.178  10.693   2.6640  0.00  0.00     0.000 O
ATOM     39  HD  BGC C   3      17.039  10.789   2.6680  0.00  0.00     0.000 HD
ATOM     39   O  BGC C   3      18.370  12.291   2.4790  0.00  0.00     0.000 O
ATOM     41  HD  BGC C   3      19.231  12.387   2.4820  0.00  0.00     0.000 HD
ATOM     41   C  BGC C   3      21.233   8.207   3.3350  0.00  0.00     0.000 C
ATOM     42   O  BGC C   3      21.449   8.508   4.7600  0.00  0.00     0.000 O
ATOM     44  HD  BGC C   3      22.310   8.604   4.7640  0.00  0.00     0.000 HD
BRANCH 31 44
ATOM     44  O4  BGC C   4      16.627   7.957   3.7290  0.00  0.00     0.000 O
BRANCH 44 48
ATOM     45  C1  BGC C   4      14.282   4.607   3.9230  0.00  0.00     0.000 C
ATOM     46  C2  BGC C   4      15.800   4.239   3.9060  0.00  0.00     0.000 C
ATOM     47  C3  BGC C   4      16.460   5.603   4.1450  0.00  0.00     0.000 C
ATOM     48  C4  BGC C   4      16.050   6.771   3.2700  0.00  0.00     0.000 C
ATOM     49  C5  BGC C   4      14.531   6.925   3.4470  0.00  0.00     0.000 C
ATOM     50  O5  BGC C   4      13.873   5.744   3.1470  0.00  0.00     0.000 O
ATOM     51   O  BGC C   4      16.430   3.238   4.8910  0.00  0.00     0.000 O
ATOM     53  HD  BGC C   4      17.294   3.232   4.8290  0.00  0.00     0.000 HD
ATOM     53   O  BGC C   4      17.864   5.287   3.7080  0.00  0.00     0.000 O
ATOM     55  HD  BGC C   4      18.728   5.281   3.6450  0.00  0.00     0.000 HD
ATOM     55   C  BGC C   4      13.970   7.953   2.4990  0.00  0.00     0.000 C
ATOM     56   O  BGC C   4      14.236   7.726   1.1100  0.00  0.00     0.000 O
ATOM     58  HD  BGC C   4      15.100   7.720   1.0470  0.00  0.00     0.000 HD
BRANCH 45 58
ATOM     58  O4  BGC C   5      13.478   3.553   3.4830  0.00  0.00     0.000 O
BRANCH 58 62
ATOM     59  C1  BGC C   5      11.037   1.727   3.2420  0.00  0.00     0.000 C
ATOM     60  C2  BGC C   5      11.744   1.633   1.9830  0.00  0.00     0.000 C
ATOM     61  C3  BGC C   5      12.201   2.982   1.4340  0.00  0.00     0.000 C
ATOM     62  C4  BGC C   5      12.402   3.944   2.5960  0.00  0.00     0.000 C
ATOM     63  C5  BGC C   5      11.211   3.795   3.5140  0.00  0.00     0.000 C
ATOM     64  O5  BGC C   5      10.372   2.653   3.3520  0.00  0.00     0.000 O
ATOM     65   O  BGC C   5       9.755   5.239   2.2360  0.00  0.00     0.000 O
ATOM     67  HD  BGC C   5      10.316   5.171   2.8930  0.00  0.00     0.000 HD
ATOM     67   O  BGC C   5       9.755   5.239   2.2360  0.00  0.00     0.000 O
ATOM     69  HD  BGC C   5      10.316   5.171   2.8930  0.00  0.00     0.000 HD
ENDBRANCH 58 62
ENDBRANCH 45 58
ENDBRANCH 44 48
ENDBRANCH 31 44
ENDBRANCH 30 34
ENDBRANCH 17 30
ENDBRANCH 16 20
ENDBRANCH 1 16
TORSDOF 8
ENDMDL
MODEL 23
REMARK VINA RESULT:      -3.6      2.237      5.029
ROOT
ATOM      1  C1  BGC C   1       9.195   5.160   3.7870  0.00  0.00     0.000 C
ATOM      2  C2  BGC C   1       8.364   5.943   2.7710  0.00  0.00     0.000 C
ATOM      3  C3  BGC C   1       6.986   6.247   3.3460  0.00  0.00     0.000 C
ATOM      4  C4  BGC C   1       6.313   5.006   3.9100  0.00  0.00     0.000 C
ATOM      5  C5  BGC C   1       7.291   4.226   4.7840  0.00  0.00     0.000 C
ATOM      6  O5  BGC C   1       8.534   4.023   4.1920  0.00  0.00     0.000 O
ATOM      7   O  BGC C   1       9.053   7.140   2.4940  0.00  0.00     0.000 O
ATOM      9  HD  BGC C   1       8.432   6.780   2.0090  0.00  0.00     0.000 HD
ATOM      9   O  BGC C   1       6.200   6.863   2.3170  0.00  0.00     0.000 O
ATOM     11  HD  BGC C   1       5.580   6.503   1.8320  0.00  0.00     0.000 HD
ATOM     11   O  BGC C   1       5.194   5.454   4.6680  0.00  0.00     0.000 O
ATOM     13  HD  BGC C   1       4.574   5.094   4.1830  0.00  0.00     0.000 HD
ATOM     13   O  BGC C   1       6.584   2.019   3.9060  0.00  0.00     0.000 O
ATOM     15  HD  BGC C   1       5.964   1.659   3.4210  0.00  0.00     0.000 HD
ATOM     15   C  BGC C   1       6.665   2.854   5.0950  0.00  0.00     0.000 C
ENDROOT
BRANCH 1 16
ATOM     16  O4  BGC C   2      10.389   4.744   3.1670  0.00  0.00     0.000 O
BRANCH 16 20
ATOM     17  C1  BGC C   2      14.174   3.674   4.2620  0.00  0.00     0.000 C
ATOM     18  C2  BGC C   2      13.102   2.614   4.4570  0.00  0.00     0.000 C
ATOM     19  C3  BGC C   2      11.837   2.980   3.6930  0.00  0.00     0.000 C
ATOM     20  C4  BGC C   2      11.427   4.371   4.0410  0.00  0.00     0.000 C
ATOM     21  C5  BGC C   2      12.595   5.341   3.8850  0.00  0.00     0.000 C
ATOM     22  O5  BGC C   2      13.690   4.929   4.6450  0.00  0.00     0.000 O
ATOM     23   O  BGC C   2      13.612   1.350   4.0070  0.00  0.00     0.000 O
ATOM     25  HD  BGC C   2      12.996   0.916   3.5800  0.00  0.00     0.000 HD
ATOM     25   O  BGC C   2      10.800   2.071   4.0430  0.00  0.00     0.000 O
ATOM     27  HD  BGC C   2      10.184   1.637   3.6160  0.00  0.00     0.000 HD
ATOM     27   C  BGC C   2      12.269   6.806   4.2440  0.00  0.00     0.000 C
ATOM     28   O  BGC C   2      11.718   6.908   5.5660  0.00  0.00     0.000 O
ATOM     30  HD  BGC C   2      11.102   6.474   5.1390  0.00  0.00     0.000 HD
BRANCH 17 30
ATOM     30  O4  BGC C   3      15.292   3.358   5.0650  0.00  0.00     0.000 O
BRANCH 30 34
ATOM     31  C1  BGC C   3      19.176   4.459   4.8660  0.00  0.00     0.000 C
ATOM     32  C2  BGC C   3      18.468   4.736   6.2140  0.00  0.00     0.000 C
ATOM     33  C3  BGC C   3      17.179   3.996   6.3080  0.00  0.00     0.000 C
ATOM     34  C4  BGC C   3      16.359   4.294   5.0500  0.00  0.00     0.000 C
ATOM     35  C5  BGC C   3      17.154   4.121   3.7300  0.00  0.00     0.000 C
ATOM     36  O5  BGC C   3      18.357   4.847   3.7910  0.00  0.00     0.000 O
ATOM     37   O  BGC C   3      19.173   4.466   7.4110  0.00  0.00     0.000 O
ATOM     39  HD  BGC C   3      18.409   4.444   7.0060  0.00  0.00     0.000 HD
ATOM     39   O  BGC C   3      16.457   4.391   7.5110  0.00  0.00     0.000 O
ATOM     41  HD  BGC C   3      15.693   4.368   7.1060  0.00  0.00     0.000 HD
ATOM     41   C  BGC C   3      16.416   4.587   2.4540  0.00  0.00     0.000 C
ATOM     42   O  BGC C   3      16.119   6.029   2.3930  0.00  0.00     0.000 O
ATOM     44  HD  BGC C   3      15.354   6.006   1.9870  0.00  0.00     0.000 HD
BRANCH 31 44
ATOM     44  O4  BGC C   4      20.378   5.150   4.7840  0.00  0.00     0.000 O
BRANCH 44 48
ATOM     45  C1  BGC C   4      24.339   4.725   3.8410  0.00  0.00     0.000 C
ATOM     46  C2  BGC C   4      23.515   5.242   2.6180  0.00  0.00     0.000 C
ATOM     47  C3  BGC C   4      22.178   5.615   3.2710  0.00  0.00     0.000 C
ATOM     48  C4  BGC C   4      21.489   4.589   4.1500  0.00  0.00     0.000 C
ATOM     49  C5  BGC C   4      22.492   4.234   5.2590  0.00  0.00     0.000 C
ATOM     50  O5  BGC C   4      23.692   3.795   4.7230  0.00  0.00     0.000 O
ATOM     51   O  BGC C   4      23.959   6.436   1.7530  0.00  0.00     0.000 O
ATOM     53  HD  BGC C   4      23.341   6.669   1.1930  0.00  0.00     0.000 HD
ATOM     53   O  BGC C   4      21.309   5.695   2.0460  0.00  0.00     0.000 O
ATOM     55  HD  BGC C   4      20.691   5.928   1.4850  0.00  0.00     0.000 HD
ATOM     55   C  BGC C   4      21.990   3.097   6.1100  0.00  0.00     0.000 C
ATOM     56   O  BGC C   4      21.659   1.895   5.4060  0.00  0.00     0.000 O
ATOM     58  HD  BGC C   4      21.042   2.128   4.8460  0.00  0.00     0.000 HD
BRANCH 45 58
ATOM     58  O4  BGC C   5      25.525   4.099   3.4500  0.00  0.00     0.000 O
BRANCH 58 62
ATOM     59  C1  BGC C   5      28.441   3.185   3.3270  0.00  0.00     0.000 C
ATOM     60  C2  BGC C   5      27.652   2.112   2.7620  0.00  0.00     0.000 C
ATOM     61  C3  BGC C   5      26.400   1.781   3.5710  0.00  0.00     0.000 C
ATOM     62  C4  BGC C   5      25.955   3.026   4.3240  0.00  0.00     0.000 C
ATOM     63  C5  BGC C   5      27.190   3.642   4.9410  0.00  0.00     0.000 C
ATOM     64  O5  BGC C   5      28.466   3.213   4.4710  0.00  0.00     0.000 O
ATOM     65   O  BGC C   5      27.235   2.184   6.8670  0.00  0.00     0.000 O
ATOM     67  HD  BGC C   5      26.977   2.942   6.5370  0.00  0.00     0.000 HD
ATOM     67   O  BGC C   5      27.235   2.184   6.8670  0.00  0.00     0.000 O
ATOM     69  HD  BGC C   5      26.977   2.942   6.5370  0.00  0.00     0.000 HD
ENDBRANCH 58 62
ENDBRANCH 45 58
ENDBRANCH 44 48
ENDBRANCH 31 44
ENDBRANCH 30 34
ENDBRANCH 17 30
ENDBRANCH 16 20
ENDBRANCH 1 16
TORSDOF 8
ENDMDL
MODEL 24
REMARK VINA RESULT:      -3.5      4.464      8.344
ROOT
ATOM      1  C1  BGC C   1      13.156   2.700   5.7470  0.00  0.00     0.000 C
ATOM      2  C2  BGC C   1      12.098   2.875   6.8350  0.00  0.00     0.000 C
ATOM      3  C3  BGC C   1      11.030   1.795   6.7040  0.00  0.00     0.000 C
ATOM      4  C4  BGC C   1      10.488   1.692   5.2880  0.00  0.00     0.000 C
ATOM      5  C5  BGC C   1      11.636   1.681   4.2820  0.00  0.00     0.000 C
ATOM      6  O5  BGC C   1      12.580   2.681   4.4970  0.00  0.00     0.000 O
ATOM      7   O  BGC C   1      12.749   2.771   8.0790  0.00  0.00     0.000 O
ATOM      9  HD  BGC C   1      11.971   3.124   7.9340  0.00  0.00     0.000 HD
ATOM      9   O  BGC C   1       9.995   2.075   7.6560  0.00  0.00     0.000 O
ATOM     11  HD  BGC C   1       9.218   2.429   7.5110  0.00  0.00     0.000 HD
ATOM     11   O  BGC C   1       9.738   0.484   5.2220  0.00  0.00     0.000 O
ATOM     13  HD  BGC C   1       8.961   0.838   5.0760  0.00  0.00     0.000 HD
ATOM     13   O  BGC C   1      10.488   3.195   2.6930  0.00  0.00     0.000 O
ATOM     15  HD  BGC C   1       9.711   3.549   2.5470  0.00  0.00     0.000 HD
ATOM     15   C  BGC C   1      11.041   1.862   2.8740  0.00  0.00     0.000 C
ENDROOT
BRANCH 1 16
ATOM     16  O4  BGC C   2      14.026   3.806   5.7830  0.00  0.00     0.000 O
BRANCH 16 20
ATOM     17  C1  BGC C   2      17.611   4.900   4.1610  0.00  0.00     0.000 C
ATOM     18  C2  BGC C   2      16.393   5.083   3.2680  0.00  0.00     0.000 C
ATOM     19  C3  BGC C   2      15.110   4.996   4.0810  0.00  0.00     0.000 C
ATOM     20  C4  BGC C   2      15.118   3.747   4.8970  0.00  0.00     0.000 C
ATOM     21  C5  BGC C   2      16.413   3.622   5.6940  0.00  0.00     0.000 C
ATOM     22  O5  BGC C   2      17.525   3.687   4.8530  0.00  0.00     0.000 O
ATOM     23   O  BGC C   2      16.487   6.357   2.6130  0.00  0.00     0.000 O
ATOM     25  HD  BGC C   2      15.709   6.737   2.5890  0.00  0.00     0.000 HD
ATOM     25   O  BGC C   2      13.996   4.986   3.1960  0.00  0.00     0.000 O
ATOM     27  HD  BGC C   2      13.218   5.366   3.1730  0.00  0.00     0.000 HD
ATOM     27   C  BGC C   2      16.521   2.346   6.5550  0.00  0.00     0.000 C
ATOM     28   O  BGC C   2      16.314   1.165   5.7640  0.00  0.00     0.000 O
ATOM     30  HD  BGC C   2      15.536   1.545   5.7400  0.00  0.00     0.000 HD
BRANCH 17 30
ATOM     30  O4  BGC C   3      18.775   4.881   3.3630  0.00  0.00     0.000 O
BRANCH 30 34
ATOM     31  C1  BGC C   3      22.541   6.341   3.2300  0.00  0.00     0.000 C
ATOM     32  C2  BGC C   3      22.310   5.171   4.2160  0.00  0.00     0.000 C
ATOM     33  C3  BGC C   3      21.015   4.487   3.9450  0.00  0.00     0.000 C
ATOM     34  C4  BGC C   3      19.911   5.546   3.8940  0.00  0.00     0.000 C
ATOM     35  C5  BGC C   3      20.248   6.757   2.9880  0.00  0.00     0.000 C
ATOM     36  O5  BGC C   3      21.504   7.285   3.3330  0.00  0.00     0.000 O
ATOM     37   O  BGC C   3      23.292   4.155   4.2970  0.00  0.00     0.000 O
ATOM     39  HD  BGC C   3      22.446   4.342   4.3070  0.00  0.00     0.000 HD
ATOM     39   O  BGC C   3      20.744   3.494   4.9780  0.00  0.00     0.000 O
ATOM     41  HD  BGC C   3      19.898   3.680   4.9890  0.00  0.00     0.000 HD
ATOM     41   C  BGC C   3      19.240   7.927   3.0540  0.00  0.00     0.000 C
ATOM     42   O  BGC C   3      19.143   8.598   4.3620  0.00  0.00     0.000 O
ATOM     44  HD  BGC C   3      18.298   8.785   4.3720  0.00  0.00     0.000 HD
BRANCH 31 44
ATOM     44  O4  BGC C   4      23.750   6.975   3.4850  0.00  0.00     0.000 O
BRANCH 44 48
ATOM     45  C1  BGC C   4      26.996   8.771   1.7530  0.00  0.00     0.000 C
ATOM     46  C2  BGC C   4      25.780   9.748   1.8320  0.00  0.00     0.000 C
ATOM     47  C3  BGC C   4      24.826   8.993   2.7670  0.00  0.00     0.000 C
ATOM     48  C4  BGC C   4      24.496   7.547   2.4520  0.00  0.00     0.000 C
ATOM     49  C5  BGC C   4      25.839   6.800   2.4180  0.00  0.00     0.000 C
ATOM     50  O5  BGC C   4      26.710   7.384   1.5130  0.00  0.00     0.000 O
ATOM     51   O  BGC C   4      25.898  11.191   2.3550  0.00  0.00     0.000 O
ATOM     53  HD  BGC C   4      25.120  11.561   2.4450  0.00  0.00     0.000 HD
ATOM     53   O  BGC C   4      23.548   9.734   2.4810  0.00  0.00     0.000 O
ATOM     55  HD  BGC C   4      22.770  10.104   2.5710  0.00  0.00     0.000 HD
ATOM     55   C  BGC C   4      25.665   5.378   1.9510  0.00  0.00     0.000 C
ATOM     56   O  BGC C   4      25.032   5.218   0.6760  0.00  0.00     0.000 O
ATOM     58  HD  BGC C   4      24.254   5.587   0.7650  0.00  0.00     0.000 HD
BRANCH 45 58
ATOM     58  O4  BGC C   5      27.904   9.138   0.7570  0.00  0.00     0.000 O
BRANCH 58 62
ATOM     59  C1  BGC C   5      29.537  11.539   1.7180  0.00  0.00     0.000 C
ATOM     60  C2  BGC C   5      30.045  11.197   0.4070  0.00  0.00     0.000 C
ATOM     61  C3  BGC C   5      30.257   9.698   0.2050  0.00  0.00     0.000 C
ATOM     62  C4  BGC C   5      29.296   8.938   1.1070  0.00  0.00     0.000 C
ATOM     63  C5  BGC C   5      29.343   9.595   2.4670  0.00  0.00     0.000 C
ATOM     64  O5  BGC C   5      29.933  10.889   2.5730  0.00  0.00     0.000 O
ATOM     65   O  BGC C   5      31.340   8.453   3.2040  0.00  0.00     0.000 O
ATOM     67  HD  BGC C   5      30.474   8.463   3.1880  0.00  0.00     0.000 HD
ATOM     67   O  BGC C   5      31.340   8.453   3.2040  0.00  0.00     0.000 O
ATOM     69  HD  BGC C   5      30.474   8.463   3.1880  0.00  0.00     0.000 HD
ENDBRANCH 58 62
ENDBRANCH 45 58
ENDBRANCH 44 48
ENDBRANCH 31 44
ENDBRANCH 30 34
ENDBRANCH 17 30
ENDBRANCH 16 20
ENDBRANCH 1 16
TORSDOF 8
ENDMDL
MODEL 25
REMARK VINA RESULT:      -3.5      4.168      8.661
ROOT
ATOM      1  C1  BGC C   1      13.915   2.538   4.5240  0.00  0.00     0.000 C
ATOM      2  C2  BGC C   1      12.689   2.553   5.4370  0.00  0.00     0.000 C
ATOM      3  C3  BGC C   1      11.537   1.805   4.7760  0.00  0.00     0.000 C
ATOM      4  C4  BGC C   1      11.286   2.276   3.3530  0.00  0.00     0.000 C
ATOM      5  C5  BGC C   1      12.604   2.370   2.5880  0.00  0.00     0.000 C
ATOM      6  O5  BGC C   1      13.609   3.040   3.2800  0.00  0.00     0.000 O
ATOM      7   O  BGC C   1      13.053   1.925   6.6430  0.00  0.00     0.000 O
ATOM      9  HD  BGC C   1      12.376   2.451   6.5210  0.00  0.00     0.000 HD
ATOM      9   O  BGC C   1      10.376   1.956   5.6040  0.00  0.00     0.000 O
ATOM     11  HD  BGC C   1       9.699   2.482   5.4830  0.00  0.00     0.000 HD
ATOM     11   O  BGC C   1      10.412   1.326   2.7540  0.00  0.00     0.000 O
ATOM     13  HD  BGC C   1       9.735   1.853   2.6320  0.00  0.00     0.000 HD
ATOM     13   O  BGC C   1      12.016   4.512   1.4920  0.00  0.00     0.000 O
ATOM     15  HD  BGC C   1      11.339   5.038   1.3700  0.00  0.00     0.000 HD
ATOM     15   C  BGC C   1      12.338   3.112   1.2660  0.00  0.00     0.000 C
ENDROOT
BRANCH 1 16
ATOM     16  O4  BGC C   2      14.898   3.381   5.0770  0.00  0.00     0.000 O
BRANCH 16 20
ATOM     17  C1  BGC C   2      18.974   3.581   5.2180  0.00  0.00     0.000 C
ATOM     18  C2  BGC C   2      18.322   4.172   3.9780  0.00  0.00     0.000 C
ATOM     19  C3  BGC C   2      16.829   4.372   4.1970  0.00  0.00     0.000 C
ATOM     20  C4  BGC C   2      16.223   3.101   4.6900  0.00  0.00     0.000 C
ATOM     21  C5  BGC C   2      16.996   2.553   5.8860  0.00  0.00     0.000 C
ATOM     22  O5  BGC C   2      18.345   2.383   5.5710  0.00  0.00     0.000 O
ATOM     23   O  BGC C   2      18.956   5.423   3.6730  0.00  0.00     0.000 O
ATOM     25  HD  BGC C   2      18.364   6.004   3.4250  0.00  0.00     0.000 HD
ATOM     25   O  BGC C   2      16.223   4.749   2.9660  0.00  0.00     0.000 O
ATOM     27  HD  BGC C   2      15.631   5.329   2.7180  0.00  0.00     0.000 HD
ATOM     27   C  BGC C   2      16.451   1.226   6.4540  0.00  0.00     0.000 C
ATOM     28   O  BGC C   2      16.352   0.223   5.4300  0.00  0.00     0.000 O
ATOM     30  HD  BGC C   2      15.759   0.804   5.1820  0.00  0.00     0.000 HD
BRANCH 17 30
ATOM     30  O4  BGC C   3      20.333   3.312   4.9460  0.00  0.00     0.000 O
BRANCH 30 34
ATOM     31  C1  BGC C   3      23.961   3.380   6.7290  0.00  0.00     0.000 C
ATOM     32  C2  BGC C   3      23.121   2.102   6.9650  0.00  0.00     0.000 C
ATOM     33  C3  BGC C   3      21.982   2.021   6.0080  0.00  0.00     0.000 C
ATOM     34  C4  BGC C   3      21.214   3.344   6.0590  0.00  0.00     0.000 C
ATOM     35  C5  BGC C   3      22.119   4.597   5.9430  0.00  0.00     0.000 C
ATOM     36  O5  BGC C   3      23.164   4.528   6.8810  0.00  0.00     0.000 O
ATOM     37   O  BGC C   3      23.776   0.848   6.9160  0.00  0.00     0.000 O
ATOM     39  HD  BGC C   3      23.059   1.293   6.7240  0.00  0.00     0.000 HD
ATOM     39   O  BGC C   3      21.118   0.897   6.3470  0.00  0.00     0.000 O
ATOM     41  HD  BGC C   3      20.400   1.342   6.1560  0.00  0.00     0.000 HD
ATOM     41   C  BGC C   3      21.401   5.947   6.1740  0.00  0.00     0.000 C
ATOM     42   O  BGC C   3      20.855   6.144   7.5270  0.00  0.00     0.000 O
ATOM     44  HD  BGC C   3      20.138   6.590   7.3350  0.00  0.00     0.000 HD
BRANCH 31 44
ATOM     44  O4  BGC C   4      25.022   3.450   7.6220  0.00  0.00     0.000 O
BRANCH 44 48
ATOM     45  C1  BGC C   4      28.958   4.486   8.0570  0.00  0.00     0.000 C
ATOM     46  C2  BGC C   4      28.052   5.748   7.8980  0.00  0.00     0.000 C
ATOM     47  C3  BGC C   4      26.648   5.155   8.0660  0.00  0.00     0.000 C
ATOM     48  C4  BGC C   4      26.264   3.952   7.2260  0.00  0.00     0.000 C
ATOM     49  C5  BGC C   4      27.298   2.860   7.5450  0.00  0.00     0.000 C
ATOM     50  O5  BGC C   4      28.587   3.313   7.3170  0.00  0.00     0.000 O
ATOM     51   O  BGC C   4      28.153   6.973   8.8250  0.00  0.00     0.000 O
ATOM     53  HD  BGC C   4      27.508   7.534   8.6810  0.00  0.00     0.000 HD
ATOM     53   O  BGC C   4      25.825   6.279   7.4990  0.00  0.00     0.000 O
ATOM     55  HD  BGC C   4      25.181   6.840   7.3550  0.00  0.00     0.000 HD
ATOM     55   C  BGC C   4      27.126   1.662   6.6490  0.00  0.00     0.000 C
ATOM     56   O  BGC C   4      27.177   1.927   5.2420  0.00  0.00     0.000 O
ATOM     58  HD  BGC C   4      26.533   2.488   5.0980  0.00  0.00     0.000 HD
BRANCH 45 58
ATOM     58  O4  BGC C   5      30.285   4.741   7.7010  0.00  0.00     0.000 O
BRANCH 58 62
ATOM     59  C1  BGC C   5      32.943   5.654   6.4950  0.00  0.00     0.000 C
ATOM     60  C2  BGC C   5      31.901   6.273   5.7050  0.00  0.00     0.000 C
ATOM     61  C3  BGC C   5      30.764   5.323   5.3380  0.00  0.00     0.000 C
ATOM     62  C4  BGC C   5      30.668   4.236   6.3980  0.00  0.00     0.000 C
ATOM     63  C5  BGC C   5      32.074   3.760   6.6810  0.00  0.00     0.000 C
ATOM     64  O5  BGC C   5      33.163   4.562   6.2300  0.00  0.00     0.000 O
ATOM     65   O  BGC C   5      32.193   2.260   4.7910  0.00  0.00     0.000 O
ATOM     67  HD  BGC C   5      32.015   2.352   5.6340  0.00  0.00     0.000 HD
ATOM     67   O  BGC C   5      32.193   2.260   4.7910  0.00  0.00     0.000 O
ATOM     69  HD  BGC C   5      32.015   2.352   5.6340  0.00  0.00     0.000 HD
ENDBRANCH 58 62
ENDBRANCH 45 58
ENDBRANCH 44 48
ENDBRANCH 31 44
ENDBRANCH 30 34
ENDBRANCH 17 30
ENDBRANCH 16 20
ENDBRANCH 1 16
TORSDOF 8
ENDMDL
MODEL 26
REMARK VINA RESULT:      -3.5      4.962      8.843
ROOT
ATOM      1  C1  BGC C   1      13.661   3.538   4.0890  0.00  0.00     0.000 C
ATOM      2  C2  BGC C   1      12.585   3.136   5.0960  0.00  0.00     0.000 C
ATOM      3  C3  BGC C   1      11.713   2.030   4.5150  0.00  0.00     0.000 C
ATOM      4  C4  BGC C   1      11.199   2.373   3.1260  0.00  0.00     0.000 C
ATOM      5  C5  BGC C   1      12.335   2.910   2.2610  0.00  0.00     0.000 C
ATOM      6  O5  BGC C   1      13.100   3.893   2.8830  0.00  0.00     0.000 O
ATOM      7   O  BGC C   1      13.241   2.682   6.2560  0.00  0.00     0.000 O
ATOM      9  HD  BGC C   1      12.417   2.940   6.2000  0.00  0.00     0.000 HD
ATOM      9   O  BGC C   1      10.643   1.777   5.4350  0.00  0.00     0.000 O
ATOM     11  HD  BGC C   1       9.818   2.035   5.3790  0.00  0.00     0.000 HD
ATOM     11   O  BGC C   1      10.661   1.175   2.5790  0.00  0.00     0.000 O
ATOM     13  HD  BGC C   1       9.836   1.433   2.5220  0.00  0.00     0.000 HD
ATOM     13   O  BGC C   1      10.956   4.708   1.2590  0.00  0.00     0.000 O
ATOM     15  HD  BGC C   1      10.131   4.966   1.2020  0.00  0.00     0.000 HD
ATOM     15   C  BGC C   1      11.722   3.503   0.9790  0.00  0.00     0.000 C
ENDROOT
BRANCH 1 16
ATOM     16  O4  BGC C   2      14.335   4.673   4.5790  0.00  0.00     0.000 O
BRANCH 16 20
ATOM     17  C1  BGC C   2      18.107   6.236   4.5280  0.00  0.00     0.000 C
ATOM     18  C2  BGC C   2      17.304   6.396   3.2460  0.00  0.00     0.000 C
ATOM     19  C3  BGC C   2      15.829   6.116   3.4950  0.00  0.00     0.000 C
ATOM     20  C4  BGC C   2      15.680   4.799   4.1800  0.00  0.00     0.000 C
ATOM     21  C5  BGC C   2      16.583   4.713   5.4070  0.00  0.00     0.000 C
ATOM     22  O5  BGC C   2      17.913   4.959   5.0640  0.00  0.00     0.000 O
ATOM     23   O  BGC C   2      17.485   7.731   2.7500  0.00  0.00     0.000 O
ATOM     25  HD  BGC C   2      16.734   8.040   2.4490  0.00  0.00     0.000 HD
ATOM     25   O  BGC C   2      15.141   6.092   2.2510  0.00  0.00     0.000 O
ATOM     27  HD  BGC C   2      14.390   6.402   1.9500  0.00  0.00     0.000 HD
ATOM     27   C  BGC C   2      16.510   3.375   6.1700  0.00  0.00     0.000 C
ATOM     28   O  BGC C   2      16.760   2.262   5.2960  0.00  0.00     0.000 O
ATOM     30  HD  BGC C   2      16.009   2.571   4.9960  0.00  0.00     0.000 HD
BRANCH 17 30
ATOM     30  O4  BGC C   3      19.480   6.399   4.2400  0.00  0.00     0.000 O
BRANCH 30 34
ATOM     31  C1  BGC C   3      22.857   7.936   5.8440  0.00  0.00     0.000 C
ATOM     32  C2  BGC C   3      22.497   6.498   6.2880  0.00  0.00     0.000 C
ATOM     33  C3  BGC C   3      21.461   5.903   5.4000  0.00  0.00     0.000 C
ATOM     34  C4  BGC C   3      20.290   6.884   5.3010  0.00  0.00     0.000 C
ATOM     35  C5  BGC C   3      20.718   8.338   4.9760  0.00  0.00     0.000 C
ATOM     36  O5  BGC C   3      21.717   8.760   5.8700  0.00  0.00     0.000 O
ATOM     37   O  BGC C   3      23.539   5.544   6.3850  0.00  0.00     0.000 O
ATOM     39  HD  BGC C   3      22.714   5.690   6.1640  0.00  0.00     0.000 HD
ATOM     39   O  BGC C   3      21.025   4.615   5.9260  0.00  0.00     0.000 O
ATOM     41  HD  BGC C   3      20.200   4.761   5.7050  0.00  0.00     0.000 HD
ATOM     41   C  BGC C   3      19.585   9.387   5.0480  0.00  0.00     0.000 C
ATOM     42   O  BGC C   3      18.994   9.582   6.3830  0.00  0.00     0.000 O
ATOM     44  HD  BGC C   3      18.169   9.728   6.1610  0.00  0.00     0.000 HD
BRANCH 31 44
ATOM     44  O4  BGC C   4      23.825   8.486   6.6730  0.00  0.00     0.000 O
BRANCH 44 48
ATOM     45  C1  BGC C   4      27.175  10.837   6.7980  0.00  0.00     0.000 C
ATOM     46  C2  BGC C   4      25.895  11.685   6.5090  0.00  0.00     0.000 C
ATOM     47  C3  BGC C   4      24.774  10.683   6.8140  0.00  0.00     0.000 C
ATOM     48  C4  BGC C   4      24.826   9.316   6.1620  0.00  0.00     0.000 C
ATOM     49  C5  BGC C   4      26.167   8.692   6.5810  0.00  0.00     0.000 C
ATOM     50  O5  BGC C   4      27.227   9.515   6.2390  0.00  0.00     0.000 O
ATOM     51   O  BGC C   4      25.569  12.990   7.2570  0.00  0.00     0.000 O
ATOM     53  HD  BGC C   4      24.774  13.275   7.0660  0.00  0.00     0.000 HD
ATOM     53   O  BGC C   4      23.622  11.373   6.1370  0.00  0.00     0.000 O
ATOM     55  HD  BGC C   4      22.827  11.658   5.9460  0.00  0.00     0.000 HD
ATOM     55   C  BGC C   4      26.416   7.391   5.8620  0.00  0.00     0.000 C
ATOM     56   O  BGC C   4      26.383   7.458   4.4320  0.00  0.00     0.000 O
ATOM     58  HD  BGC C   4      25.588   7.743   4.2410  0.00  0.00     0.000 HD
BRANCH 45 58
ATOM     58  O4  BGC C   5      28.338  11.470   6.3550  0.00  0.00     0.000 O
BRANCH 58 62
ATOM     59  C1  BGC C   5      30.666  12.922   5.0030  0.00  0.00     0.000 C
ATOM     60  C2  BGC C   5      29.536  13.038   4.1070  0.00  0.00     0.000 C
ATOM     61  C3  BGC C   5      28.762  11.735   3.9250  0.00  0.00     0.000 C
ATOM     62  C4  BGC C   5      28.934  10.881   5.1730  0.00  0.00     0.000 C
ATOM     63  C5  BGC C   5      30.398  10.919   5.5450  0.00  0.00     0.000 C
ATOM     64  O5  BGC C   5      31.220  11.922   4.9520  0.00  0.00     0.000 O
ATOM     65   O  BGC C   5      31.077   9.213   3.9750  0.00  0.00     0.000 O
ATOM     67  HD  BGC C   5      30.829   9.396   4.7840  0.00  0.00     0.000 HD
ATOM     67   O  BGC C   5      31.077   9.213   3.9750  0.00  0.00     0.000 O
ATOM     69  HD  BGC C   5      30.829   9.396   4.7840  0.00  0.00     0.000 HD
ENDBRANCH 58 62
ENDBRANCH 45 58
ENDBRANCH 44 48
ENDBRANCH 31 44
ENDBRANCH 30 34
ENDBRANCH 17 30
ENDBRANCH 16 20
ENDBRANCH 1 16
TORSDOF 8
ENDMDL
MODEL 27
REMARK VINA RESULT:      -3.4      3.276      4.360
ROOT
ATOM      1  C1  BGC C   1       3.996   4.076   8.5930  0.00  0.00     0.000 C
ATOM      2  C2  BGC C   1       3.477   3.347   9.8320  0.00  0.00     0.000 C
ATOM      3  C3  BGC C   1       1.954   3.378   9.8560  0.00  0.00     0.000 C
ATOM      4  C4  BGC C   1       1.404   4.780   9.6550  0.00  0.00     0.000 C
ATOM      5  C5  BGC C   1       2.109   5.462   8.4860  0.00  0.00     0.000 C
ATOM      6  O5  BGC C   1       3.497   5.356   8.5290  0.00  0.00     0.000 O
ATOM      7   O  BGC C   1       3.939   2.019   9.7650  0.00  0.00     0.000 O
ATOM      9  HD  BGC C   1       3.652   2.428  10.4720  0.00  0.00     0.000 HD
ATOM      9   O  BGC C   1       1.517   2.802  11.0940  0.00  0.00     0.000 O
ATOM     11  HD  BGC C   1       1.230   3.211  11.8010  0.00  0.00     0.000 HD
ATOM     11   O  BGC C   1       0.010   4.643   9.4020  0.00  0.00     0.000 O
ATOM     13  HD  BGC C   1      -0.277   5.053  10.1090  0.00  0.00     0.000 HD
ATOM     13   O  BGC C   1       2.304   7.642   9.6480  0.00  0.00     0.000 O
ATOM     15  HD  BGC C   1       2.017   8.051  10.3560  0.00  0.00     0.000 HD
ATOM     15   C  BGC C   1       1.730   6.954   8.5020  0.00  0.00     0.000 C
ENDROOT
BRANCH 1 16
ATOM     16  O4  BGC C   2       5.397   4.184   8.6880  0.00  0.00     0.000 O
BRANCH 16 20
ATOM     17  C1  BGC C   2       8.625   4.217   6.1870  0.00  0.00     0.000 C
ATOM     18  C2  BGC C   2       7.831   5.512   6.2650  0.00  0.00     0.000 C
ATOM     19  C3  BGC C   2       6.901   5.503   7.4700  0.00  0.00     0.000 C
ATOM     20  C4  BGC C   2       6.084   4.255   7.4610  0.00  0.00     0.000 C
ATOM     21  C5  BGC C   2       6.968   3.022   7.3030  0.00  0.00     0.000 C
ATOM     22  O5  BGC C   2       7.759   3.119   6.1560  0.00  0.00     0.000 O
ATOM     23   O  BGC C   2       8.748   6.614   6.3470  0.00  0.00     0.000 O
ATOM     25  HD  BGC C   2       8.456   7.202   6.9110  0.00  0.00     0.000 HD
ATOM     25   O  BGC C   2       6.047   6.639   7.4090  0.00  0.00     0.000 O
ATOM     27  HD  BGC C   2       5.755   7.228   7.9730  0.00  0.00     0.000 HD
ATOM     27   C  BGC C   2       6.206   1.681   7.2630  0.00  0.00     0.000 C
ATOM     28   O  BGC C   2       5.188   1.691   6.2490  0.00  0.00     0.000 O
ATOM     30  HD  BGC C   2       4.896   2.279   6.8130  0.00  0.00     0.000 HD
BRANCH 17 30
ATOM     30  O4  BGC C   3       9.396   4.215   5.0050  0.00  0.00     0.000 O
BRANCH 30 34
ATOM     31  C1  BGC C   3      13.325   3.654   4.2360  0.00  0.00     0.000 C
ATOM     32  C2  BGC C   3      12.358   2.660   3.5490  0.00  0.00     0.000 C
ATOM     33  C3  BGC C   3      10.953   3.149   3.6060  0.00  0.00     0.000 C
ATOM     34  C4  BGC C   3      10.624   3.504   5.0590  0.00  0.00     0.000 C
ATOM     35  C5  BGC C   3      11.689   4.401   5.7400  0.00  0.00     0.000 C
ATOM     36  O5  BGC C   3      12.968   3.836   5.5840  0.00  0.00     0.000 O
ATOM     37   O  BGC C   3      12.606   2.306   2.2010  0.00  0.00     0.000 O
ATOM     39  HD  BGC C   3      12.006   2.486   2.8000  0.00  0.00     0.000 HD
ATOM     39   O  BGC C   3      10.044   2.130   3.0950  0.00  0.00     0.000 O
ATOM     41  HD  BGC C   3       9.445   2.310   3.6940  0.00  0.00     0.000 HD
ATOM     41   C  BGC C   3      11.484   4.628   7.2550  0.00  0.00     0.000 C
ATOM     42   O  BGC C   3      11.588   3.419   8.0900  0.00  0.00     0.000 O
ATOM     44  HD  BGC C   3      10.989   3.599   8.6890  0.00  0.00     0.000 HD
BRANCH 31 44
ATOM     44  O4  BGC C   4      14.634   3.195   4.1790  0.00  0.00     0.000 O
BRANCH 44 48
ATOM     45  C1  BGC C   4      18.556   4.369   4.1990  0.00  0.00     0.000 C
ATOM     46  C2  BGC C   4      18.011   4.181   5.6510  0.00  0.00     0.000 C
ATOM     47  C3  BGC C   4      16.680   3.461   5.4000  0.00  0.00     0.000 C
ATOM     48  C4  BGC C   4      15.711   4.059   4.3990  0.00  0.00     0.000 C
ATOM     49  C5  BGC C   4      16.474   4.153   3.0680  0.00  0.00     0.000 C
ATOM     50  O5  BGC C   4      17.643   4.880   3.2160  0.00  0.00     0.000 O
ATOM     51   O  BGC C   4      18.769   3.392   6.7340  0.00  0.00     0.000 O
ATOM     53  HD  BGC C   4      18.284   3.281   7.4430  0.00  0.00     0.000 HD
ATOM     53   O  BGC C   4      16.017   3.678   6.7330  0.00  0.00     0.000 O
ATOM     55  HD  BGC C   4      15.532   3.567   7.4420  0.00  0.00     0.000 HD
ATOM     55   C  BGC C   4      15.671   4.886   2.0250  0.00  0.00     0.000 C
ATOM     56   O  BGC C   4      15.241   6.203   2.3870  0.00  0.00     0.000 O
ATOM     58  HD  BGC C   4      14.756   6.092   3.0960  0.00  0.00     0.000 HD
BRANCH 45 58
ATOM     58  O4  BGC C   5      19.660   5.224   4.1570  0.00  0.00     0.000 O
BRANCH 58 62
ATOM     59  C1  BGC C   5      22.336   6.606   4.6910  0.00  0.00     0.000 C
ATOM     60  C2  BGC C   5      22.071   6.761   3.2780  0.00  0.00     0.000 C
ATOM     61  C3  BGC C   5      21.577   5.483   2.6030  0.00  0.00     0.000 C
ATOM     62  C4  BGC C   5      20.871   4.620   3.6390  0.00  0.00     0.000 C
ATOM     63  C5  BGC C   5      21.735   4.610   4.8790  0.00  0.00     0.000 C
ATOM     64  O5  BGC C   5      22.767   5.589   4.9920  0.00  0.00     0.000 O
ATOM     65   O  BGC C   5      23.239   2.889   4.0970  0.00  0.00     0.000 O
ATOM     67  HD  BGC C   5      22.526   3.078   4.5500  0.00  0.00     0.000 HD
ATOM     67   O  BGC C   5      23.239   2.889   4.0970  0.00  0.00     0.000 O
ATOM     69  HD  BGC C   5      22.526   3.078   4.5500  0.00  0.00     0.000 HD
ENDBRANCH 58 62
ENDBRANCH 45 58
ENDBRANCH 44 48
ENDBRANCH 31 44
ENDBRANCH 30 34
ENDBRANCH 17 30
ENDBRANCH 16 20
ENDBRANCH 1 16
TORSDOF 8
ENDMDL
MODEL 28
REMARK VINA RESULT:      -3.3      2.807      5.314
ROOT
ATOM      1  C1  BGC C   1       8.960   4.398   4.6550  0.00  0.00     0.000 C
ATOM      2  C2  BGC C   1       7.816   4.726   3.6970  0.00  0.00     0.000 C
ATOM      3  C3  BGC C   1       6.521   4.096   4.1950  0.00  0.00     0.000 C
ATOM      4  C4  BGC C   1       6.686   2.621   4.5200  0.00  0.00     0.000 C
ATOM      5  C5  BGC C   1       7.948   2.401   5.3510  0.00  0.00     0.000 C
ATOM      6  O5  BGC C   1       9.075   3.039   4.8390  0.00  0.00     0.000 O
ATOM      7   O  BGC C   1       7.693   6.127   3.6500  0.00  0.00     0.000 O
ATOM      9  HD  BGC C   1       7.382   5.564   3.0690  0.00  0.00     0.000 HD
ATOM      9   O  BGC C   1       5.509   4.317   3.2040  0.00  0.00     0.000 O
ATOM     11  HD  BGC C   1       5.198   3.754   2.6240  0.00  0.00     0.000 HD
ATOM     11   O  BGC C   1       5.524   2.225   5.2410  0.00  0.00     0.000 O
ATOM     13  HD  BGC C   1       5.214   1.662   4.6600  0.00  0.00     0.000 HD
ATOM     13   O  BGC C   1       8.618   0.362   4.1130  0.00  0.00     0.000 O
ATOM     15  HD  BGC C   1       8.308  -0.201   3.5330  0.00  0.00     0.000 HD
ATOM     15   C  BGC C   1       8.225   0.888   5.4110  0.00  0.00     0.000 C
ENDROOT
BRANCH 1 16
ATOM     16  O4  BGC C   2      10.169   4.839   4.0810  0.00  0.00     0.000 O
BRANCH 16 20
ATOM     17  C1  BGC C   2      14.136   4.960   5.0400  0.00  0.00     0.000 C
ATOM     18  C2  BGC C   2      13.593   3.601   4.6260  0.00  0.00     0.000 C
ATOM     19  C3  BGC C   2      12.235   3.744   3.9540  0.00  0.00     0.000 C
ATOM     20  C4  BGC C   2      11.331   4.553   4.8220  0.00  0.00     0.000 C
ATOM     21  C5  BGC C   2      11.999   5.858   5.2430  0.00  0.00     0.000 C
ATOM     22  O5  BGC C   2      13.221   5.614   5.8710  0.00  0.00     0.000 O
ATOM     23   O  BGC C   2      14.531   2.979   3.7350  0.00  0.00     0.000 O
ATOM     25  HD  BGC C   2      14.110   2.579   3.0920  0.00  0.00     0.000 HD
ATOM     25   O  BGC C   2      11.677   2.452   3.7490  0.00  0.00     0.000 O
ATOM     27  HD  BGC C   2      11.256   2.052   3.1060  0.00  0.00     0.000 HD
ATOM     27   C  BGC C   2      11.143   6.755   6.1610  0.00  0.00     0.000 C
ATOM     28   O  BGC C   2      10.696   6.035   7.3220  0.00  0.00     0.000 O
ATOM     30  HD  BGC C   2      10.275   5.635   6.6790  0.00  0.00     0.000 HD
BRANCH 17 30
ATOM     30  O4  BGC C   3      15.342   4.782   5.7510  0.00  0.00     0.000 O
BRANCH 30 34
ATOM     31  C1  BGC C   3      19.148   6.023   5.1900  0.00  0.00     0.000 C
ATOM     32  C2  BGC C   3      18.472   6.502   6.4970  0.00  0.00     0.000 C
ATOM     33  C3  BGC C   3      17.232   5.727   6.7770  0.00  0.00     0.000 C
ATOM     34  C4  BGC C   3      16.354   5.752   5.5230  0.00  0.00     0.000 C
ATOM     35  C5  BGC C   3      17.112   5.384   4.2220  0.00  0.00     0.000 C
ATOM     36  O5  BGC C   3      18.272   6.169   4.1000  0.00  0.00     0.000 O
ATOM     37   O  BGC C   3      19.232   6.488   7.6900  0.00  0.00     0.000 O
ATOM     39  HD  BGC C   3      18.457   6.355   7.3290  0.00  0.00     0.000 HD
ATOM     39   O  BGC C   3      16.530   6.296   7.9220  0.00  0.00     0.000 O
ATOM     41  HD  BGC C   3      15.754   6.162   7.5610  0.00  0.00     0.000 HD
ATOM     41   C  BGC C   3      16.305   5.576   2.9170  0.00  0.00     0.000 C
ATOM     42   O  BGC C   3      15.924   6.965   2.6130  0.00  0.00     0.000 O
ATOM     44  HD  BGC C   3      15.148   6.832   2.2520  0.00  0.00     0.000 HD
BRANCH 31 44
ATOM     44  O4  BGC C   4      20.305   6.746   4.9330  0.00  0.00     0.000 O
BRANCH 44 48
ATOM     45  C1  BGC C   4      23.605   6.998   2.5230  0.00  0.00     0.000 C
ATOM     46  C2  BGC C   4      22.350   7.629   1.8380  0.00  0.00     0.000 C
ATOM     47  C3  BGC C   4      21.356   7.705   3.0040  0.00  0.00     0.000 C
ATOM     48  C4  BGC C   4      21.106   6.456   3.8260  0.00  0.00     0.000 C
ATOM     49  C5  BGC C   4      22.475   6.026   4.3780  0.00  0.00     0.000 C
ATOM     50  O5  BGC C   4      23.390   5.847   3.3530  0.00  0.00     0.000 O
ATOM     51   O  BGC C   4      22.374   9.009   1.1570  0.00  0.00     0.000 O
ATOM     53  HD  BGC C   4      21.578   9.266   0.9310  0.00  0.00     0.000 HD
ATOM     53   O  BGC C   4      20.078   7.906   2.2380  0.00  0.00     0.000 O
ATOM     55  HD  BGC C   4      19.282   8.162   2.0120  0.00  0.00     0.000 HD
ATOM     55   C  BGC C   4      22.390   4.696   5.0810  0.00  0.00     0.000 C
ATOM     56   O  BGC C   4      21.863   3.616   4.3020  0.00  0.00     0.000 O
ATOM     58  HD  BGC C   4      21.067   3.872   4.0760  0.00  0.00     0.000 HD
BRANCH 45 58
ATOM     58  O4  BGC C   5      24.572   6.607   1.5940  0.00  0.00     0.000 O
BRANCH 58 62
ATOM     59  C1  BGC C   5      26.945   5.219   0.2550  0.00  0.00     0.000 C
ATOM     60  C2  BGC C   5      27.009   4.875   1.6580  0.00  0.00     0.000 C
ATOM     61  C3  BGC C   5      26.776   6.060   2.5920  0.00  0.00     0.000 C
ATOM     62  C4  BGC C   5      25.909   7.087   1.8780  0.00  0.00     0.000 C
ATOM     63  C5  BGC C   5      26.457   7.242   0.4780  0.00  0.00     0.000 C
ATOM     64  O5  BGC C   5      27.363   6.253  -0.0070  0.00  0.00     0.000 O
ATOM     65   O  BGC C   5      28.218   8.778   1.0900  0.00  0.00     0.000 O
ATOM     67  HD  BGC C   5      27.407   8.682   0.8020  0.00  0.00     0.000 HD
ATOM     67   O  BGC C   5      28.218   8.778   1.0900  0.00  0.00     0.000 O
ATOM     69  HD  BGC C   5      27.407   8.682   0.8020  0.00  0.00     0.000 HD
ENDBRANCH 58 62
ENDBRANCH 45 58
ENDBRANCH 44 48
ENDBRANCH 31 44
ENDBRANCH 30 34
ENDBRANCH 17 30
ENDBRANCH 16 20
ENDBRANCH 1 16
TORSDOF 8
ENDMDL
MODEL 29
REMARK VINA RESULT:      -3.3      4.951     16.709
ROOT
ATOM      1  C1  BGC C   1      29.153   5.244   9.4320  0.00  0.00     0.000 C
ATOM      2  C2  BGC C   1      30.476   5.257   8.6660  0.00  0.00     0.000 C
ATOM      3  C3  BGC C   1      31.624   4.896   9.6020  0.00  0.00     0.000 C
ATOM      4  C4  BGC C   1      31.609   5.724  10.8760  0.00  0.00     0.000 C
ATOM      5  C5  BGC C   1      30.200   5.764  11.4630  0.00  0.00     0.000 C
ATOM      6  O5  BGC C   1      29.212   6.069  10.5310  0.00  0.00     0.000 O
ATOM      7   O  BGC C   1      30.374   4.309   7.6300  0.00  0.00     0.000 O
ATOM      9  HD  BGC C   1      30.945   4.959   7.6780  0.00  0.00     0.000 HD
ATOM      9   O  BGC C   1      32.852   5.048   8.8780  0.00  0.00     0.000 O
ATOM     11  HD  BGC C   1      33.423   5.697   8.9260  0.00  0.00     0.000 HD
ATOM     11   O  BGC C   1      32.522   5.108  11.7780  0.00  0.00     0.000 O
ATOM     13  HD  BGC C   1      33.093   5.757  11.8260  0.00  0.00     0.000 HD
ATOM     13   O  BGC C   1      30.318   8.172  12.0320  0.00  0.00     0.000 O
ATOM     15  HD  BGC C   1      30.889   8.822  12.0800  0.00  0.00     0.000 HD
ATOM     15   C  BGC C   1      30.174   6.830  12.5740  0.00  0.00     0.000 C
ENDROOT
BRANCH 1 16
ATOM     16  O4  BGC C   2      28.142   5.749   8.5920  0.00  0.00     0.000 O
BRANCH 16 20
ATOM     17  C1  BGC C   2      24.139   5.191   8.0090  0.00  0.00     0.000 C
ATOM     18  C2  BGC C   2      24.521   6.162   9.1150  0.00  0.00     0.000 C
ATOM     19  C3  BGC C   2      25.984   6.564   8.9990  0.00  0.00     0.000 C
ATOM     20  C4  BGC C   2      26.832   5.340   8.9070  0.00  0.00     0.000 C
ATOM     21  C5  BGC C   2      26.320   4.399   7.8210  0.00  0.00     0.000 C
ATOM     22  O5  BGC C   2      24.979   4.073   8.0350  0.00  0.00     0.000 O
ATOM     23   O  BGC C   2      23.675   7.319   9.0290  0.00  0.00     0.000 O
ATOM     25  HD  BGC C   2      24.136   8.036   9.1770  0.00  0.00     0.000 HD
ATOM     25   O  BGC C   2      26.354   7.320  10.1460  0.00  0.00     0.000 O
ATOM     27  HD  BGC C   2      26.815   8.038  10.2950  0.00  0.00     0.000 HD
ATOM     27   C  BGC C   2      27.125   3.093   7.6650  0.00  0.00     0.000 C
ATOM     28   O  BGC C   2      27.228   2.392   8.9150  0.00  0.00     0.000 O
ATOM     30  HD  BGC C   2      27.690   3.109   9.0630  0.00  0.00     0.000 HD
BRANCH 17 30
ATOM     30  O4  BGC C   3      22.810   4.759   8.2070  0.00  0.00     0.000 O
BRANCH 30 34
ATOM     31  C1  BGC C   3      19.537   3.621   6.1260  0.00  0.00     0.000 C
ATOM     32  C2  BGC C   3      20.591   2.516   6.3760  0.00  0.00     0.000 C
ATOM     33  C3  BGC C   3      21.566   2.928   7.4230  0.00  0.00     0.000 C
ATOM     34  C4  BGC C   3      22.118   4.307   7.0530  0.00  0.00     0.000 C
ATOM     35  C5  BGC C   3      21.023   5.342   6.6900  0.00  0.00     0.000 C
ATOM     36  O5  BGC C   3      20.160   4.813   5.7160  0.00  0.00     0.000 O
ATOM     37   O  BGC C   3      20.138   1.224   6.7350  0.00  0.00     0.000 O
ATOM     39  HD  BGC C   3      20.740   1.835   6.8550  0.00  0.00     0.000 HD
ATOM     39   O  BGC C   3      22.636   1.944   7.5310  0.00  0.00     0.000 O
ATOM     41  HD  BGC C   3      23.238   2.556   7.6520  0.00  0.00     0.000 HD
ATOM     41   C  BGC C   3      21.549   6.687   6.1370  0.00  0.00     0.000 C
ATOM     42   O  BGC C   3      22.262   6.600   4.8510  0.00  0.00     0.000 O
ATOM     44  HD  BGC C   3      22.863   7.211   4.9710  0.00  0.00     0.000 HD
BRANCH 31 44
ATOM     44  O4  BGC C   4      18.629   3.232   5.1500  0.00  0.00     0.000 O
BRANCH 44 48
ATOM     45  C1  BGC C   4      14.817   3.748   3.7510  0.00  0.00     0.000 C
ATOM     46  C2  BGC C   4      15.750   4.918   3.3040  0.00  0.00     0.000 C
ATOM     47  C3  BGC C   4      17.139   4.370   3.6570  0.00  0.00     0.000 C
ATOM     48  C4  BGC C   4      17.371   3.832   5.0550  0.00  0.00     0.000 C
ATOM     49  C5  BGC C   4      16.337   2.713   5.2610  0.00  0.00     0.000 C
ATOM     50  O5  BGC C   4      15.050   3.180   5.0490  0.00  0.00     0.000 O
ATOM     51   O  BGC C   4      15.809   5.435   1.8550  0.00  0.00     0.000 O
ATOM     53  HD  BGC C   4      16.455   6.001   1.7460  0.00  0.00     0.000 HD
ATOM     53   O  BGC C   4      17.936   5.644   3.6130  0.00  0.00     0.000 O
ATOM     55  HD  BGC C   4      18.581   6.211   3.5050  0.00  0.00     0.000 HD
ATOM     55   C  BGC C   4      16.354   2.204   6.6790  0.00  0.00     0.000 C
ATOM     56   O  BGC C   4      16.150   3.193   7.6950  0.00  0.00     0.000 O
ATOM     58  HD  BGC C   4      16.796   3.760   7.5870  0.00  0.00     0.000 HD
BRANCH 45 58
ATOM     58  O4  BGC C   5      13.469   4.117   3.7480  0.00  0.00     0.000 O
BRANCH 58 62
ATOM     59  C1  BGC C   5      10.413   4.013   3.7240  0.00  0.00     0.000 C
ATOM     60  C2  BGC C   5      10.871   2.668   3.4500  0.00  0.00     0.000 C
ATOM     61  C3  BGC C   5      12.008   2.602   2.4340  0.00  0.00     0.000 C
ATOM     62  C4  BGC C   5      12.790   3.907   2.4850  0.00  0.00     0.000 C
ATOM     63  C5  BGC C   5      11.783   5.033   2.5150  0.00  0.00     0.000 C
ATOM     64  O5  BGC C   5      10.426   4.719   2.8220  0.00  0.00     0.000 O
ATOM     65   O  BGC C   5      11.399   5.060   0.1300  0.00  0.00     0.000 O
ATOM     67  HD  BGC C   5      11.843   5.390   0.7970  0.00  0.00     0.000 HD
ATOM     67   O  BGC C   5      11.399   5.060   0.1300  0.00  0.00     0.000 O
ATOM     69  HD  BGC C   5      11.843   5.390   0.7970  0.00  0.00     0.000 HD
ENDBRANCH 58 62
ENDBRANCH 45 58
ENDBRANCH 44 48
ENDBRANCH 31 44
ENDBRANCH 30 34
ENDBRANCH 17 30
ENDBRANCH 16 20
ENDBRANCH 1 16
TORSDOF 8
ENDMDL
MODEL 30
REMARK VINA RESULT:      -3.3      5.887     16.628
ROOT
ATOM      1  C1  BGC C   1      27.092   9.524  11.8810  0.00  0.00     0.000 C
ATOM      2  C2  BGC C   1      27.192  10.112  13.2880  0.00  0.00     0.000 C
ATOM      3  C3  BGC C   1      28.479  10.917  13.4280  0.00  0.00     0.000 C
ATOM      4  C4  BGC C   1      29.698  10.135  12.9690  0.00  0.00     0.000 C
ATOM      5  C5  BGC C   1      29.422   9.466  11.6250  0.00  0.00     0.000 C
ATOM      6  O5  BGC C   1      28.210   8.782  11.5770  0.00  0.00     0.000 O
ATOM      7   O  BGC C   1      26.072  10.944  13.4790  0.00  0.00     0.000 O
ATOM      9  HD  BGC C   1      26.576  10.610  14.0990  0.00  0.00     0.000 HD
ATOM      9   O  BGC C   1      28.594  11.337  14.7940  0.00  0.00     0.000 O
ATOM     11  HD  BGC C   1      29.098  11.003  15.4140  0.00  0.00     0.000 HD
ATOM     11   O  BGC C   1      30.770  11.067  12.8660  0.00  0.00     0.000 O
ATOM     13  HD  BGC C   1      31.273  10.733  13.4870  0.00  0.00     0.000 HD
ATOM     13   O  BGC C   1      30.525   7.340  12.2590  0.00  0.00     0.000 O
ATOM     15  HD  BGC C   1      31.029   7.007  12.8790  0.00  0.00     0.000 HD
ATOM     15   C  BGC C   1      30.561   8.470  11.3430  0.00  0.00     0.000 C
ENDROOT
BRANCH 1 16
ATOM     16  O4  BGC C   2      25.991   8.648  11.8360  0.00  0.00     0.000 O
BRANCH 16 20
ATOM     17  C1  BGC C   2      23.240   7.372   9.1020  0.00  0.00     0.000 C
ATOM     18  C2  BGC C   2      24.596   6.685   9.0510  0.00  0.00     0.000 C
ATOM     19  C3  BGC C   2      25.393   6.969  10.3160  0.00  0.00     0.000 C
ATOM     20  C4  BGC C   2      25.434   8.440  10.5600  0.00  0.00     0.000 C
ATOM     21  C5  BGC C   2      24.032   9.043  10.5150  0.00  0.00     0.000 C
ATOM     22  O5  BGC C   2      23.401   8.746   9.3060  0.00  0.00     0.000 O
ATOM     23   O  BGC C   2      24.394   5.273   8.8920  0.00  0.00     0.000 O
ATOM     25  HD  BGC C   2      24.956   4.835   9.3840  0.00  0.00     0.000 HD
ATOM     25   O  BGC C   2      26.715   6.471  10.1570  0.00  0.00     0.000 O
ATOM     27  HD  BGC C   2      27.278   6.033  10.6490  0.00  0.00     0.000 HD
ATOM     27   C  BGC C   2      23.977  10.568  10.7390  0.00  0.00     0.000 C
ATOM     28   O  BGC C   2      24.840  11.260   9.8220  0.00  0.00     0.000 O
ATOM     30  HD  BGC C   2      25.402  10.823  10.3140  0.00  0.00     0.000 HD
BRANCH 17 30
ATOM     30  O4  BGC C   3      22.572   7.175   7.8740  0.00  0.00     0.000 O
BRANCH 30 34
ATOM     31  C1  BGC C   3      18.881   6.430   6.4050  0.00  0.00     0.000 C
ATOM     32  C2  BGC C   3      19.215   7.920   6.6560  0.00  0.00     0.000 C
ATOM     33  C3  BGC C   3      20.677   8.117   6.8560  0.00  0.00     0.000 C
ATOM     34  C4  BGC C   3      21.154   7.137   7.9300  0.00  0.00     0.000 C
ATOM     35  C5  BGC C   3      20.686   5.677   7.6970  0.00  0.00     0.000 C
ATOM     36  O5  BGC C   3      19.295   5.642   7.4940  0.00  0.00     0.000 O
ATOM     37   O  BGC C   3      18.810   8.871   5.6890  0.00  0.00     0.000 O
ATOM     39  HD  BGC C   3      19.425   8.631   6.2490  0.00  0.00     0.000 HD
ATOM     39   O  BGC C   3      20.951   9.496   7.2440  0.00  0.00     0.000 O
ATOM     41  HD  BGC C   3      21.566   9.256   7.8040  0.00  0.00     0.000 HD
ATOM     41   C  BGC C   3      20.993   4.697   8.8520  0.00  0.00     0.000 C
ATOM     42   O  BGC C   3      20.308   4.990  10.1220  0.00  0.00     0.000 O
ATOM     44  HD  BGC C   3      20.923   4.750  10.6830  0.00  0.00     0.000 HD
BRANCH 31 44
ATOM     44  O4  BGC C   4      17.516   6.250   6.2170  0.00  0.00     0.000 O
BRANCH 44 48
ATOM     45  C1  BGC C   4      14.702   4.149   4.1140  0.00  0.00     0.000 C
ATOM     46  C2  BGC C   4      15.705   3.192   4.8350  0.00  0.00     0.000 C
ATOM     47  C3  BGC C   4      16.440   4.154   5.7780  0.00  0.00     0.000 C
ATOM     48  C4  BGC C   4      17.032   5.425   5.2000  0.00  0.00     0.000 C
ATOM     49  C5  BGC C   4      15.865   6.180   4.5430  0.00  0.00     0.000 C
ATOM     50  O5  BGC C   4      15.223   5.386   3.6060  0.00  0.00     0.000 O
ATOM     51   O  BGC C   4      15.254   1.979   5.6680  0.00  0.00     0.000 O
ATOM     53  HD  BGC C   4      15.918   1.622   6.0940  0.00  0.00     0.000 HD
ATOM     53   O  BGC C   4      17.637   3.311   6.1210  0.00  0.00     0.000 O
ATOM     55  HD  BGC C   4      18.301   2.954   6.5480  0.00  0.00     0.000 HD
ATOM     55   C  BGC C   4      16.351   7.388   3.7840  0.00  0.00     0.000 C
ATOM     56   O  BGC C   4      17.339   7.133   2.7800  0.00  0.00     0.000 O
ATOM     58  HD  BGC C   4      18.003   6.776   3.2060  0.00  0.00     0.000 HD
BRANCH 45 58
ATOM     58  O4  BGC C   5      14.080   3.536   3.0240  0.00  0.00     0.000 O
BRANCH 58 62
ATOM     59  C1  BGC C   5      11.976   4.368   0.9660  0.00  0.00     0.000 C
ATOM     60  C2  BGC C   5      11.725   5.160   2.1510  0.00  0.00     0.000 C
ATOM     61  C3  BGC C   5      11.777   4.357   3.4480  0.00  0.00     0.000 C
ATOM     62  C4  BGC C   5      12.698   3.162   3.2510  0.00  0.00     0.000 C
ATOM     63  C5  BGC C   5      12.351   2.542   1.9170  0.00  0.00     0.000 C
ATOM     64  O5  BGC C   5      11.561   3.301   1.0040  0.00  0.00     0.000 O
ATOM     65   O  BGC C   5      10.464   1.276   2.7370  0.00  0.00     0.000 O
ATOM     67  HD  BGC C   5      11.311   1.280   2.5560  0.00  0.00     0.000 HD
ATOM     67   O  BGC C   5      10.464   1.276   2.7370  0.00  0.00     0.000 O
ATOM     69  HD  BGC C   5      11.311   1.280   2.5560  0.00  0.00     0.000 HD
ENDBRANCH 58 62
ENDBRANCH 45 58
ENDBRANCH 44 48
ENDBRANCH 31 44
ENDBRANCH 30 34
ENDBRANCH 17 30
ENDBRANCH 16 20
ENDBRANCH 1 16
TORSDOF 8
ENDMDL
MODEL 31
REMARK VINA RESULT:      -3.3      3.730     15.468
ROOT
ATOM      1  C1  BGC C   1      26.612   6.594   7.7060  0.00  0.00     0.000 C
ATOM      2  C2  BGC C   1      27.982   6.066   7.2820  0.00  0.00     0.000 C
ATOM      3  C3  BGC C   1      28.958   6.149   8.4490  0.00  0.00     0.000 C
ATOM      4  C4  BGC C   1      28.969   7.527   9.0910  0.00  0.00     0.000 C
ATOM      5  C5  BGC C   1      27.542   8.013   9.3240  0.00  0.00     0.000 C
ATOM      6  O5  BGC C   1      26.712   7.869   8.2150  0.00  0.00     0.000 O
ATOM      7   O  BGC C   1      27.812   4.727   6.8810  0.00  0.00     0.000 O
ATOM      9  HD  BGC C   1      28.481   5.241   6.6850  0.00  0.00     0.000 HD
ATOM      9   O  BGC C   1      30.255   5.769   7.9720  0.00  0.00     0.000 O
ATOM     11  HD  BGC C   1      30.924   6.283   7.7760  0.00  0.00     0.000 HD
ATOM     11   O  BGC C   1      29.674   7.401  10.3220  0.00  0.00     0.000 O
ATOM     13  HD  BGC C   1      30.343   7.916  10.1250  0.00  0.00     0.000 HD
ATOM     13   O  BGC C   1      28.024  10.327   8.5820  0.00  0.00     0.000 O
ATOM     15  HD  BGC C   1      28.692  10.842   8.3850  0.00  0.00     0.000 HD
ATOM     15   C  BGC C   1      27.599   9.504   9.7030  0.00  0.00     0.000 C
ENDROOT
BRANCH 1 16
ATOM     16  O4  BGC C   2      25.786   6.669   6.5680  0.00  0.00     0.000 O
BRANCH 16 20
ATOM     17  C1  BGC C   2      21.818   6.305   5.6760  0.00  0.00     0.000 C
ATOM     18  C2  BGC C   2      22.259   7.661   6.2050  0.00  0.00     0.000 C
ATOM     19  C3  BGC C   2      23.774   7.794   6.1530  0.00  0.00     0.000 C
ATOM     20  C4  BGC C   2      24.402   6.616   6.8190  0.00  0.00     0.000 C
ATOM     21  C5  BGC C   2      23.836   5.310   6.2700  0.00  0.00     0.000 C
ATOM     22  O5  BGC C   2      22.446   5.279   6.3900  0.00  0.00     0.000 O
ATOM     23   O  BGC C   2      21.637   8.689   5.4190  0.00  0.00     0.000 O
ATOM     25  HD  BGC C   2      22.201   9.330   5.2690  0.00  0.00     0.000 HD
ATOM     25   O  BGC C   2      24.161   8.989   6.8210  0.00  0.00     0.000 O
ATOM     27  HD  BGC C   2      24.724   9.629   6.6720  0.00  0.00     0.000 HD
ATOM     27   C  BGC C   2      24.415   4.034   6.9160  0.00  0.00     0.000 C
ATOM     28   O  BGC C   2      24.279   4.066   8.3460  0.00  0.00     0.000 O
ATOM     30  HD  BGC C   2      24.842   4.707   8.1960  0.00  0.00     0.000 HD
BRANCH 17 30
ATOM     30  O4  BGC C   3      20.422   6.175   5.8350  0.00  0.00     0.000 O
BRANCH 30 34
ATOM     31  C1  BGC C   3      17.160   4.712   3.9480  0.00  0.00     0.000 C
ATOM     32  C2  BGC C   3      18.345   3.728   4.1000  0.00  0.00     0.000 C
ATOM     33  C3  BGC C   3      19.337   4.229   5.0910  0.00  0.00     0.000 C
ATOM     34  C4  BGC C   3      19.707   5.667   4.7180  0.00  0.00     0.000 C
ATOM     35  C5  BGC C   3      18.482   6.580   4.4540  0.00  0.00     0.000 C
ATOM     36  O5  BGC C   3      17.618   5.973   3.5260  0.00  0.00     0.000 O
ATOM     37   O  BGC C   3      18.063   2.388   4.4570  0.00  0.00     0.000 O
ATOM     39  HD  BGC C   3      18.600   3.061   4.5520  0.00  0.00     0.000 HD
ATOM     39   O  BGC C   3      20.515   3.370   5.1040  0.00  0.00     0.000 O
ATOM     41  HD  BGC C   3      21.052   4.042   5.1990  0.00  0.00     0.000 HD
ATOM     41   C  BGC C   3      18.817   7.983   3.9000  0.00  0.00     0.000 C
ATOM     42   O  BGC C   3      19.445   7.998   2.5680  0.00  0.00     0.000 O
ATOM     44  HD  BGC C   3      19.982   8.671   2.6630  0.00  0.00     0.000 HD
BRANCH 31 44
ATOM     44  O4  BGC C   4      16.236   4.240   3.0240  0.00  0.00     0.000 O
BRANCH 44 48
ATOM     45  C1  BGC C   4      12.265   3.247   2.9640  0.00  0.00     0.000 C
ATOM     46  C2  BGC C   4      12.591   4.353   1.9100  0.00  0.00     0.000 C
ATOM     47  C3  BGC C   4      14.125   4.334   1.8930  0.00  0.00     0.000 C
ATOM     48  C4  BGC C   4      14.866   4.435   3.2120  0.00  0.00     0.000 C
ATOM     49  C5  BGC C   4      14.371   3.260   4.0710  0.00  0.00     0.000 C
ATOM     50  O5  BGC C   4      12.993   3.284   4.2010  0.00  0.00     0.000 O
ATOM     51   O  BGC C   4      12.110   4.286   0.4490  0.00  0.00     0.000 O
ATOM     53  HD  BGC C   4      12.469   4.910  -0.0330  0.00  0.00     0.000 HD
ATOM     53   O  BGC C   4      14.390   5.652   1.2180  0.00  0.00     0.000 O
ATOM     55  HD  BGC C   4      14.750   6.275   0.7360  0.00  0.00     0.000 HD
ATOM     55   C  BGC C   4      14.912   3.341   5.4750  0.00  0.00     0.000 C
ATOM     56   O  BGC C   4      14.630   4.557   6.1780  0.00  0.00     0.000 O
ATOM     58  HD  BGC C   4      14.990   5.180   5.6960  0.00  0.00     0.000 HD
BRANCH 45 58
ATOM     58  O4  BGC C   5      10.917   3.248   3.3280  0.00  0.00     0.000 O
BRANCH 58 62
ATOM     59  C1  BGC C   5       8.073   2.409   4.0780  0.00  0.00     0.000 C
ATOM     60  C2  BGC C   5       8.331   3.649   4.7770  0.00  0.00     0.000 C
ATOM     61  C3  BGC C   5       9.703   3.703   5.4440  0.00  0.00     0.000 C
ATOM     62  C4  BGC C   5      10.658   2.797   4.6810  0.00  0.00     0.000 C
ATOM     63  C5  BGC C   5       9.929   1.501   4.4120  0.00  0.00     0.000 C
ATOM     64  O5  BGC C   5       8.512   1.476   4.5750  0.00  0.00     0.000 O
ATOM     65   O  BGC C   5      10.353   0.542   6.5880  0.00  0.00     0.000 O
ATOM     67  HD  BGC C   5      10.610   0.612   5.7640  0.00  0.00     0.000 HD
ATOM     67   O  BGC C   5      10.353   0.542   6.5880  0.00  0.00     0.000 O
ATOM     69  HD  BGC C   5      10.610   0.612   5.7640  0.00  0.00     0.000 HD
ENDBRANCH 58 62
ENDBRANCH 45 58
ENDBRANCH 44 48
ENDBRANCH 31 44
ENDBRANCH 30 34
ENDBRANCH 17 30
ENDBRANCH 16 20
ENDBRANCH 1 16
TORSDOF 8
ENDMDL
MODEL 32
REMARK VINA RESULT:      -3.3      5.081      8.914
ROOT
ATOM      1  C1  BGC C   1      12.976   6.325   2.4580  0.00  0.00     0.000 C
ATOM      2  C2  BGC C   1      11.920   5.556   3.2510  0.00  0.00     0.000 C
ATOM      3  C3  BGC C   1      10.802   5.096   2.3220  0.00  0.00     0.000 C
ATOM      4  C4  BGC C   1      10.265   6.230   1.4640  0.00  0.00     0.000 C
ATOM      5  C5  BGC C   1      11.417   7.021   0.8510  0.00  0.00     0.000 C
ATOM      6  O5  BGC C   1      12.408   7.370   1.7650  0.00  0.00     0.000 O
ATOM      7   O  BGC C   1      12.557   4.445   3.8360  0.00  0.00     0.000 O
ATOM      9  HD  BGC C   1      11.799   4.788   4.0760  0.00  0.00     0.000 HD
ATOM      9   O  BGC C   1       9.776   4.497   3.1230  0.00  0.00     0.000 O
ATOM     11  HD  BGC C   1       9.018   4.840   3.3630  0.00  0.00     0.000 HD
ATOM     11   O  BGC C   1       9.458   5.635   0.4540  0.00  0.00     0.000 O
ATOM     13  HD  BGC C   1       8.700   5.978   0.6940  0.00  0.00     0.000 HD
ATOM     13   O  BGC C   1      10.355   9.221   1.2590  0.00  0.00     0.000 O
ATOM     15  HD  BGC C   1       9.597   9.564   1.4990  0.00  0.00     0.000 HD
ATOM     15   C  BGC C   1      10.841   8.309   0.2360  0.00  0.00     0.000 C
ENDROOT
BRANCH 1 16
ATOM     16  O4  BGC C   2      13.898   6.885   3.3630  0.00  0.00     0.000 O
BRANCH 16 20
ATOM     17  C1  BGC C   2      17.873   7.821   3.3980  0.00  0.00     0.000 C
ATOM     18  C2  BGC C   2      16.938   8.908   2.8900  0.00  0.00     0.000 C
ATOM     19  C3  BGC C   2      15.495   8.595   3.2600  0.00  0.00     0.000 C
ATOM     20  C4  BGC C   2      15.157   7.209   2.8230  0.00  0.00     0.000 C
ATOM     21  C5  BGC C   2      16.196   6.209   3.3200  0.00  0.00     0.000 C
ATOM     22  O5  BGC C   2      17.478   6.573   2.9040  0.00  0.00     0.000 O
ATOM     23   O  BGC C   2      17.340  10.165   3.4540  0.00  0.00     0.000 O
ATOM     25  HD  BGC C   2      16.642  10.626   3.6800  0.00  0.00     0.000 HD
ATOM     25   O  BGC C   2      14.635   9.527   2.6150  0.00  0.00     0.000 O
ATOM     27  HD  BGC C   2      13.938   9.988   2.8410  0.00  0.00     0.000 HD
ATOM     27   C  BGC C   2      15.938   4.747   2.8980  0.00  0.00     0.000 C
ATOM     28   O  BGC C   2      15.789   4.634   1.4740  0.00  0.00     0.000 O
ATOM     30  HD  BGC C   2      15.091   5.095   1.7000  0.00  0.00     0.000 HD
BRANCH 17 30
ATOM     30  O4  BGC C   3      19.184   8.087   2.9490  0.00  0.00     0.000 O
BRANCH 30 34
ATOM     31  C1  BGC C   3      23.037   7.976   4.1650  0.00  0.00     0.000 C
ATOM     32  C2  BGC C   3      22.347   6.601   3.9960  0.00  0.00     0.000 C
ATOM     33  C3  BGC C   3      21.078   6.727   3.2280  0.00  0.00     0.000 C
ATOM     34  C4  BGC C   3      20.229   7.825   3.8730  0.00  0.00     0.000 C
ATOM     35  C5  BGC C   3      21.005   9.142   4.1350  0.00  0.00     0.000 C
ATOM     36  O5  BGC C   3      22.191   8.873   4.8400  0.00  0.00     0.000 O
ATOM     37   O  BGC C   3      23.079   5.551   3.3930  0.00  0.00     0.000 O
ATOM     39  HD  BGC C   3      22.308   5.937   3.4740  0.00  0.00     0.000 HD
ATOM     39   O  BGC C   3      20.368   5.453   3.2150  0.00  0.00     0.000 O
ATOM     41  HD  BGC C   3      19.597   5.839   3.2970  0.00  0.00     0.000 HD
ATOM     41   C  BGC C   3      20.234  10.206   4.9480  0.00  0.00     0.000 C
ATOM     42   O  BGC C   3      19.902   9.821   6.3300  0.00  0.00     0.000 O
ATOM     44  HD  BGC C   3      19.131  10.206   6.4120  0.00  0.00     0.000 HD
BRANCH 31 44
ATOM     44  O4  BGC C   4      24.221   7.854   4.8800  0.00  0.00     0.000 O
BRANCH 44 48
ATOM     45  C1  BGC C   4      28.092   9.152   5.1810  0.00  0.00     0.000 C
ATOM     46  C2  BGC C   4      27.084  10.268   5.6030  0.00  0.00     0.000 C
ATOM     47  C3  BGC C   4      25.770   9.483   5.7130  0.00  0.00     0.000 C
ATOM     48  C4  BGC C   4      25.347   8.612   4.5470  0.00  0.00     0.000 C
ATOM     49  C5  BGC C   4      26.494   7.614   4.3200  0.00  0.00     0.000 C
ATOM     50  O5  BGC C   4      27.694   8.275   4.1170  0.00  0.00     0.000 O
ATOM     51   O  BGC C   4      27.240  11.095   6.8920  0.00  0.00     0.000 O
ATOM     53  HD  BGC C   4      26.543  11.586   7.0410  0.00  0.00     0.000 HD
ATOM     53   O  BGC C   4      24.789  10.624   5.6970  0.00  0.00     0.000 O
ATOM     55  HD  BGC C   4      24.091  11.115   5.8450  0.00  0.00     0.000 HD
ATOM     55   C  BGC C   4      26.269   6.792   3.0770  0.00  0.00     0.000 C
ATOM     56   O  BGC C   4      26.079   7.536   1.8680  0.00  0.00     0.000 O
ATOM     58  HD  BGC C   4      25.382   8.028   2.0160  0.00  0.00     0.000 HD
BRANCH 45 58
ATOM     58  O4  BGC C   5      29.324   9.677   4.7850  0.00  0.00     0.000 O
BRANCH 58 62
ATOM     59  C1  BGC C   5      30.888  10.549   7.2650  0.00  0.00     0.000 C
ATOM     60  C2  BGC C   5      31.745  10.808   6.1290  0.00  0.00     0.000 C
ATOM     61  C3  BGC C   5      31.783   9.666   5.1170  0.00  0.00     0.000 C
ATOM     62  C4  BGC C   5      30.473   8.895   5.1940  0.00  0.00     0.000 C
ATOM     63  C5  BGC C   5      30.164   8.682   6.6580  0.00  0.00     0.000 C
ATOM     64  O5  BGC C   5      30.873   9.461   7.6190  0.00  0.00     0.000 O
ATOM     65   O  BGC C   5      31.604   6.761   6.9200  0.00  0.00     0.000 O
ATOM     67  HD  BGC C   5      30.805   7.051   6.7550  0.00  0.00     0.000 HD
ATOM     67   O  BGC C   5      31.604   6.761   6.9200  0.00  0.00     0.000 O
ATOM     69  HD  BGC C   5      30.805   7.051   6.7550  0.00  0.00     0.000 HD
ENDBRANCH 58 62
ENDBRANCH 45 58
ENDBRANCH 44 48
ENDBRANCH 31 44
ENDBRANCH 30 34
ENDBRANCH 17 30
ENDBRANCH 16 20
ENDBRANCH 1 16
TORSDOF 8
ENDMDL
MODEL 33
REMARK VINA RESULT:      -3.3      3.314      4.611
ROOT
ATOM      1  C1  BGC C   1       4.288   2.664   8.8410  0.00  0.00     0.000 C
ATOM      2  C2  BGC C   1       3.712   1.441   9.5530  0.00  0.00     0.000 C
ATOM      3  C3  BGC C   1       2.196   1.410   9.3950  0.00  0.00     0.000 C
ATOM      4  C4  BGC C   1       1.552   2.736   9.7660  0.00  0.00     0.000 C
ATOM      5  C5  BGC C   1       2.310   3.891   9.1190  0.00  0.00     0.000 C
ATOM      6  O5  BGC C   1       3.690   3.821   9.2860  0.00  0.00     0.000 O
ATOM      7   O  BGC C   1       4.288   0.299   8.9660  0.00  0.00     0.000 O
ATOM      9  HD  BGC C   1       3.899   0.339   9.7380  0.00  0.00     0.000 HD
ATOM      9   O  BGC C   1       1.689   0.327  10.1840  0.00  0.00     0.000 O
ATOM     11  HD  BGC C   1       1.299   0.366  10.9570  0.00  0.00     0.000 HD
ATOM     11   O  BGC C   1       0.207   2.683   9.3040  0.00  0.00     0.000 O
ATOM     13  HD  BGC C   1      -0.183   2.723  10.0770  0.00  0.00     0.000 HD
ATOM     13   O  BGC C   1       2.202   5.322  11.1380  0.00  0.00     0.000 O
ATOM     15  HD  BGC C   1       1.813   5.362  11.9110  0.00  0.00     0.000 HD
ATOM     15   C  BGC C   1       1.806   5.205   9.7440  0.00  0.00     0.000 C
ENDROOT
BRANCH 1 16
ATOM     16  O4  BGC C   2       5.658   2.763   9.1510  0.00  0.00     0.000 O
BRANCH 16 20
ATOM     17  C1  BGC C   2       9.096   3.922   7.2780  0.00  0.00     0.000 C
ATOM     18  C2  BGC C   2       8.294   5.031   7.9410  0.00  0.00     0.000 C
ATOM     19  C3  BGC C   2       7.260   4.452   8.8960  0.00  0.00     0.000 C
ATOM     20  C4  BGC C   2       6.451   3.417   8.1900  0.00  0.00     0.000 C
ATOM     21  C5  BGC C   2       7.351   2.398   7.4960  0.00  0.00     0.000 C
ATOM     22  O5  BGC C   2       8.241   3.029   6.6250  0.00  0.00     0.000 O
ATOM     23   O  BGC C   2       9.195   5.900   8.6430  0.00  0.00     0.000 O
ATOM     25  HD  BGC C   2       8.852   6.133   9.4030  0.00  0.00     0.000 HD
ATOM     25   O  BGC C   2       6.410   5.497   9.3540  0.00  0.00     0.000 O
ATOM     27  HD  BGC C   2       6.066   5.730  10.1140  0.00  0.00     0.000 HD
ATOM     27   C  BGC C   2       6.601   1.295   6.7200  0.00  0.00     0.000 C
ATOM     28   O  BGC C   2       5.678   1.860   5.7750  0.00  0.00     0.000 O
ATOM     30  HD  BGC C   2       5.334   2.093   6.5350  0.00  0.00     0.000 HD
BRANCH 17 30
ATOM     30  O4  BGC C   3       9.970   4.487   6.3240  0.00  0.00     0.000 O
BRANCH 30 34
ATOM     31  C1  BGC C   3      13.634   3.780   4.7700  0.00  0.00     0.000 C
ATOM     32  C2  BGC C   3      12.438   3.312   3.9080  0.00  0.00     0.000 C
ATOM     33  C3  BGC C   3      11.162   3.915   4.3830  0.00  0.00     0.000 C
ATOM     34  C4  BGC C   3      11.040   3.662   5.8880  0.00  0.00     0.000 C
ATOM     35  C5  BGC C   3      12.314   4.032   6.6900  0.00  0.00     0.000 C
ATOM     36  O5  BGC C   3      13.442   3.421   6.1160  0.00  0.00     0.000 O
ATOM     37   O  BGC C   3      12.490   3.532   2.5110  0.00  0.00     0.000 O
ATOM     39  HD  BGC C   3      11.993   3.520   3.2200  0.00  0.00     0.000 HD
ATOM     39   O  BGC C   3      10.033   3.342   3.6600  0.00  0.00     0.000 O
ATOM     41  HD  BGC C   3       9.536   3.330   4.3690  0.00  0.00     0.000 HD
ATOM     41   C  BGC C   3      12.294   3.622   8.1800  0.00  0.00     0.000 C
ATOM     42   O  BGC C   3      12.242   2.171   8.4300  0.00  0.00     0.000 O
ATOM     44  HD  BGC C   3      11.745   2.160   9.1390  0.00  0.00     0.000 HD
BRANCH 31 44
ATOM     44  O4  BGC C   4      14.822   3.217   4.3220  0.00  0.00     0.000 O
BRANCH 44 48
ATOM     45  C1  BGC C   4      18.878   3.731   4.1120  0.00  0.00     0.000 C
ATOM     46  C2  BGC C   4      18.445   3.192   5.5130  0.00  0.00     0.000 C
ATOM     47  C3  BGC C   4      16.986   2.790   5.2610  0.00  0.00     0.000 C
ATOM     48  C4  BGC C   4      16.055   3.801   4.6220  0.00  0.00     0.000 C
ATOM     49  C5  BGC C   4      16.696   4.183   3.2780  0.00  0.00     0.000 C
ATOM     50  O5  BGC C   4      17.988   4.648   3.4570  0.00  0.00     0.000 O
ATOM     51   O  BGC C   4      19.141   2.007   6.2060  0.00  0.00     0.000 O
ATOM     53  HD  BGC C   4      18.712   1.758   6.9160  0.00  0.00     0.000 HD
ATOM     53   O  BGC C   4      16.500   2.686   6.6810  0.00  0.00     0.000 O
ATOM     55  HD  BGC C   4      16.071   2.437   7.3910  0.00  0.00     0.000 HD
ATOM     55   C  BGC C   4      15.949   5.310   2.6130  0.00  0.00     0.000 C
ATOM     56   O  BGC C   4      15.805   6.503   3.3930  0.00  0.00     0.000 O
ATOM     58  HD  BGC C   4      15.376   6.254   4.1030  0.00  0.00     0.000 HD
BRANCH 45 58
ATOM     58  O4  BGC C   5      20.112   4.384   4.1570  0.00  0.00     0.000 O
BRANCH 58 62
ATOM     59  C1  BGC C   5      22.700   6.008   4.2800  0.00  0.00     0.000 C
ATOM     60  C2  BGC C   5      21.957   6.333   5.4770  0.00  0.00     0.000 C
ATOM     61  C3  BGC C   5      20.474   6.593   5.2260  0.00  0.00     0.000 C
ATOM     62  C4  BGC C   5      20.040   5.821   3.9880  0.00  0.00     0.000 C
ATOM     63  C5  BGC C   5      21.100   6.035   2.9320  0.00  0.00     0.000 C
ATOM     64  O5  BGC C   5      22.361   6.563   3.3370  0.00  0.00     0.000 O
ATOM     65   O  BGC C   5      20.263   8.180   2.2000  0.00  0.00     0.000 O
ATOM     67  HD  BGC C   5      20.264   7.322   2.0800  0.00  0.00     0.000 HD
ATOM     67   O  BGC C   5      20.263   8.180   2.2000  0.00  0.00     0.000 O
ATOM     69  HD  BGC C   5      20.264   7.322   2.0800  0.00  0.00     0.000 HD
ENDBRANCH 58 62
ENDBRANCH 45 58
ENDBRANCH 44 48
ENDBRANCH 31 44
ENDBRANCH 30 34
ENDBRANCH 17 30
ENDBRANCH 16 20
ENDBRANCH 1 16
TORSDOF 8
ENDMDL
MODEL 34
REMARK VINA RESULT:      -3.2      5.271      8.920
ROOT
ATOM      1  C1  BGC C   1      12.983   6.316   2.4600  0.00  0.00     0.000 C
ATOM      2  C2  BGC C   1      11.919   5.556   3.2510  0.00  0.00     0.000 C
ATOM      3  C3  BGC C   1      10.801   5.102   2.3200  0.00  0.00     0.000 C
ATOM      4  C4  BGC C   1      10.275   6.237   1.4580  0.00  0.00     0.000 C
ATOM      5  C5  BGC C   1      11.434   7.018   0.8470  0.00  0.00     0.000 C
ATOM      6  O5  BGC C   1      12.425   7.363   1.7630  0.00  0.00     0.000 O
ATOM      7   O  BGC C   1      12.547   4.442   3.8410  0.00  0.00     0.000 O
ATOM      9  HD  BGC C   1      11.791   4.791   4.0780  0.00  0.00     0.000 HD
ATOM      9   O  BGC C   1       9.768   4.512   3.1200  0.00  0.00     0.000 O
ATOM     11  HD  BGC C   1       9.012   4.861   3.3570  0.00  0.00     0.000 HD
ATOM     11   O  BGC C   1       9.466   5.646   0.4470  0.00  0.00     0.000 O
ATOM     13  HD  BGC C   1       8.710   5.995   0.6840  0.00  0.00     0.000 HD
ATOM     13   O  BGC C   1      10.386   9.227   1.2460  0.00  0.00     0.000 O
ATOM     15  HD  BGC C   1       9.630   9.576   1.4830  0.00  0.00     0.000 HD
ATOM     15   C  BGC C   1      10.869   8.309   0.2260  0.00  0.00     0.000 C
ENDROOT
BRANCH 1 16
ATOM     16  O4  BGC C   2      13.907   6.871   3.3660  0.00  0.00     0.000 O
BRANCH 16 20
ATOM     17  C1  BGC C   2      17.883   7.801   3.3990  0.00  0.00     0.000 C
ATOM     18  C2  BGC C   2      16.949   8.893   2.9010  0.00  0.00     0.000 C
ATOM     19  C3  BGC C   2      15.507   8.580   3.2720  0.00  0.00     0.000 C
ATOM     20  C4  BGC C   2      15.165   7.198   2.8250  0.00  0.00     0.000 C
ATOM     21  C5  BGC C   2      16.203   6.192   3.3120  0.00  0.00     0.000 C
ATOM     22  O5  BGC C   2      17.485   6.558   2.8970  0.00  0.00     0.000 O
ATOM     23   O  BGC C   2      17.354  10.146   3.4750  0.00  0.00     0.000 O
ATOM     25  HD  BGC C   2      16.657  10.605   3.7060  0.00  0.00     0.000 HD
ATOM     25   O  BGC C   2      14.647   9.518   2.6360  0.00  0.00     0.000 O
ATOM     27  HD  BGC C   2      13.950   9.978   2.8680  0.00  0.00     0.000 HD
ATOM     27   C  BGC C   2      15.943   4.734   2.8800  0.00  0.00     0.000 C
ATOM     28   O  BGC C   2      15.790   4.632   1.4550  0.00  0.00     0.000 O
ATOM     30  HD  BGC C   2      15.093   5.092   1.6870  0.00  0.00     0.000 HD
BRANCH 17 30
ATOM     30  O4  BGC C   3      19.194   8.069   2.9490  0.00  0.00     0.000 O
BRANCH 30 34
ATOM     31  C1  BGC C   3      23.050   7.943   4.1560  0.00  0.00     0.000 C
ATOM     32  C2  BGC C   3      22.350   6.572   4.0010  0.00  0.00     0.000 C
ATOM     33  C3  BGC C   3      21.079   6.699   3.2350  0.00  0.00     0.000 C
ATOM     34  C4  BGC C   3      20.240   7.808   3.8730  0.00  0.00     0.000 C
ATOM     35  C5  BGC C   3      21.024   9.122   4.1210  0.00  0.00     0.000 C
ATOM     36  O5  BGC C   3      22.210   8.852   4.8260  0.00  0.00     0.000 O
ATOM     37   O  BGC C   3      23.074   5.512   3.4050  0.00  0.00     0.000 O
ATOM     39  HD  BGC C   3      22.306   5.903   3.4860  0.00  0.00     0.000 HD
ATOM     39   O  BGC C   3      20.362   5.429   3.2360  0.00  0.00     0.000 O
ATOM     41  HD  BGC C   3      19.593   5.821   3.3160  0.00  0.00     0.000 HD
ATOM     41   C  BGC C   3      20.262  10.199   4.9270  0.00  0.00     0.000 C
ATOM     42   O  BGC C   3      19.932   9.827   6.3130  0.00  0.00     0.000 O
ATOM     44  HD  BGC C   3      19.163  10.218   6.3940  0.00  0.00     0.000 HD
BRANCH 31 44
ATOM     44  O4  BGC C   4      24.235   7.820   4.8700  0.00  0.00     0.000 O
BRANCH 44 48
ATOM     45  C1  BGC C   4      28.111   9.106   5.1540  0.00  0.00     0.000 C
ATOM     46  C2  BGC C   4      27.110  10.209   5.6240  0.00  0.00     0.000 C
ATOM     47  C3  BGC C   4      25.797   9.423   5.7290  0.00  0.00     0.000 C
ATOM     48  C4  BGC C   4      25.356   8.588   4.5430  0.00  0.00     0.000 C
ATOM     49  C5  BGC C   4      26.498   7.597   4.2680  0.00  0.00     0.000 C
ATOM     50  O5  BGC C   4      27.696   8.263   4.0680  0.00  0.00     0.000 O
ATOM     51   O  BGC C   4      27.286  10.996   6.9360  0.00  0.00     0.000 O
ATOM     53  HD  BGC C   4      26.591  11.483   7.1100  0.00  0.00     0.000 HD
ATOM     53   O  BGC C   4      24.817  10.564   5.7630  0.00  0.00     0.000 O
ATOM     55  HD  BGC C   4      24.122  11.051   5.9370  0.00  0.00     0.000 HD
ATOM     55   C  BGC C   4      26.254   6.814   3.0040  0.00  0.00     0.000 C
ATOM     56   O  BGC C   4      26.048   7.595   1.8220  0.00  0.00     0.000 O
ATOM     58  HD  BGC C   4      25.353   8.082   1.9960  0.00  0.00     0.000 HD
BRANCH 45 58
ATOM     58  O4  BGC C   5      29.338   9.643   4.7560  0.00  0.00     0.000 O
BRANCH 58 62
ATOM     59  C1  BGC C   5      31.843  10.766   3.4080  0.00  0.00     0.000 C
ATOM     60  C2  BGC C   5      31.567  11.624   4.5390  0.00  0.00     0.000 C
ATOM     61  C3  BGC C   5      30.095  12.004   4.6760  0.00  0.00     0.000 C
ATOM     62  C4  BGC C   5      29.243  10.907   4.0540  0.00  0.00     0.000 C
ATOM     63  C5  BGC C   5      29.875  10.545   2.7310  0.00  0.00     0.000 C
ATOM     64  O5  BGC C   5      31.210  10.978   2.4770  0.00  0.00     0.000 O
ATOM     65   O  BGC C   5      28.883  12.368   1.4950  0.00  0.00     0.000 O
ATOM     67  HD  BGC C   5      28.823  11.539   1.7370  0.00  0.00     0.000 HD
ATOM     67   O  BGC C   5      28.883  12.368   1.4950  0.00  0.00     0.000 O
ATOM     69  HD  BGC C   5      28.823  11.539   1.7370  0.00  0.00     0.000 HD
ENDBRANCH 58 62
ENDBRANCH 45 58
ENDBRANCH 44 48
ENDBRANCH 31 44
ENDBRANCH 30 34
ENDBRANCH 17 30
ENDBRANCH 16 20
ENDBRANCH 1 16
TORSDOF 8
ENDMDL
MODEL 35
REMARK VINA RESULT:      -3.2      9.646     12.347
ROOT
ATOM      1  C1  BGC C   1      13.320   6.164   2.5780  0.00  0.00     0.000 C
ATOM      2  C2  BGC C   1      12.877   5.370   3.8060  0.00  0.00     0.000 C
ATOM      3  C3  BGC C   1      12.416   3.978   3.3890  0.00  0.00     0.000 C
ATOM      4  C4  BGC C   1      11.408   4.023   2.2530  0.00  0.00     0.000 C
ATOM      5  C5  BGC C   1      11.890   4.969   1.1570  0.00  0.00     0.000 C
ATOM      6  O5  BGC C   1      12.323   6.204   1.6310  0.00  0.00     0.000 O
ATOM      7   O  BGC C   1      13.983   5.280   4.6720  0.00  0.00     0.000 O
ATOM      9  HD  BGC C   1      13.153   5.156   4.8850  0.00  0.00     0.000 HD
ATOM      9   O  BGC C   1      11.889   3.319   4.5490  0.00  0.00     0.000 O
ATOM     11  HD  BGC C   1      11.059   3.195   4.7610  0.00  0.00     0.000 HD
ATOM     11   O  BGC C   1      11.282   2.693   1.7620  0.00  0.00     0.000 O
ATOM     13  HD  BGC C   1      10.452   2.569   1.9750  0.00  0.00     0.000 HD
ATOM     13   O  BGC C   1       9.651   5.965   0.7910  0.00  0.00     0.000 O
ATOM     15  HD  BGC C   1       8.821   5.841   1.0030  0.00  0.00     0.000 HD
ATOM     15   C  BGC C   1      10.725   5.199   0.1770  0.00  0.00     0.000 C
ENDROOT
BRANCH 1 16
ATOM     16  O4  BGC C   2      13.571   7.494   2.9680  0.00  0.00     0.000 O
BRANCH 16 20
ATOM     17  C1  BGC C   2      16.144  10.515   2.0060  0.00  0.00     0.000 C
ATOM     18  C2  BGC C   2      14.993  10.289   1.0380  0.00  0.00     0.000 C
ATOM     19  C3  BGC C   2      13.922   9.411   1.6690  0.00  0.00     0.000 C
ATOM     20  C4  BGC C   2      14.548   8.172   2.2150  0.00  0.00     0.000 C
ATOM     21  C5  BGC C   2      15.737   8.507   3.1100  0.00  0.00     0.000 C
ATOM     22  O5  BGC C   2      16.670   9.290   2.4280  0.00  0.00     0.000 O
ATOM     23   O  BGC C   2      14.444  11.561   0.6640  0.00  0.00     0.000 O
ATOM     25  HD  BGC C   2      13.580  11.514   0.6310  0.00  0.00     0.000 HD
ATOM     25   O  BGC C   2      12.957   9.069   0.6820  0.00  0.00     0.000 O
ATOM     27  HD  BGC C   2      12.092   9.022   0.6480  0.00  0.00     0.000 HD
ATOM     27   C  BGC C   2      16.462   7.283   3.7060  0.00  0.00     0.000 C
ATOM     28   O  BGC C   2      16.865   6.364   2.6770  0.00  0.00     0.000 O
ATOM     30  HD  BGC C   2      16.001   6.317   2.6430  0.00  0.00     0.000 HD
BRANCH 17 30
ATOM     30  O4  BGC C   3      17.164  11.242   1.3540  0.00  0.00     0.000 O
BRANCH 30 34
ATOM     31  C1  BGC C   3      19.971  14.054   2.0980  0.00  0.00     0.000 C
ATOM     32  C2  BGC C   3      20.382  12.596   2.4120  0.00  0.00     0.000 C
ATOM     33  C3  BGC C   3      19.439  11.625   1.7910  0.00  0.00     0.000 C
ATOM     34  C4  BGC C   3      18.014  12.016   2.1880  0.00  0.00     0.000 C
ATOM     35  C5  BGC C   3      17.693  13.516   1.9700  0.00  0.00     0.000 C
ATOM     36  O5  BGC C   3      18.676  14.315   2.5810  0.00  0.00     0.000 O
ATOM     37   O  BGC C   3      21.686  12.174   2.0550  0.00  0.00     0.000 O
ATOM     39  HD  BGC C   3      20.849  11.958   2.1110  0.00  0.00     0.000 HD
ATOM     39   O  BGC C   3      19.753  10.269   2.2260  0.00  0.00     0.000 O
ATOM     41  HD  BGC C   3      18.917  10.052   2.2820  0.00  0.00     0.000 HD
ATOM     41   C  BGC C   3      16.329  13.984   2.5270  0.00  0.00     0.000 C
ATOM     42   O  BGC C   3      16.187  13.897   3.9910  0.00  0.00     0.000 O
ATOM     44  HD  BGC C   3      15.350  13.681   4.0470  0.00  0.00     0.000 HD
BRANCH 31 44
ATOM     44  O4  BGC C   4      20.853  14.956   2.6770  0.00  0.00     0.000 O
BRANCH 44 48
ATOM     45  C1  BGC C   4      22.864  18.479   2.1260  0.00  0.00     0.000 C
ATOM     46  C2  BGC C   4      21.318  18.695   2.0850  0.00  0.00     0.000 C
ATOM     47  C3  BGC C   4      20.796  17.352   2.6120  0.00  0.00     0.000 C
ATOM     48  C4  BGC C   4      21.306  16.075   1.9730  0.00  0.00     0.000 C
ATOM     49  C5  BGC C   4      22.835  16.100   2.1280  0.00  0.00     0.000 C
ATOM     50  O5  BGC C   4      23.372  17.253   1.5790  0.00  0.00     0.000 O
ATOM     51   O  BGC C   4      20.606  19.810   2.8720  0.00  0.00     0.000 O
ATOM     53  HD  BGC C   4      19.745  19.724   2.8380  0.00  0.00     0.000 HD
ATOM     53   O  BGC C   4      19.362  17.442   2.1670  0.00  0.00     0.000 O
ATOM     55  HD  BGC C   4      18.501  17.355   2.1320  0.00  0.00     0.000 HD
ATOM     55   C  BGC C   4      23.481  14.959   1.3850  0.00  0.00     0.000 C
ATOM     56   O  BGC C   4      23.175  14.877  -0.0120  0.00  0.00     0.000 O
ATOM     58  HD  BGC C   4      22.314  14.791  -0.0460  0.00  0.00     0.000 HD
BRANCH 45 58
ATOM     58  O4  BGC C   5      23.556  19.494   1.4600  0.00  0.00     0.000 O
BRANCH 58 62
ATOM     59  C1  BGC C   5      25.152  21.780   0.2050  0.00  0.00     0.000 C
ATOM     60  C2  BGC C   5      26.092  21.006   0.9860  0.00  0.00     0.000 C
ATOM     61  C3  BGC C   5      25.570  20.622   2.3680  0.00  0.00     0.000 C
ATOM     62  C4  BGC C   5      24.050  20.551   2.3190  0.00  0.00     0.000 C
ATOM     63  C5  BGC C   5      23.568  21.772   1.5710  0.00  0.00     0.000 C
ATOM     64  O5  BGC C   5      24.515  22.516   0.8080  0.00  0.00     0.000 O
ATOM     65   O  BGC C   5      23.690  23.264   3.4670  0.00  0.00     0.000 O
ATOM     67  HD  BGC C   5      23.197  22.733   2.9930  0.00  0.00     0.000 HD
ATOM     67   O  BGC C   5      23.690  23.264   3.4670  0.00  0.00     0.000 O
ATOM     69  HD  BGC C   5      23.197  22.733   2.9930  0.00  0.00     0.000 HD
ENDBRANCH 58 62
ENDBRANCH 45 58
ENDBRANCH 44 48
ENDBRANCH 31 44
ENDBRANCH 30 34
ENDBRANCH 17 30
ENDBRANCH 16 20
ENDBRANCH 1 16
TORSDOF 8
ENDMDL
MODEL 36
REMARK VINA RESULT:      -3.2      4.469      8.615
ROOT
ATOM      1  C1  BGC C   1      13.185   6.271   2.4290  0.00  0.00     0.000 C
ATOM      2  C2  BGC C   1      12.171   5.429   3.2020  0.00  0.00     0.000 C
ATOM      3  C3  BGC C   1      11.062   4.960   2.2670  0.00  0.00     0.000 C
ATOM      4  C4  BGC C   1      10.469   6.103   1.4600  0.00  0.00     0.000 C
ATOM      5  C5  BGC C   1      11.581   6.963   0.8660  0.00  0.00     0.000 C
ATOM      6  O5  BGC C   1      12.567   7.317   1.7830  0.00  0.00     0.000 O
ATOM      7   O  BGC C   1      12.859   4.324   3.7370  0.00  0.00     0.000 O
ATOM      9  HD  BGC C   1      12.091   4.626   3.9980  0.00  0.00     0.000 HD
ATOM      9   O  BGC C   1      10.070   4.289   3.0550  0.00  0.00     0.000 O
ATOM     11  HD  BGC C   1       9.302   4.591   3.3160  0.00  0.00     0.000 HD
ATOM     11   O  BGC C   1       9.675   5.515   0.4350  0.00  0.00     0.000 O
ATOM     13  HD  BGC C   1       8.907   5.817   0.6960  0.00  0.00     0.000 HD
ATOM     13   O  BGC C   1      10.435   9.101   1.3690  0.00  0.00     0.000 O
ATOM     15  HD  BGC C   1       9.667   9.403   1.6300  0.00  0.00     0.000 HD
ATOM     15   C  BGC C   1      10.946   8.249   0.3070  0.00  0.00     0.000 C
ENDROOT
BRANCH 1 16
ATOM     16  O4  BGC C   2      14.095   6.833   3.3460  0.00  0.00     0.000 O
BRANCH 16 20
ATOM     17  C1  BGC C   2      18.046   7.864   3.4160  0.00  0.00     0.000 C
ATOM     18  C2  BGC C   2      17.092   8.921   2.8820  0.00  0.00     0.000 C
ATOM     19  C3  BGC C   2      15.652   8.579   3.2380  0.00  0.00     0.000 C
ATOM     20  C4  BGC C   2      15.352   7.180   2.8160  0.00  0.00     0.000 C
ATOM     21  C5  BGC C   2      16.408   6.211   3.3390  0.00  0.00     0.000 C
ATOM     22  O5  BGC C   2      17.686   6.601   2.9340  0.00  0.00     0.000 O
ATOM     23   O  BGC C   2      17.457  10.195   3.4340  0.00  0.00     0.000 O
ATOM     25  HD  BGC C   2      16.745  10.642   3.6450  0.00  0.00     0.000 HD
ATOM     25   O  BGC C   2      14.779   9.482   2.5710  0.00  0.00     0.000 O
ATOM     27  HD  BGC C   2      14.068   9.929   2.7820  0.00  0.00     0.000 HD
ATOM     27   C  BGC C   2      16.191   4.739   2.9340  0.00  0.00     0.000 C
ATOM     28   O  BGC C   2      16.062   4.604   1.5100  0.00  0.00     0.000 O
ATOM     30  HD  BGC C   2      15.350   5.050   1.7210  0.00  0.00     0.000 HD
BRANCH 17 30
ATOM     30  O4  BGC C   3      19.356   8.156   2.9790  0.00  0.00     0.000 O
BRANCH 30 34
ATOM     31  C1  BGC C   3      22.979   7.134   4.4520  0.00  0.00     0.000 C
ATOM     32  C2  BGC C   3      22.739   6.790   2.9620  0.00  0.00     0.000 C
ATOM     33  C3  BGC C   3      21.544   7.502   2.4310  0.00  0.00     0.000 C
ATOM     34  C4  BGC C   3      20.367   7.241   3.3740  0.00  0.00     0.000 C
ATOM     35  C5  BGC C   3      20.699   7.481   4.8690  0.00  0.00     0.000 C
ATOM     36  O5  BGC C   3      21.861   6.775   5.2260  0.00  0.00     0.000 O
ATOM     37   O  BGC C   3      23.788   7.024   2.0410  0.00  0.00     0.000 O
ATOM     39  HD  BGC C   3      22.934   7.049   2.1810  0.00  0.00     0.000 HD
ATOM     39   O  BGC C   3      21.245   7.046   1.0780  0.00  0.00     0.000 O
ATOM     41  HD  BGC C   3      20.391   7.071   1.2180  0.00  0.00     0.000 HD
ATOM     41   C  BGC C   3      19.595   7.054   5.8630  0.00  0.00     0.000 C
ATOM     42   O  BGC C   3      19.300   5.611   5.8910  0.00  0.00     0.000 O
ATOM     44  HD  BGC C   3      18.446   5.636   6.0300  0.00  0.00     0.000 HD
BRANCH 31 44
ATOM     44  O4  BGC C   4      24.095   6.469   4.9430  0.00  0.00     0.000 O
BRANCH 44 48
ATOM     45  C1  BGC C   4      27.399   6.813   7.3350  0.00  0.00     0.000 C
ATOM     46  C2  BGC C   4      26.083   7.021   8.1500  0.00  0.00     0.000 C
ATOM     47  C3  BGC C   4      25.015   6.549   7.1550  0.00  0.00     0.000 C
ATOM     48  C4  BGC C   4      25.026   7.124   5.7520  0.00  0.00     0.000 C
ATOM     49  C5  BGC C   4      26.412   6.806   5.1700  0.00  0.00     0.000 C
ATOM     50  O5  BGC C   4      27.419   7.299   5.9840  0.00  0.00     0.000 O
ATOM     51   O  BGC C   4      25.809   6.320   9.4920  0.00  0.00     0.000 O
ATOM     53  HD  BGC C   4      24.994   6.446   9.7570  0.00  0.00     0.000 HD
ATOM     53   O  BGC C   4      23.790   7.147   7.7910  0.00  0.00     0.000 O
ATOM     55  HD  BGC C   4      22.975   7.273   8.0550  0.00  0.00     0.000 HD
ATOM     55   C  BGC C   4      26.612   7.471   3.8320  0.00  0.00     0.000 C
ATOM     56   O  BGC C   4      26.436   8.892   3.8150  0.00  0.00     0.000 O
ATOM     58  HD  BGC C   4      25.621   9.019   4.0790  0.00  0.00     0.000 HD
BRANCH 45 58
ATOM     58  O4  BGC C   5      28.502   7.405   7.9550  0.00  0.00     0.000 O
BRANCH 58 62
ATOM     59  C1  BGC C   5      29.989   5.860  10.1360  0.00  0.00     0.000 C
ATOM     60  C2  BGC C   5      30.754   7.063   9.8930  0.00  0.00     0.000 C
ATOM     61  C3  BGC C   5      30.940   7.384   8.4130  0.00  0.00     0.000 C
ATOM     62  C4  BGC C   5      29.775   6.795   7.6300  0.00  0.00     0.000 C
ATOM     63  C5  BGC C   5      29.555   5.391   8.1430  0.00  0.00     0.000 C
ATOM     64  O5  BGC C   5      30.163   5.018   9.3780  0.00  0.00     0.000 O
ATOM     65   O  BGC C   5      31.295   4.382   6.8040  0.00  0.00     0.000 O
ATOM     67  HD  BGC C   5      30.454   4.579   6.8720  0.00  0.00     0.000 HD
ATOM     67   O  BGC C   5      31.295   4.382   6.8040  0.00  0.00     0.000 O
ATOM     69  HD  BGC C   5      30.454   4.579   6.8720  0.00  0.00     0.000 HD
ENDBRANCH 58 62
ENDBRANCH 45 58
ENDBRANCH 44 48
ENDBRANCH 31 44
ENDBRANCH 30 34
ENDBRANCH 17 30
ENDBRANCH 16 20
ENDBRANCH 1 16
TORSDOF 8
ENDMDL
MODEL 37
REMARK VINA RESULT:      -3.1      5.666     17.385
ROOT
ATOM      1  C1  BGC C   1      30.245   4.209  10.3830  0.00  0.00     0.000 C
ATOM      2  C2  BGC C   1      31.637   4.018   9.7820  0.00  0.00     0.000 C
ATOM      3  C3  BGC C   1      32.597   3.497  10.8450  0.00  0.00     0.000 C
ATOM      4  C4  BGC C   1      32.552   4.327  12.1170  0.00  0.00     0.000 C
ATOM      5  C5  BGC C   1      31.106   4.582  12.5310  0.00  0.00     0.000 C
ATOM      6  O5  BGC C   1      30.293   5.024  11.4900  0.00  0.00     0.000 O
ATOM      7   O  BGC C   1      31.520   3.089   8.7310  0.00  0.00     0.000 O
ATOM      9  HD  BGC C   1      32.172   3.646   8.8550  0.00  0.00     0.000 HD
ATOM      9   O  BGC C   1      33.913   3.458  10.2760  0.00  0.00     0.000 O
ATOM     11  HD  BGC C   1      34.564   4.015  10.3990  0.00  0.00     0.000 HD
ATOM     11   O  BGC C   1      33.248   3.589  13.1160  0.00  0.00     0.000 O
ATOM     13  HD  BGC C   1      33.899   4.146  13.2390  0.00  0.00     0.000 HD
ATOM     13   O  BGC C   1      31.512   6.950  13.1350  0.00  0.00     0.000 O
ATOM     15  HD  BGC C   1      32.163   7.507  13.2590  0.00  0.00     0.000 HD
ATOM     15   C  BGC C   1      31.105   5.648  13.6410  0.00  0.00     0.000 C
ENDROOT
BRANCH 1 16
ATOM     16  O4  BGC C   2      29.429   4.853   9.4330  0.00  0.00     0.000 O
BRANCH 16 20
ATOM     17  C1  BGC C   2      25.497   4.890   8.3320  0.00  0.00     0.000 C
ATOM     18  C2  BGC C   2      25.853   5.723   9.5540  0.00  0.00     0.000 C
ATOM     19  C3  BGC C   2      27.359   5.927   9.6480  0.00  0.00     0.000 C
ATOM     20  C4  BGC C   2      28.048   4.607   9.5540  0.00  0.00     0.000 C
ATOM     21  C5  BGC C   2      27.564   3.821   8.3390  0.00  0.00     0.000 C
ATOM     22  O5  BGC C   2      26.177   3.668   8.3640  0.00  0.00     0.000 O
ATOM     23   O  BGC C   2      25.180   6.988   9.4650  0.00  0.00     0.000 O
ATOM     25  HD  BGC C   2      25.706   7.623   9.7280  0.00  0.00     0.000 HD
ATOM     25   O  BGC C   2      27.670   6.545  10.8900  0.00  0.00     0.000 O
ATOM     27  HD  BGC C   2      28.196   7.181  11.1530  0.00  0.00     0.000 HD
ATOM     27   C  BGC C   2      28.210   2.430   8.1700  0.00  0.00     0.000 C
ATOM     28   O  BGC C   2      28.060   1.639   9.3600  0.00  0.00     0.000 O
ATOM     30  HD  BGC C   2      28.586   2.274   9.6230  0.00  0.00     0.000 HD
BRANCH 17 30
ATOM     30  O4  BGC C   3      24.109   4.632   8.3330  0.00  0.00     0.000 O
BRANCH 30 34
ATOM     31  C1  BGC C   3      20.957   4.222   5.8370  0.00  0.00     0.000 C
ATOM     32  C2  BGC C   3      22.031   3.112   5.7490  0.00  0.00     0.000 C
ATOM     33  C3  BGC C   3      22.951   3.158   6.9190  0.00  0.00     0.000 C
ATOM     34  C4  BGC C   3      23.478   4.588   7.0630  0.00  0.00     0.000 C
ATOM     35  C5  BGC C   3      22.369   5.671   7.0190  0.00  0.00     0.000 C
ATOM     36  O5  BGC C   3      21.562   5.491   5.8830  0.00  0.00     0.000 O
ATOM     37   O  BGC C   3      21.601   1.769   5.6290  0.00  0.00     0.000 O
ATOM     39  HD  BGC C   3      22.180   2.311   5.9770  0.00  0.00     0.000 HD
ATOM     39   O  BGC C   3      24.043   2.210   6.7400  0.00  0.00     0.000 O
ATOM     41  HD  BGC C   3      24.622   2.752   7.0880  0.00  0.00     0.000 HD
ATOM     41   C  BGC C   3      22.879   7.130   6.9770  0.00  0.00     0.000 C
ATOM     42   O  BGC C   3      23.645   7.492   5.7730  0.00  0.00     0.000 O
ATOM     44  HD  BGC C   3      24.223   8.035   6.1210  0.00  0.00     0.000 HD
BRANCH 31 44
ATOM     44  O4  BGC C   4      20.101   4.174   4.7440  0.00  0.00     0.000 O
BRANCH 44 48
ATOM     45  C1  BGC C   4      16.167   4.223   3.6110  0.00  0.00     0.000 C
ATOM     46  C2  BGC C   4      16.726   5.671   3.7880  0.00  0.00     0.000 C
ATOM     47  C3  BGC C   4      18.236   5.418   3.8960  0.00  0.00     0.000 C
ATOM     48  C4  BGC C   4      18.728   4.389   4.8940  0.00  0.00     0.000 C
ATOM     49  C5  BGC C   4      18.036   3.067   4.5230  0.00  0.00     0.000 C
ATOM     50  O5  BGC C   4      16.659   3.215   4.5070  0.00  0.00     0.000 O
ATOM     51   O  BGC C   4      16.515   6.784   2.7460  0.00  0.00     0.000 O
ATOM     53  HD  BGC C   4      16.982   7.488   2.9340  0.00  0.00     0.000 HD
ATOM     53   O  BGC C   4      18.675   6.735   4.4750  0.00  0.00     0.000 O
ATOM     55  HD  BGC C   4      19.142   7.439   4.6630  0.00  0.00     0.000 HD
ATOM     55   C  BGC C   4      18.316   1.996   5.5450  0.00  0.00     0.000 C
ATOM     56   O  BGC C   4      17.965   2.320   6.8950  0.00  0.00     0.000 O
ATOM     58  HD  BGC C   4      18.432   3.024   7.0840  0.00  0.00     0.000 HD
BRANCH 45 58
ATOM     58  O4  BGC C   5      14.776   4.177   3.7320  0.00  0.00     0.000 O
BRANCH 58 62
ATOM     59  C1  BGC C   5      11.750   3.744   3.7950  0.00  0.00     0.000 C
ATOM     60  C2  BGC C   5      12.163   3.942   5.1670  0.00  0.00     0.000 C
ATOM     61  C3  BGC C   5      13.421   3.164   5.5460  0.00  0.00     0.000 C
ATOM     62  C4  BGC C   5      14.261   2.946   4.2960  0.00  0.00     0.000 C
ATOM     63  C5  BGC C   5      13.324   2.501   3.1980  0.00  0.00     0.000 C
ATOM     64  O5  BGC C   5      11.923   2.688   3.3870  0.00  0.00     0.000 O
ATOM     65   O  BGC C   5      13.264   0.182   3.8720  0.00  0.00     0.000 O
ATOM     67  HD  BGC C   5      13.632   0.781   3.3660  0.00  0.00     0.000 HD
ATOM     67   O  BGC C   5      13.264   0.182   3.8720  0.00  0.00     0.000 O
ATOM     69  HD  BGC C   5      13.632   0.781   3.3660  0.00  0.00     0.000 HD
ENDBRANCH 58 62
ENDBRANCH 45 58
ENDBRANCH 44 48
ENDBRANCH 31 44
ENDBRANCH 30 34
ENDBRANCH 17 30
ENDBRANCH 16 20
ENDBRANCH 1 16
TORSDOF 8
ENDMDL
MODEL 38
REMARK VINA RESULT:      -3.1      4.627      9.436
ROOT
ATOM      1  C1  BGC C   1      14.793   2.592   4.2520  0.00  0.00     0.000 C
ATOM      2  C2  BGC C   1      13.865   1.879   5.2360  0.00  0.00     0.000 C
ATOM      3  C3  BGC C   1      12.785   1.117   4.4760  0.00  0.00     0.000 C
ATOM      4  C4  BGC C   1      12.086   1.987   3.4440  0.00  0.00     0.000 C
ATOM      5  C5  BGC C   1      13.112   2.766   2.6280  0.00  0.00     0.000 C
ATOM      6  O5  BGC C   1      14.079   3.404   3.4010  0.00  0.00     0.000 O
ATOM      7   O  BGC C   1      14.652   0.990   5.9910  0.00  0.00     0.000 O
ATOM      9  HD  BGC C   1      13.865   1.284   6.2000  0.00  0.00     0.000 HD
ATOM      9   O  BGC C   1      11.866   0.576   5.4340  0.00  0.00     0.000 O
ATOM     11  HD  BGC C   1      11.078   0.870   5.6430  0.00  0.00     0.000 HD
ATOM     11   O  BGC C   1      11.329   1.112   2.6150  0.00  0.00     0.000 O
ATOM     13  HD  BGC C   1      10.542   1.407   2.8240  0.00  0.00     0.000 HD
ATOM     13   O  BGC C   1      11.798   4.866   2.6550  0.00  0.00     0.000 O
ATOM     15  HD  BGC C   1      11.011   5.160   2.8640  0.00  0.00     0.000 HD
ATOM     15   C  BGC C   1      12.363   3.830   1.8050  0.00  0.00     0.000 C
ENDROOT
BRANCH 1 16
ATOM     16  O4  BGC C   2      15.665   3.424   4.9800  0.00  0.00     0.000 O
BRANCH 16 20
ATOM     17  C1  BGC C   2      19.516   4.763   4.7460  0.00  0.00     0.000 C
ATOM     18  C2  BGC C   2      18.545   5.354   3.7370  0.00  0.00     0.000 C
ATOM     19  C3  BGC C   2      17.105   5.072   4.1440  0.00  0.00     0.000 C
ATOM     20  C4  BGC C   2      16.938   3.613   4.4090  0.00  0.00     0.000 C
ATOM     21  C5  BGC C   2      18.007   3.105   5.3720  0.00  0.00     0.000 C
ATOM     22  O5  BGC C   2      19.287   3.391   4.8930  0.00  0.00     0.000 O
ATOM     23   O  BGC C   2      18.773   6.769   3.6490  0.00  0.00     0.000 O
ATOM     25  HD  BGC C   2      18.017   7.189   3.5950  0.00  0.00     0.000 HD
ATOM     25   O  BGC C   2      16.235   5.474   3.0930  0.00  0.00     0.000 O
ATOM     27  HD  BGC C   2      15.480   5.893   3.0380  0.00  0.00     0.000 HD
ATOM     27   C  BGC C   2      17.925   1.597   5.6900  0.00  0.00     0.000 C
ATOM     28   O  BGC C   2      17.932   0.810   4.4880  0.00  0.00     0.000 O
ATOM     30  HD  BGC C   2      17.176   1.230   4.4330  0.00  0.00     0.000 HD
BRANCH 17 30
ATOM     30  O4  BGC C   3      20.837   4.951   4.2860  0.00  0.00     0.000 O
BRANCH 30 34
ATOM     31  C1  BGC C   3      24.560   5.685   5.6790  0.00  0.00     0.000 C
ATOM     32  C2  BGC C   3      24.138   4.197   5.6450  0.00  0.00     0.000 C
ATOM     33  C3  BGC C   3      22.920   4.001   4.8110  0.00  0.00     0.000 C
ATOM     34  C4  BGC C   3      21.849   4.989   5.2810  0.00  0.00     0.000 C
ATOM     35  C5  BGC C   3      22.359   6.446   5.4180  0.00  0.00     0.000 C
ATOM     36  O5  BGC C   3      23.525   6.479   6.2030  0.00  0.00     0.000 O
ATOM     37   O  BGC C   3      25.084   3.240   5.2050  0.00  0.00     0.000 O
ATOM     39  HD  BGC C   3      24.252   3.483   5.2050  0.00  0.00     0.000 HD
ATOM     39   O  BGC C   3      22.450   2.625   4.9190  0.00  0.00     0.000 O
ATOM     41  HD  BGC C   3      21.619   2.869   4.9190  0.00  0.00     0.000 HD
ATOM     41   C  BGC C   3      21.359   7.433   6.0630  0.00  0.00     0.000 C
ATOM     42   O  BGC C   3      21.011   7.147   7.4650  0.00  0.00     0.000 O
ATOM     44  HD  BGC C   3      20.180   7.390   7.4650  0.00  0.00     0.000 HD
BRANCH 31 44
ATOM     44  O4  BGC C   4      25.697   5.862   6.4560  0.00  0.00     0.000 O
BRANCH 44 48
ATOM     45  C1  BGC C   4      29.236   7.894   6.7860  0.00  0.00     0.000 C
ATOM     46  C2  BGC C   4      28.015   8.831   7.0540  0.00  0.00     0.000 C
ATOM     47  C3  BGC C   4      26.865   7.824   7.1870  0.00  0.00     0.000 C
ATOM     48  C4  BGC C   4      26.680   6.787   6.0960  0.00  0.00     0.000 C
ATOM     49  C5  BGC C   4      28.003   6.010   6.0150  0.00  0.00     0.000 C
ATOM     50  O5  BGC C   4      29.070   6.866   5.7970  0.00  0.00     0.000 O
ATOM     51   O  BGC C   4      27.939   9.784   8.2610  0.00  0.00     0.000 O
ATOM     53  HD  BGC C   4      27.155  10.145   8.3320  0.00  0.00     0.000 HD
ATOM     53   O  BGC C   4      25.692   8.751   7.0190  0.00  0.00     0.000 O
ATOM     55  HD  BGC C   4      24.908   9.112   7.0900  0.00  0.00     0.000 HD
ATOM     55   C  BGC C   4      28.008   5.054   4.8510  0.00  0.00     0.000 C
ATOM     56   O  BGC C   4      27.754   5.638   3.5680  0.00  0.00     0.000 O
ATOM     58  HD  BGC C   4      26.970   5.999   3.6390  0.00  0.00     0.000 HD
BRANCH 45 58
ATOM     58  O4  BGC C   5      30.370   8.607   6.3900  0.00  0.00     0.000 O
BRANCH 58 62
ATOM     59  C1  BGC C   5      32.717  10.019   5.0300  0.00  0.00     0.000 C
ATOM     60  C2  BGC C   5      32.223  10.928   6.0410  0.00  0.00     0.000 C
ATOM     61  C3  BGC C   5      30.702  11.045   6.0700  0.00  0.00     0.000 C
ATOM     62  C4  BGC C   5      30.098   9.751   5.5430  0.00  0.00     0.000 C
ATOM     63  C5  BGC C   5      30.866   9.371   4.2990  0.00  0.00     0.000 C
ATOM     64  O5  BGC C   5      32.117  10.012   4.0540  0.00  0.00     0.000 O
ATOM     65   O  BGC C   5      29.647  10.841   2.8190  0.00  0.00     0.000 O
ATOM     67  HD  BGC C   5      29.721  10.045   3.1520  0.00  0.00     0.000 HD
ATOM     67   O  BGC C   5      29.647  10.841   2.8190  0.00  0.00     0.000 O
ATOM     69  HD  BGC C   5      29.721  10.045   3.1520  0.00  0.00     0.000 HD
ENDBRANCH 58 62
ENDBRANCH 45 58
ENDBRANCH 44 48
ENDBRANCH 31 44
ENDBRANCH 30 34
ENDBRANCH 17 30
ENDBRANCH 16 20
ENDBRANCH 1 16
TORSDOF 8
ENDMDL
MODEL 39
REMARK VINA RESULT:      -3.0      4.952     10.599
ROOT
ATOM      1  C1  BGC C   1      15.826   1.842   5.7400  0.00  0.00     0.000 C
ATOM      2  C2  BGC C   1      15.087   1.358   6.9870  0.00  0.00     0.000 C
ATOM      3  C3  BGC C   1      13.844   0.573   6.5860  0.00  0.00     0.000 C
ATOM      4  C4  BGC C   1      12.988   1.325   5.5810  0.00  0.00     0.000 C
ATOM      5  C5  BGC C   1      13.860   1.893   4.4650  0.00  0.00     0.000 C
ATOM      6  O5  BGC C   1      14.990   2.566   4.9220  0.00  0.00     0.000 O
ATOM      7   O  BGC C   1      15.973   0.537   7.7110  0.00  0.00     0.000 O
ATOM      9  HD  BGC C   1      15.258   0.918   8.0180  0.00  0.00     0.000 HD
ATOM      9   O  BGC C   1      13.116   0.253   7.7790  0.00  0.00     0.000 O
ATOM     11  HD  BGC C   1      12.401   0.634   8.0860  0.00  0.00     0.000 HD
ATOM     11   O  BGC C   1      12.041   0.394   5.0690  0.00  0.00     0.000 O
ATOM     13  HD  BGC C   1      11.326   0.775   5.3750  0.00  0.00     0.000 HD
ATOM     13   O  BGC C   1      12.669   4.065   4.4030  0.00  0.00     0.000 O
ATOM     15  HD  BGC C   1      11.955   4.446   4.7090  0.00  0.00     0.000 HD
ATOM     15   C  BGC C   1      13.005   2.873   3.6400  0.00  0.00     0.000 C
ENDROOT
BRANCH 1 16
ATOM     16  O4  BGC C   2      16.863   2.707   6.1380  0.00  0.00     0.000 O
BRANCH 16 20
ATOM     17  C1  BGC C   2      20.563   3.814   4.8110  0.00  0.00     0.000 C
ATOM     18  C2  BGC C   2      19.384   4.520   4.1580  0.00  0.00     0.000 C
ATOM     19  C3  BGC C   2      18.112   4.305   4.9670  0.00  0.00     0.000 C
ATOM     20  C4  BGC C   2      17.921   2.848   5.2200  0.00  0.00     0.000 C
ATOM     21  C5  BGC C   2      19.185   2.222   5.8020  0.00  0.00     0.000 C
ATOM     22  O5  BGC C   2      20.284   2.453   4.9720  0.00  0.00     0.000 O
ATOM     23   O  BGC C   2      19.682   5.920   4.0540  0.00  0.00     0.000 O
ATOM     25  HD  BGC C   2      18.978   6.388   4.2420  0.00  0.00     0.000 HD
ATOM     25   O  BGC C   2      17.003   4.817   4.2380  0.00  0.00     0.000 O
ATOM     27  HD  BGC C   2      16.300   5.286   4.4250  0.00  0.00     0.000 HD
ATOM     27   C  BGC C   2      19.087   0.707   6.0790  0.00  0.00     0.000 C
ATOM     28   O  BGC C   2      18.678  -0.012   4.9040  0.00  0.00     0.000 O
ATOM     30  HD  BGC C   2      17.974   0.457   5.0920  0.00  0.00     0.000 HD
BRANCH 17 30
ATOM     30  O4  BGC C   3      21.699   3.945   3.9830  0.00  0.00     0.000 O
BRANCH 30 34
ATOM     31  C1  BGC C   3      25.706   4.437   4.1920  0.00  0.00     0.000 C
ATOM     32  C2  BGC C   3      25.196   2.991   4.3950  0.00  0.00     0.000 C
ATOM     33  C3  BGC C   3      23.778   2.853   3.9620  0.00  0.00     0.000 C
ATOM     34  C4  BGC C   3      22.957   3.951   4.6420  0.00  0.00     0.000 C
ATOM     35  C5  BGC C   3      23.578   5.366   4.5140  0.00  0.00     0.000 C
ATOM     36  O5  BGC C   3      24.922   5.344   4.9280  0.00  0.00     0.000 O
ATOM     37   O  BGC C   3      25.909   1.935   3.7780  0.00  0.00     0.000 O
ATOM     39  HD  BGC C   3      25.131   2.247   3.9970  0.00  0.00     0.000 HD
ATOM     39   O  BGC C   3      23.272   1.529   4.3050  0.00  0.00     0.000 O
ATOM     41  HD  BGC C   3      22.495   1.842   4.5240  0.00  0.00     0.000 HD
ATOM     41   C  BGC C   3      22.876   6.468   5.3410  0.00  0.00     0.000 C
ATOM     42   O  BGC C   3      22.933   6.289   6.8010  0.00  0.00     0.000 O
ATOM     44  HD  BGC C   3      22.155   6.601   7.0210  0.00  0.00     0.000 HD
BRANCH 31 44
ATOM     44  O4  BGC C   4      27.029   4.561   4.5960  0.00  0.00     0.000 O
BRANCH 44 48
ATOM     45  C1  BGC C   4      30.632   6.304   3.7390  0.00  0.00     0.000 C
ATOM     46  C2  BGC C   4      29.628   7.339   4.3400  0.00  0.00     0.000 C
ATOM     47  C3  BGC C   4      28.506   6.430   4.8590  0.00  0.00     0.000 C
ATOM     48  C4  BGC C   4      27.915   5.400   3.9160  0.00  0.00     0.000 C
ATOM     49  C5  BGC C   4      29.086   4.518   3.4560  0.00  0.00     0.000 C
ATOM     50  O5  BGC C   4      30.091   5.283   2.8870  0.00  0.00     0.000 O
ATOM     51   O  BGC C   4      30.003   8.308   5.4770  0.00  0.00     0.000 O
ATOM     53  HD  BGC C   4      29.309   8.731   5.7750  0.00  0.00     0.000 HD
ATOM     53   O  BGC C   4      27.412   7.446   5.0310  0.00  0.00     0.000 O
ATOM     55  HD  BGC C   4      26.718   7.870   5.3290  0.00  0.00     0.000 HD
ATOM     55   C  BGC C   4      28.657   3.552   2.3820  0.00  0.00     0.000 C
ATOM     56   O  BGC C   4      28.059   4.141   1.2220  0.00  0.00     0.000 O
ATOM     58  HD  BGC C   4      27.365   4.564   1.5200  0.00  0.00     0.000 HD
BRANCH 45 58
ATOM     58  O4  BGC C   5      31.635   6.919   2.9860  0.00  0.00     0.000 O
BRANCH 58 62
ATOM     59  C1  BGC C   5      33.650   8.216   4.8860  0.00  0.00     0.000 C
ATOM     60  C2  BGC C   5      34.142   8.451   3.5460  0.00  0.00     0.000 C
ATOM     61  C3  BGC C   5      34.074   7.222   2.6440  0.00  0.00     0.000 C
ATOM     62  C4  BGC C   5      32.947   6.319   3.1250  0.00  0.00     0.000 C
ATOM     63  C5  BGC C   5      33.057   6.226   4.6290  0.00  0.00     0.000 C
ATOM     64  O5  BGC C   5      33.877   7.176   5.3070  0.00  0.00     0.000 O
ATOM     65   O  BGC C   5      34.766   4.518   4.6280  0.00  0.00     0.000 O
ATOM     67  HD  BGC C   5      33.920   4.697   4.6640  0.00  0.00     0.000 HD
ATOM     67   O  BGC C   5      34.766   4.518   4.6280  0.00  0.00     0.000 O
ATOM     69  HD  BGC C   5      33.920   4.697   4.6640  0.00  0.00     0.000 HD
ENDBRANCH 58 62
ENDBRANCH 45 58
ENDBRANCH 44 48
ENDBRANCH 31 44
ENDBRANCH 30 34
ENDBRANCH 17 30
ENDBRANCH 16 20
ENDBRANCH 1 16
TORSDOF 8
ENDMDL
MODEL 40
REMARK VINA RESULT:      -3.0      2.116     14.177
ROOT
ATOM      1  C1  BGC C   1      22.506   3.769   4.8380  0.00  0.00     0.000 C
ATOM      2  C2  BGC C   1      23.470   2.602   4.6310  0.00  0.00     0.000 C
ATOM      3  C3  BGC C   1      24.908   3.076   4.8050  0.00  0.00     0.000 C
ATOM      4  C4  BGC C   1      25.209   4.315   3.9780  0.00  0.00     0.000 C
ATOM      5  C5  BGC C   1      24.096   5.346   4.1460  0.00  0.00     0.000 C
ATOM      6  O5  BGC C   1      22.816   4.819   4.0040  0.00  0.00     0.000 O
ATOM      7   O  BGC C   1      23.159   1.621   5.5920  0.00  0.00     0.000 O
ATOM      9  HD  BGC C   1      23.611   1.501   4.8640  0.00  0.00     0.000 HD
ATOM      9   O  BGC C   1      25.779   1.986   4.4750  0.00  0.00     0.000 O
ATOM     11  HD  BGC C   1      26.231   1.866   3.7460  0.00  0.00     0.000 HD
ATOM     11   O  BGC C   1      26.455   4.826   4.4400  0.00  0.00     0.000 O
ATOM     13  HD  BGC C   1      26.907   4.706   3.7110  0.00  0.00     0.000 HD
ATOM     13   O  BGC C   1      24.049   5.945   1.7430  0.00  0.00     0.000 O
ATOM     15  HD  BGC C   1      24.501   5.825   1.0140  0.00  0.00     0.000 HD
ATOM     15   C  BGC C   1      24.296   6.444   3.0870  0.00  0.00     0.000 C
ENDROOT
BRANCH 1 16
ATOM     16  O4  BGC C   2      21.206   3.344   4.5000  0.00  0.00     0.000 O
BRANCH 16 20
ATOM     17  C1  BGC C   2      17.363   4.078   5.6710  0.00  0.00     0.000 C
ATOM     18  C2  BGC C   2      17.994   5.125   4.7660  0.00  0.00     0.000 C
ATOM     19  C3  BGC C   2      19.256   4.583   4.1110  0.00  0.00     0.000 C
ATOM     20  C4  BGC C   2      20.159   4.018   5.1560  0.00  0.00     0.000 C
ATOM     21  C5  BGC C   2      19.410   3.038   6.0560  0.00  0.00     0.000 C
ATOM     22  O5  BGC C   2      18.288   3.642   6.6260  0.00  0.00     0.000 O
ATOM     23   O  BGC C   2      17.037   5.512   3.7690  0.00  0.00     0.000 O
ATOM     25  HD  BGC C   2      17.429   5.605   3.0020  0.00  0.00     0.000 HD
ATOM     25   O  BGC C   2      19.917   5.639   3.4240  0.00  0.00     0.000 O
ATOM     27  HD  BGC C   2      20.308   5.732   2.6570  0.00  0.00     0.000 HD
ATOM     27   C  BGC C   2      20.261   2.416   7.1820  0.00  0.00     0.000 C
ATOM     28   O  BGC C   2      20.893   3.432   7.9790  0.00  0.00     0.000 O
ATOM     30  HD  BGC C   2      21.284   3.525   7.2120  0.00  0.00     0.000 HD
BRANCH 17 30
ATOM     30  O4  BGC C   3      16.259   4.646   6.3410  0.00  0.00     0.000 O
BRANCH 30 34
ATOM     31  C1  BGC C   3      12.457   3.504   7.1060  0.00  0.00     0.000 C
ATOM     32  C2  BGC C   3      13.375   3.653   8.3430  0.00  0.00     0.000 C
ATOM     33  C3  BGC C   3      14.619   4.397   8.0040  0.00  0.00     0.000 C
ATOM     34  C4  BGC C   3      15.255   3.741   6.7760  0.00  0.00     0.000 C
ATOM     35  C5  BGC C   3      14.262   3.501   5.6100  0.00  0.00     0.000 C
ATOM     36  O5  BGC C   3      13.126   2.817   6.0760  0.00  0.00     0.000 O
ATOM     37   O  BGC C   3      12.844   4.265   9.5030  0.00  0.00     0.000 O
ATOM     39  HD  BGC C   3      13.537   4.170   8.9920  0.00  0.00     0.000 HD
ATOM     39   O  BGC C   3      15.536   4.390   9.1380  0.00  0.00     0.000 O
ATOM     41  HD  BGC C   3      16.228   4.295   8.6270  0.00  0.00     0.000 HD
ATOM     41   C  BGC C   3      14.824   2.677   4.4290  0.00  0.00     0.000 C
ATOM     42   O  BGC C   3      15.189   1.287   4.7500  0.00  0.00     0.000 O
ATOM     44  HD  BGC C   3      15.882   1.193   4.2390  0.00  0.00     0.000 HD
BRANCH 31 44
ATOM     44  O4  BGC C   4      11.298   2.811   7.4260  0.00  0.00     0.000 O
BRANCH 44 48
ATOM     45  C1  BGC C   4       7.463   1.992   6.2500  0.00  0.00     0.000 C
ATOM     46  C2  BGC C   4       8.503   1.424   5.2330  0.00  0.00     0.000 C
ATOM     47  C3  BGC C   4       9.818   1.564   6.0110  0.00  0.00     0.000 C
ATOM     48  C4  BGC C   4      10.156   2.908   6.6270  0.00  0.00     0.000 C
ATOM     49  C5  BGC C   4       8.991   3.252   7.5690  0.00  0.00     0.000 C
ATOM     50  O5  BGC C   4       7.782   3.235   6.8920  0.00  0.00     0.000 O
ATOM     51   O  BGC C   4       8.440  -0.012   4.6830  0.00  0.00     0.000 O
ATOM     53  HD  BGC C   4       9.148  -0.209   4.2250  0.00  0.00     0.000 HD
ATOM     53   O  BGC C   4      10.801   1.417   4.8820  0.00  0.00     0.000 O
ATOM     55  HD  BGC C   4      11.509   1.221   4.4240  0.00  0.00     0.000 HD
ATOM     55   C  BGC C   4       9.126   4.647   8.1230  0.00  0.00     0.000 C
ATOM     56   O  BGC C   4       9.236   5.692   7.1490  0.00  0.00     0.000 O
ATOM     58  HD  BGC C   4       9.944   5.495   6.6910  0.00  0.00     0.000 HD
BRANCH 45 58
ATOM     58  O4  BGC C   5       6.209   2.189   5.6670  0.00  0.00     0.000 O
BRANCH 58 62
ATOM     59  C1  BGC C   5       3.659   2.743   4.0720  0.00  0.00     0.000 C
ATOM     60  C2  BGC C   5       4.753   2.794   3.1260  0.00  0.00     0.000 C
ATOM     61  C3  BGC C   5       5.961   3.580   3.6280  0.00  0.00     0.000 C
ATOM     62  C4  BGC C   5       5.989   3.524   5.1490  0.00  0.00     0.000 C
ATOM     63  C5  BGC C   5       4.582   3.788   5.6330  0.00  0.00     0.000 C
ATOM     64  O5  BGC C   5       3.514   3.695   4.6920  0.00  0.00     0.000 O
ATOM     65   O  BGC C   5       4.729   6.193   5.4650  0.00  0.00     0.000 O
ATOM     67  HD  BGC C   5       4.812   5.495   5.9710  0.00  0.00     0.000 HD
ATOM     67   O  BGC C   5       4.729   6.193   5.4650  0.00  0.00     0.000 O
ATOM     69  HD  BGC C   5       4.812   5.495   5.9710  0.00  0.00     0.000 HD
ENDBRANCH 58 62
ENDBRANCH 45 58
ENDBRANCH 44 48
ENDBRANCH 31 44
ENDBRANCH 30 34
ENDBRANCH 17 30
ENDBRANCH 16 20
ENDBRANCH 1 16
TORSDOF 8
ENDMDL
MODEL 41
REMARK VINA RESULT:      -3.0      5.764     10.583
ROOT
ATOM      1  C1  BGC C   1      15.704   2.231   5.9180  0.00  0.00     0.000 C
ATOM      2  C2  BGC C   1      14.955   1.962   7.2230  0.00  0.00     0.000 C
ATOM      3  C3  BGC C   1      13.900   0.884   7.0050  0.00  0.00     0.000 C
ATOM      4  C4  BGC C   1      13.017   1.178   5.8040  0.00  0.00     0.000 C
ATOM      5  C5  BGC C   1      13.871   1.586   4.6070  0.00  0.00     0.000 C
ATOM      6  O5  BGC C   1      14.830   2.551   4.9050  0.00  0.00     0.000 O
ATOM      7   O  BGC C   1      15.902   1.534   8.1730  0.00  0.00     0.000 O
ATOM      9  HD  BGC C   1      15.110   1.843   8.3390  0.00  0.00     0.000 HD
ATOM      9   O  BGC C   1      13.138   0.757   8.2130  0.00  0.00     0.000 O
ATOM     11  HD  BGC C   1      12.346   1.066   8.3790  0.00  0.00     0.000 HD
ATOM     11   O  BGC C   1      12.286  -0.012   5.5290  0.00  0.00     0.000 O
ATOM     13  HD  BGC C   1      11.494   0.297   5.6950  0.00  0.00     0.000 HD
ATOM     13   O  BGC C   1      12.343   3.409   3.9160  0.00  0.00     0.000 O
ATOM     15  HD  BGC C   1      11.551   3.718   4.0820  0.00  0.00     0.000 HD
ATOM     15   C  BGC C   1      12.937   2.142   3.5180  0.00  0.00     0.000 C
ENDROOT
BRANCH 1 16
ATOM     16  O4  BGC C   2      16.545   3.346   6.1040  0.00  0.00     0.000 O
BRANCH 16 20
ATOM     17  C1  BGC C   2      19.598   5.188   4.1140  0.00  0.00     0.000 C
ATOM     18  C2  BGC C   2      18.193   5.596   3.7000  0.00  0.00     0.000 C
ATOM     19  C3  BGC C   2      17.172   5.137   4.7310  0.00  0.00     0.000 C
ATOM     20  C4  BGC C   2      17.357   3.682   5.0050  0.00  0.00     0.000 C
ATOM     21  C5  BGC C   2      18.813   3.368   5.3340  0.00  0.00     0.000 C
ATOM     22  O5  BGC C   2      19.661   3.805   4.3150  0.00  0.00     0.000 O
ATOM     23   O  BGC C   2      18.150   7.023   3.5510  0.00  0.00     0.000 O
ATOM     25  HD  BGC C   2      17.407   7.333   3.8710  0.00  0.00     0.000 HD
ATOM     25   O  BGC C   2      15.862   5.370   4.2270  0.00  0.00     0.000 O
ATOM     27  HD  BGC C   2      15.119   5.679   4.5470  0.00  0.00     0.000 HD
ATOM     27   C  BGC C   2      19.105   1.879   5.6140  0.00  0.00     0.000 C
ATOM     28   O  BGC C   2      18.655   1.048   4.5310  0.00  0.00     0.000 O
ATOM     30  HD  BGC C   2      17.912   1.358   4.8510  0.00  0.00     0.000 HD
BRANCH 17 30
ATOM     30  O4  BGC C   3      20.505   5.534   3.0890  0.00  0.00     0.000 O
BRANCH 30 34
ATOM     31  C1  BGC C   3      24.039   7.493   2.9810  0.00  0.00     0.000 C
ATOM     32  C2  BGC C   3      24.075   6.017   2.5160  0.00  0.00     0.000 C
ATOM     33  C3  BGC C   3      22.702   5.499   2.2620  0.00  0.00     0.000 C
ATOM     34  C4  BGC C   3      21.841   5.790   3.4940  0.00  0.00     0.000 C
ATOM     35  C5  BGC C   3      21.939   7.254   3.9930  0.00  0.00     0.000 C
ATOM     36  O5  BGC C   3      23.286   7.619   4.1620  0.00  0.00     0.000 O
ATOM     37   O  BGC C   3      24.845   5.691   1.3740  0.00  0.00     0.000 O
ATOM     39  HD  BGC C   3      24.117   5.541   1.8180  0.00  0.00     0.000 HD
ATOM     39   O  BGC C   3      22.748   4.069   1.9790  0.00  0.00     0.000 O
ATOM     41  HD  BGC C   3      22.020   3.919   2.4230  0.00  0.00     0.000 HD
ATOM     41   C  BGC C   3      21.229   7.538   5.3370  0.00  0.00     0.000 C
ATOM     42   O  BGC C   3      21.784   6.828   6.5020  0.00  0.00     0.000 O
ATOM     44  HD  BGC C   3      21.056   6.678   6.9460  0.00  0.00     0.000 HD
BRANCH 31 44
ATOM     44  O4  BGC C   4      25.321   7.973   3.2140  0.00  0.00     0.000 O
BRANCH 44 48
ATOM     45  C1  BGC C   4      27.769  11.234   2.8560  0.00  0.00     0.000 C
ATOM     46  C2  BGC C   4      26.850  11.348   4.1140  0.00  0.00     0.000 C
ATOM     47  C3  BGC C   4      26.275   9.929   4.2170  0.00  0.00     0.000 C
ATOM     48  C4  BGC C   4      25.642   9.313   2.9860  0.00  0.00     0.000 C
ATOM     49  C5  BGC C   4      26.726   9.323   1.8960  0.00  0.00     0.000 C
ATOM     50  O5  BGC C   4      27.215  10.603   1.6920  0.00  0.00     0.000 O
ATOM     51   O  BGC C   4      27.380  11.737   5.5060  0.00  0.00     0.000 O
ATOM     53  HD  BGC C   4      26.772  11.642   6.1150  0.00  0.00     0.000 HD
ATOM     53   O  BGC C   4      25.115  10.190   5.1390  0.00  0.00     0.000 O
ATOM     55  HD  BGC C   4      24.507  10.095   5.7480  0.00  0.00     0.000 HD
ATOM     55   C  BGC C   4      26.172   8.884   0.5660  0.00  0.00     0.000 C
ATOM     56   O  BGC C   4      25.050   9.633   0.0850  0.00  0.00     0.000 O
ATOM     58  HD  BGC C   4      24.442   9.538   0.6940  0.00  0.00     0.000 HD
BRANCH 45 58
ATOM     58  O4  BGC C   5      28.222  12.481   2.4190  0.00  0.00     0.000 O
BRANCH 58 62
ATOM     59  C1  BGC C   5      29.533  15.007   1.2980  0.00  0.00     0.000 C
ATOM     60  C2  BGC C   5      30.249  13.887   0.7280  0.00  0.00     0.000 C
ATOM     61  C3  BGC C   5      30.587  12.796   1.7400  0.00  0.00     0.000 C
ATOM     62  C4  BGC C   5      29.558  12.826   2.8610  0.00  0.00     0.000 C
ATOM     63  C5  BGC C   5      29.362  14.273   3.2510  0.00  0.00     0.000 C
ATOM     64  O5  BGC C   5      29.843  15.283   2.3650  0.00  0.00     0.000 O
ATOM     65   O  BGC C   5      31.303  14.388   4.6850  0.00  0.00     0.000 O
ATOM     67  HD  BGC C   5      30.450  14.249   4.6290  0.00  0.00     0.000 HD
ATOM     67   O  BGC C   5      31.303  14.388   4.6850  0.00  0.00     0.000 O
ATOM     69  HD  BGC C   5      30.450  14.249   4.6290  0.00  0.00     0.000 HD
ENDBRANCH 58 62
ENDBRANCH 45 58
ENDBRANCH 44 48
ENDBRANCH 31 44
ENDBRANCH 30 34
ENDBRANCH 17 30
ENDBRANCH 16 20
ENDBRANCH 1 16
TORSDOF 8
ENDMDL
MODEL 42
REMARK VINA RESULT:      -2.9      9.748     15.253
ROOT
ATOM      1  C1  BGC C   1      16.972  19.193  10.8460  0.00  0.00     0.000 C
ATOM      2  C2  BGC C   1      16.117  19.979  11.8390  0.00  0.00     0.000 C
ATOM      3  C3  BGC C   1      16.700  21.373  12.0410  0.00  0.00     0.000 C
ATOM      4  C4  BGC C   1      18.185  21.334  12.3590  0.00  0.00     0.000 C
ATOM      5  C5  BGC C   1      18.907  20.396  11.3960  0.00  0.00     0.000 C
ATOM      6  O5  BGC C   1      18.288  19.158  11.2480  0.00  0.00     0.000 O
ATOM      7   O  BGC C   1      14.818  20.065  11.3030  0.00  0.00     0.000 O
ATOM      9  HD  BGC C   1      15.042  20.186  12.1310  0.00  0.00     0.000 HD
ATOM      9   O  BGC C   1      15.947  22.024  13.0730  0.00  0.00     0.000 O
ATOM     11  HD  BGC C   1      16.170  22.146  13.9010  0.00  0.00     0.000 HD
ATOM     11   O  BGC C   1      18.668  22.668  12.2330  0.00  0.00     0.000 O
ATOM     13  HD  BGC C   1      18.891  22.789  13.0600  0.00  0.00     0.000 HD
ATOM     13   O  BGC C   1      20.333  19.400  13.1610  0.00  0.00     0.000 O
ATOM     15  HD  BGC C   1      20.556  19.521  13.9890  0.00  0.00     0.000 HD
ATOM     15   C  BGC C   1      20.335  20.170  11.9270  0.00  0.00     0.000 C
ENDROOT
BRANCH 1 16
ATOM     16  O4  BGC C   2      16.516  17.861  10.8140  0.00  0.00     0.000 O
BRANCH 16 20
ATOM     17  C1  BGC C   2      16.301  14.802   8.1180  0.00  0.00     0.000 C
ATOM     18  C2  BGC C   2      17.628  14.956   8.8440  0.00  0.00     0.000 C
ATOM     19  C3  BGC C   2      17.478  15.865  10.0560  0.00  0.00     0.000 C
ATOM     20  C4  BGC C   2      16.826  17.142   9.6450  0.00  0.00     0.000 C
ATOM     21  C5  BGC C   2      15.546  16.875   8.8580  0.00  0.00     0.000 C
ATOM     22  O5  BGC C   2      15.799  16.057   7.7560  0.00  0.00     0.000 O
ATOM     23   O  BGC C   2      18.091  13.657   9.2450  0.00  0.00     0.000 O
ATOM     25  HD  BGC C   2      18.433  13.696  10.0390  0.00  0.00     0.000 HD
ATOM     25   O  BGC C   2      18.765  16.134  10.6000  0.00  0.00     0.000 O
ATOM     27  HD  BGC C   2      19.107  16.173  11.3940  0.00  0.00     0.000 HD
ATOM     27   C  BGC C   2      14.810  18.142   8.3730  0.00  0.00     0.000 C
ATOM     28   O  BGC C   2      15.685  18.993   7.6150  0.00  0.00     0.000 O
ATOM     30  HD  BGC C   2      16.027  19.032   8.4090  0.00  0.00     0.000 HD
BRANCH 17 30
ATOM     30  O4  BGC C   3      16.498  14.042   6.9450  0.00  0.00     0.000 O
BRANCH 30 34
ATOM     31  C1  BGC C   3      14.330  11.329   4.8750  0.00  0.00     0.000 C
ATOM     32  C2  BGC C   3      14.611  12.663   4.1430  0.00  0.00     0.000 C
ATOM     33  C3  BGC C   3      15.685  13.437   4.8260  0.00  0.00     0.000 C
ATOM     34  C4  BGC C   3      15.326  13.553   6.3100  0.00  0.00     0.000 C
ATOM     35  C5  BGC C   3      14.931  12.204   6.9650  0.00  0.00     0.000 C
ATOM     36  O5  BGC C   3      13.934  11.570   6.2030  0.00  0.00     0.000 O
ATOM     37   O  BGC C   3      14.961  12.616   2.7720  0.00  0.00     0.000 O
ATOM     39  HD  BGC C   3      15.096  12.999   3.5370  0.00  0.00     0.000 HD
ATOM     39   O  BGC C   3      15.824  14.753   4.2150  0.00  0.00     0.000 O
ATOM     41  HD  BGC C   3      15.960  15.136   4.9800  0.00  0.00     0.000 HD
ATOM     41   C  BGC C   3      14.389  12.310   8.4090  0.00  0.00     0.000 C
ATOM     42   O  BGC C   3      13.123  13.049   8.5510  0.00  0.00     0.000 O
ATOM     44  HD  BGC C   3      13.259  13.432   9.3160  0.00  0.00     0.000 HD
BRANCH 31 44
ATOM     44  O4  BGC C   4      13.330  10.610   4.2340  0.00  0.00     0.000 O
BRANCH 44 48
ATOM     45  C1  BGC C   4      11.996   6.849   3.3230  0.00  0.00     0.000 C
ATOM     46  C2  BGC C   4      12.138   7.044   4.8660  0.00  0.00     0.000 C
ATOM     47  C3  BGC C   4      12.334   8.561   4.9780  0.00  0.00     0.000 C
ATOM     48  C4  BGC C   4      13.400   9.219   4.1240  0.00  0.00     0.000 C
ATOM     49  C5  BGC C   4      13.052   8.878   2.6670  0.00  0.00     0.000 C
ATOM     50  O5  BGC C   4      12.958   7.508   2.4860  0.00  0.00     0.000 O
ATOM     51   O  BGC C   4      11.039   6.642   5.8660  0.00  0.00     0.000 O
ATOM     53  HD  BGC C   4      11.220   6.920   6.6660  0.00  0.00     0.000 HD
ATOM     53   O  BGC C   4      12.876   8.646   6.3790  0.00  0.00     0.000 O
ATOM     55  HD  BGC C   4      13.058   8.924   7.1780  0.00  0.00     0.000 HD
ATOM     55   C  BGC C   4      14.132   9.338   1.7220  0.00  0.00     0.000 C
ATOM     56   O  BGC C   4      15.447   8.840   1.9950  0.00  0.00     0.000 O
ATOM     58  HD  BGC C   4      15.629   9.118   2.7950  0.00  0.00     0.000 HD
BRANCH 45 58
ATOM     58  O4  BGC C   5      12.047   5.503   2.9540  0.00  0.00     0.000 O
BRANCH 58 62
ATOM     59  C1  BGC C   5      12.285   2.695   1.7660  0.00  0.00     0.000 C
ATOM     60  C2  BGC C   5      12.990   2.665   3.0290  0.00  0.00     0.000 C
ATOM     61  C3  BGC C   5      13.894   3.874   3.2550  0.00  0.00     0.000 C
ATOM     62  C4  BGC C   5      13.339   5.057   2.4750  0.00  0.00     0.000 C
ATOM     63  C5  BGC C   5      12.973   4.555   1.0980  0.00  0.00     0.000 C
ATOM     64  O5  BGC C   5      12.877   3.146   0.8950  0.00  0.00     0.000 O
ATOM     65   O  BGC C   5      15.213   4.687   0.2020  0.00  0.00     0.000 O
ATOM     67  HD  BGC C   5      14.448   5.080   0.3030  0.00  0.00     0.000 HD
ATOM     67   O  BGC C   5      15.213   4.687   0.2020  0.00  0.00     0.000 O
ATOM     69  HD  BGC C   5      14.448   5.080   0.3030  0.00  0.00     0.000 HD
ENDBRANCH 58 62
ENDBRANCH 45 58
ENDBRANCH 44 48
ENDBRANCH 31 44
ENDBRANCH 30 34
ENDBRANCH 17 30
ENDBRANCH 16 20
ENDBRANCH 1 16
TORSDOF 8
ENDMDL
MODEL 43
REMARK VINA RESULT:      -2.8      8.976     12.812
ROOT
ATOM      1  C1  BGC C   1      13.860   3.630   4.0880  0.00  0.00     0.000 C
ATOM      2  C2  BGC C   1      13.467   2.344   3.3620  0.00  0.00     0.000 C
ATOM      3  C3  BGC C   1      13.353   1.196   4.3570  0.00  0.00     0.000 C
ATOM      4  C4  BGC C   1      14.580   1.084   5.2480  0.00  0.00     0.000 C
ATOM      5  C5  BGC C   1      14.967   2.457   5.7900  0.00  0.00     0.000 C
ATOM      6  O5  BGC C   1      15.014   3.452   4.8170  0.00  0.00     0.000 O
ATOM      7   O  BGC C   1      12.227   2.575   2.7370  0.00  0.00     0.000 O
ATOM      9  HD  BGC C   1      12.790   1.946   2.5450  0.00  0.00     0.000 HD
ATOM      9   O  BGC C   1      13.114  -0.010   3.6200  0.00  0.00     0.000 O
ATOM     11  HD  BGC C   1      13.677  -0.639   3.4270  0.00  0.00     0.000 HD
ATOM     11   O  BGC C   1      14.240   0.193   6.3050  0.00  0.00     0.000 O
ATOM     13  HD  BGC C   1      14.804  -0.435   6.1130  0.00  0.00     0.000 HD
ATOM     13   O  BGC C   1      17.395   2.099   5.4520  0.00  0.00     0.000 O
ATOM     15  HD  BGC C   1      17.958   1.470   5.2590  0.00  0.00     0.000 HD
ATOM     15   C  BGC C   1      16.357   2.341   6.4410  0.00  0.00     0.000 C
ENDROOT
BRANCH 1 16
ATOM     16  O4  BGC C   2      14.129   4.625   3.1290  0.00  0.00     0.000 O
BRANCH 16 20
ATOM     17  C1  BGC C   2      14.986   8.617   3.0560  0.00  0.00     0.000 C
ATOM     18  C2  BGC C   2      16.154   7.692   3.3590  0.00  0.00     0.000 C
ATOM     19  C3  BGC C   2      15.809   6.253   3.0040  0.00  0.00     0.000 C
ATOM     20  C4  BGC C   2      14.516   5.876   3.6460  0.00  0.00     0.000 C
ATOM     21  C5  BGC C   2      13.433   6.908   3.3430  0.00  0.00     0.000 C
ATOM     22  O5  BGC C   2      13.839   8.186   3.7300  0.00  0.00     0.000 O
ATOM     23   O  BGC C   2      17.299   8.132   2.6130  0.00  0.00     0.000 O
ATOM     25  HD  BGC C   2      17.728   7.449   2.2980  0.00  0.00     0.000 HD
ATOM     25   O  BGC C   2      16.844   5.396   3.4680  0.00  0.00     0.000 O
ATOM     27  HD  BGC C   2      17.274   4.713   3.1530  0.00  0.00     0.000 HD
ATOM     27   C  BGC C   2      12.061   6.611   3.9840  0.00  0.00     0.000 C
ATOM     28   O  BGC C   2      12.179   6.424   5.4030  0.00  0.00     0.000 O
ATOM     30  HD  BGC C   2      12.608   5.741   5.0880  0.00  0.00     0.000 HD
BRANCH 17 30
ATOM     30  O4  BGC C   3      15.300   9.922   3.4930  0.00  0.00     0.000 O
BRANCH 30 34
ATOM     31  C1  BGC C   3      13.803  13.677   3.4640  0.00  0.00     0.000 C
ATOM     32  C2  BGC C   3      13.320  12.771   4.6220  0.00  0.00     0.000 C
ATOM     33  C3  BGC C   3      14.172  11.556   4.7470  0.00  0.00     0.000 C
ATOM     34  C4  BGC C   3      14.268  10.890   3.3720  0.00  0.00     0.000 C
ATOM     35  C5  BGC C   3      14.634  11.868   2.2270  0.00  0.00     0.000 C
ATOM     36  O5  BGC C   3      13.771  12.978   2.2450  0.00  0.00     0.000 O
ATOM     37   O  BGC C   3      13.225  13.330   5.9180  0.00  0.00     0.000 O
ATOM     39  HD  BGC C   3      13.431  12.632   5.4490  0.00  0.00     0.000 HD
ATOM     39   O  BGC C   3      13.609  10.644   5.7360  0.00  0.00     0.000 O
ATOM     41  HD  BGC C   3      13.815   9.947   5.2660  0.00  0.00     0.000 HD
ATOM     41   C  BGC C   3      14.561  11.269   0.8040  0.00  0.00     0.000 C
ATOM     42   O  BGC C   3      13.218  10.849   0.3690  0.00  0.00     0.000 O
ATOM     44  HD  BGC C   3      13.424  10.152  -0.1010  0.00  0.00     0.000 HD
BRANCH 31 44
ATOM     44  O4  BGC C   4      13.007  14.809   3.3520  0.00  0.00     0.000 O
BRANCH 44 48
ATOM     45  C1  BGC C   4      13.022  18.805   2.4610  0.00  0.00     0.000 C
ATOM     46  C2  BGC C   4      12.944  17.933   1.1670  0.00  0.00     0.000 C
ATOM     47  C3  BGC C   4      12.639  16.542   1.7380  0.00  0.00     0.000 C
ATOM     48  C4  BGC C   4      13.522  16.006   2.8480  0.00  0.00     0.000 C
ATOM     49  C5  BGC C   4      13.444  17.031   3.9900  0.00  0.00     0.000 C
ATOM     50  O5  BGC C   4      13.805  18.294   3.5510  0.00  0.00     0.000 O
ATOM     51   O  BGC C   4      11.935  18.202   0.0360  0.00  0.00     0.000 O
ATOM     53  HD  BGC C   4      11.940  17.566  -0.5520  0.00  0.00     0.000 HD
ATOM     53   O  BGC C   4      12.987  15.694   0.5450  0.00  0.00     0.000 O
ATOM     55  HD  BGC C   4      12.992  15.058  -0.0420  0.00  0.00     0.000 HD
ATOM     55   C  BGC C   4      14.411  16.695   5.0960  0.00  0.00     0.000 C
ATOM     56   O  BGC C   4      15.783  16.569   4.7020  0.00  0.00     0.000 O
ATOM     58  HD  BGC C   4      15.788  15.933   4.1150  0.00  0.00     0.000 HD
BRANCH 45 58
ATOM     58  O4  BGC C   5      13.531  20.081   2.2080  0.00  0.00     0.000 O
BRANCH 58 62
ATOM     59  C1  BGC C   5      14.845  22.783   1.6400  0.00  0.00     0.000 C
ATOM     60  C2  BGC C   5      14.810  22.072   0.3800  0.00  0.00     0.000 C
ATOM     61  C3  BGC C   5      15.238  20.611   0.4880  0.00  0.00     0.000 C
ATOM     62  C4  BGC C   5      14.946  20.114   1.8960  0.00  0.00     0.000 C
ATOM     63  C5  BGC C   5      15.421  21.180   2.8560  0.00  0.00     0.000 C
ATOM     64  O5  BGC C   5      15.700  22.480   2.3390  0.00  0.00     0.000 O
ATOM     65   O  BGC C   5      17.739  20.500   2.8240  0.00  0.00     0.000 O
ATOM     67  HD  BGC C   5      16.970  20.437   3.2170  0.00  0.00     0.000 HD
ATOM     67   O  BGC C   5      17.739  20.500   2.8240  0.00  0.00     0.000 O
ATOM     69  HD  BGC C   5      16.970  20.437   3.2170  0.00  0.00     0.000 HD
ENDBRANCH 58 62
ENDBRANCH 45 58
ENDBRANCH 44 48
ENDBRANCH 31 44
ENDBRANCH 30 34
ENDBRANCH 17 30
ENDBRANCH 16 20
ENDBRANCH 1 16
TORSDOF 8
ENDMDL
MODEL 44
REMARK VINA RESULT:      -2.7      8.601     14.717
ROOT
ATOM      1  C1  BGC C   1      18.759   8.882  18.5940  0.00  0.00     0.000 C
ATOM      2  C2  BGC C   1      18.599  10.095  19.5100  0.00  0.00     0.000 C
ATOM      3  C3  BGC C   1      19.749  10.150  20.5090  0.00  0.00     0.000 C
ATOM      4  C4  BGC C   1      19.953   8.824  21.2240  0.00  0.00     0.000 C
ATOM      5  C5  BGC C   1      19.940   7.675  20.2190  0.00  0.00     0.000 C
ATOM      6  O5  BGC C   1      18.874   7.723  19.3250  0.00  0.00     0.000 O
ATOM      7   O  BGC C   1      18.603  11.243  18.6960  0.00  0.00     0.000 O
ATOM      9  HD  BGC C   1      18.306  11.190  19.5080  0.00  0.00     0.000 HD
ATOM      9   O  BGC C   1      19.489  11.220  21.4270  0.00  0.00     0.000 O
ATOM     11  HD  BGC C   1      19.192  11.166  22.2390  0.00  0.00     0.000 HD
ATOM     11   O  BGC C   1      21.208   8.906  21.8910  0.00  0.00     0.000 O
ATOM     13  HD  BGC C   1      20.911   8.852  22.7030  0.00  0.00     0.000 HD
ATOM     13   O  BGC C   1      18.578   6.195  21.6660  0.00  0.00     0.000 O
ATOM     15  HD  BGC C   1      18.282   6.142  22.4780  0.00  0.00     0.000 HD
ATOM     15   C  BGC C   1      19.864   6.353  21.0040  0.00  0.00     0.000 C
ENDROOT
BRANCH 1 16
ATOM     16  O4  BGC C   2      17.600   8.759  17.8040  0.00  0.00     0.000 O
BRANCH 16 20
ATOM     17  C1  BGC C   2      16.594   7.395  14.0890  0.00  0.00     0.000 C
ATOM     18  C2  BGC C   2      16.725   6.336  15.1720  0.00  0.00     0.000 C
ATOM     19  C3  BGC C   2      16.737   6.976  16.5530  0.00  0.00     0.000 C
ATOM     20  C4  BGC C   2      17.763   8.058  16.5940  0.00  0.00     0.000 C
ATOM     21  C5  BGC C   2      17.591   9.021  15.4230  0.00  0.00     0.000 C
ATOM     22  O5  BGC C   2      17.621   8.337  14.2060  0.00  0.00     0.000 O
ATOM     23   O  BGC C   2      15.630   5.415  15.0550  0.00  0.00     0.000 O
ATOM     25  HD  BGC C   2      15.334   5.204  15.8410  0.00  0.00     0.000 HD
ATOM     25   O  BGC C   2      17.044   5.984  17.5260  0.00  0.00     0.000 O
ATOM     27  HD  BGC C   2      16.749   5.772  18.3120  0.00  0.00     0.000 HD
ATOM     27   C  BGC C   2      18.623  10.166  15.3710  0.00  0.00     0.000 C
ATOM     28   O  BGC C   2      19.967   9.657  15.3960  0.00  0.00     0.000 O
ATOM     30  HD  BGC C   2      19.671   9.445  16.1820  0.00  0.00     0.000 HD
BRANCH 17 30
ATOM     30  O4  BGC C   3      16.692   6.779  12.8220  0.00  0.00     0.000 O
BRANCH 30 34
ATOM     31  C1  BGC C   3      15.109   7.018   9.1110  0.00  0.00     0.000 C
ATOM     32  C2  BGC C   3      16.342   7.917   9.3740  0.00  0.00     0.000 C
ATOM     33  C3  BGC C   3      17.049   7.509  10.6190  0.00  0.00     0.000 C
ATOM     34  C4  BGC C   3      16.024   7.432  11.7530  0.00  0.00     0.000 C
ATOM     35  C5  BGC C   3      14.752   6.624  11.3930  0.00  0.00     0.000 C
ATOM     36  O5  BGC C   3      14.206   7.094  10.1860  0.00  0.00     0.000 O
ATOM     37   O  BGC C   3      17.329   8.015   8.3650  0.00  0.00     0.000 O
ATOM     39  HD  BGC C   3      17.171   7.971   9.2150  0.00  0.00     0.000 HD
ATOM     39   O  BGC C   3      18.109   8.461  10.9310  0.00  0.00     0.000 O
ATOM     41  HD  BGC C   3      17.950   8.417  11.7810  0.00  0.00     0.000 HD
ATOM     41   C  BGC C   3      13.620   6.679  12.4450  0.00  0.00     0.000 C
ATOM     42   O  BGC C   3      13.030   8.010  12.6620  0.00  0.00     0.000 O
ATOM     44  HD  BGC C   3      12.871   7.966  13.5130  0.00  0.00     0.000 HD
BRANCH 31 44
ATOM     44  O4  BGC C   4      14.454   7.400   7.9480  0.00  0.00     0.000 O
BRANCH 44 48
ATOM     45  C1  BGC C   4      12.535   6.028   4.6020  0.00  0.00     0.000 C
ATOM     46  C2  BGC C   4      11.856   5.497   5.9050  0.00  0.00     0.000 C
ATOM     47  C3  BGC C   4      12.520   6.363   6.9840  0.00  0.00     0.000 C
ATOM     48  C4  BGC C   4      14.033   6.452   7.0120  0.00  0.00     0.000 C
ATOM     49  C5  BGC C   4      14.457   6.981   5.6330  0.00  0.00     0.000 C
ATOM     50  O5  BGC C   4      13.963   6.177   4.6190  0.00  0.00     0.000 O
ATOM     51   O  BGC C   4      10.336   5.549   6.1380  0.00  0.00     0.000 O
ATOM     53  HD  BGC C   4      10.131   5.327   6.9490  0.00  0.00     0.000 HD
ATOM     53   O  BGC C   4      12.174   5.557   8.2060  0.00  0.00     0.000 O
ATOM     55  HD  BGC C   4      11.969   5.335   9.0180  0.00  0.00     0.000 HD
ATOM     55   C  BGC C   4      15.955   6.960   5.4730  0.00  0.00     0.000 C
ATOM     56   O  BGC C   4      16.582   5.688   5.6750  0.00  0.00     0.000 O
ATOM     58  HD  BGC C   4      16.377   5.466   6.4860  0.00  0.00     0.000 HD
BRANCH 45 58
ATOM     58  O4  BGC C   5      12.262   5.217   3.4970  0.00  0.00     0.000 O
BRANCH 58 62
ATOM     59  C1  BGC C   5      11.937   2.935   1.4880  0.00  0.00     0.000 C
ATOM     60  C2  BGC C   5      12.649   2.385   2.6210  0.00  0.00     0.000 C
ATOM     61  C3  BGC C   5      13.772   3.283   3.1340  0.00  0.00     0.000 C
ATOM     62  C4  BGC C   5      13.436   4.730   2.8030  0.00  0.00     0.000 C
ATOM     63  C5  BGC C   5      12.952   4.761   1.3720  0.00  0.00     0.000 C
ATOM     64  O5  BGC C   5      12.585   3.529   0.7540  0.00  0.00     0.000 O
ATOM     65   O  BGC C   5      15.156   4.780   0.3830  0.00  0.00     0.000 O
ATOM     67  HD  BGC C   5      14.482   5.247   0.6610  0.00  0.00     0.000 HD
ATOM     67   O  BGC C   5      15.156   4.780   0.3830  0.00  0.00     0.000 O
ATOM     69  HD  BGC C   5      14.482   5.247   0.6610  0.00  0.00     0.000 HD
ENDBRANCH 58 62
ENDBRANCH 45 58
ENDBRANCH 44 48
ENDBRANCH 31 44
ENDBRANCH 30 34
ENDBRANCH 17 30
ENDBRANCH 16 20
ENDBRANCH 1 16
TORSDOF 8
ENDMDL
MODEL 45
REMARK VINA RESULT:      -2.7      5.774     15.055
ROOT
ATOM      1  C1  BGC C   1      22.917  13.908   3.9080  0.00  0.00     0.000 C
ATOM      2  C2  BGC C   1      23.578  14.546   5.1290  0.00  0.00     0.000 C
ATOM      3  C3  BGC C   1      24.121  15.924   4.7680  0.00  0.00     0.000 C
ATOM      4  C4  BGC C   1      24.977  15.894   3.5130  0.00  0.00     0.000 C
ATOM      5  C5  BGC C   1      24.279  15.097   2.4160  0.00  0.00     0.000 C
ATOM      6  O5  BGC C   1      23.786  13.866   2.8420  0.00  0.00     0.000 O
ATOM      7   O  BGC C   1      22.597  14.654   6.1320  0.00  0.00     0.000 O
ATOM      9  HD  BGC C   1      23.455  14.685   6.2470  0.00  0.00     0.000 HD
ATOM      9   O  BGC C   1      24.844  16.427   5.9000  0.00  0.00     0.000 O
ATOM     11  HD  BGC C   1      25.701  16.458   6.0140  0.00  0.00     0.000 HD
ATOM     11   O  BGC C   1      25.174  17.247   3.1170  0.00  0.00     0.000 O
ATOM     13  HD  BGC C   1      26.032  17.277   3.2320  0.00  0.00     0.000 HD
ATOM     13   O  BGC C   1      26.350  13.945   1.6920  0.00  0.00     0.000 O
ATOM     15  HD  BGC C   1      27.207  13.976   1.8060  0.00  0.00     0.000 HD
ATOM     15   C  BGC C   1      25.291  14.854   1.2810  0.00  0.00     0.000 C
ENDROOT
BRANCH 1 16
ATOM     16  O4  BGC C   2      22.585  12.576   4.2200  0.00  0.00     0.000 O
BRANCH 16 20
ATOM     17  C1  BGC C   2      19.703   9.857   3.2290  0.00  0.00     0.000 C
ATOM     18  C2  BGC C   2      20.851   9.999   2.2420  0.00  0.00     0.000 C
ATOM     19  C3  BGC C   2      22.018  10.744   2.8750  0.00  0.00     0.000 C
ATOM     20  C4  BGC C   2      21.530  12.022   3.4700  0.00  0.00     0.000 C
ATOM     21  C5  BGC C   2      20.331  11.779   4.3820  0.00  0.00     0.000 C
ATOM     22  O5  BGC C   2      19.311  11.116   3.6990  0.00  0.00     0.000 O
ATOM     23   O  BGC C   2      21.262   8.690   1.8190  0.00  0.00     0.000 O
ATOM     25  HD  BGC C   2      22.126   8.652   1.7680  0.00  0.00     0.000 HD
ATOM     25   O  BGC C   2      22.993  11.019   1.8760  0.00  0.00     0.000 O
ATOM     27  HD  BGC C   2      23.856  10.981   1.8240  0.00  0.00     0.000 HD
ATOM     27   C  BGC C   2      19.744  13.051   5.0300  0.00  0.00     0.000 C
ATOM     28   O  BGC C   2      19.416  14.036   4.0370  0.00  0.00     0.000 O
ATOM     30  HD  BGC C   2      20.279  13.999   3.9850  0.00  0.00     0.000 HD
BRANCH 17 30
ATOM     30  O4  BGC C   3      18.602   9.257   2.5800  0.00  0.00     0.000 O
BRANCH 30 34
ATOM     31  C1  BGC C   3      15.145   7.494   3.7090  0.00  0.00     0.000 C
ATOM     32  C2  BGC C   3      15.000   8.863   3.0020  0.00  0.00     0.000 C
ATOM     33  C3  BGC C   3      16.268   9.257   2.3270  0.00  0.00     0.000 C
ATOM     34  C4  BGC C   3      17.409   9.147   3.3410  0.00  0.00     0.000 C
ATOM     35  C5  BGC C   3      17.433   7.802   4.1120  0.00  0.00     0.000 C
ATOM     36  O5  BGC C   3      16.169   7.543   4.6710  0.00  0.00     0.000 O
ATOM     37   O  BGC C   3      13.970   9.018   2.0440  0.00  0.00     0.000 O
ATOM     39  HD  BGC C   3      14.787   9.208   2.2600  0.00  0.00     0.000 HD
ATOM     39   O  BGC C   3      16.159  10.613   1.8020  0.00  0.00     0.000 O
ATOM     41  HD  BGC C   3      16.976  10.802   2.0180  0.00  0.00     0.000 HD
ATOM     41   C  BGC C   3      18.456   7.727   5.2690  0.00  0.00     0.000 C
ATOM     42   O  BGC C   3      18.214   8.661   6.3810  0.00  0.00     0.000 O
ATOM     44  HD  BGC C   3      19.031   8.851   6.5970  0.00  0.00     0.000 HD
BRANCH 31 44
ATOM     44  O4  BGC C   4      13.960   7.130   4.3360  0.00  0.00     0.000 O
BRANCH 44 48
ATOM     45  C1  BGC C   4      11.534   3.973   5.2880  0.00  0.00     0.000 C
ATOM     46  C2  BGC C   4      12.980   3.766   5.8410  0.00  0.00     0.000 C
ATOM     47  C3  BGC C   4      13.596   5.158   5.6490  0.00  0.00     0.000 C
ATOM     48  C4  BGC C   4      13.493   5.814   4.2860  0.00  0.00     0.000 C
ATOM     49  C5  BGC C   4      11.993   5.895   3.9620  0.00  0.00     0.000 C
ATOM     50  O5  BGC C   4      11.403   4.643   4.0250  0.00  0.00     0.000 O
ATOM     51   O  BGC C   4      13.269   3.326   7.2880  0.00  0.00     0.000 O
ATOM     53  HD  BGC C   4      14.114   3.370   7.4700  0.00  0.00     0.000 HD
ATOM     53   O  BGC C   4      15.054   4.814   5.7850  0.00  0.00     0.000 O
ATOM     55  HD  BGC C   4      15.899   4.858   5.9680  0.00  0.00     0.000 HD
ATOM     55   C  BGC C   4      11.761   6.380   2.5540  0.00  0.00     0.000 C
ATOM     56   O  BGC C   4      12.400   5.620   1.5230  0.00  0.00     0.000 O
ATOM     58  HD  BGC C   4      13.246   5.664   1.7050  0.00  0.00     0.000 HD
BRANCH 45 58
ATOM     58  O4  BGC C   5      10.849   2.765   5.1380  0.00  0.00     0.000 O
BRANCH 58 62
ATOM     59  C1  BGC C   5       8.206   1.473   5.9730  0.00  0.00     0.000 C
ATOM     60  C2  BGC C   5       8.748   0.648   4.9160  0.00  0.00     0.000 C
ATOM     61  C3  BGC C   5       9.288   1.446   3.7310  0.00  0.00     0.000 C
ATOM     62  C4  BGC C   5       9.728   2.818   4.2210  0.00  0.00     0.000 C
ATOM     63  C5  BGC C   5       8.641   3.339   5.1320  0.00  0.00     0.000 C
ATOM     64  O5  BGC C   5       7.666   2.419   5.6170  0.00  0.00     0.000 O
ATOM     65   O  BGC C   5       7.220   4.148   3.3540  0.00  0.00     0.000 O
ATOM     67  HD  BGC C   5       7.841   4.335   3.9280  0.00  0.00     0.000 HD
ATOM     67   O  BGC C   5       7.220   4.148   3.3540  0.00  0.00     0.000 O
ATOM     69  HD  BGC C   5       7.841   4.335   3.9280  0.00  0.00     0.000 HD
ENDBRANCH 58 62
ENDBRANCH 45 58
ENDBRANCH 44 48
ENDBRANCH 31 44
ENDBRANCH 30 34
ENDBRANCH 17 30
ENDBRANCH 16 20
ENDBRANCH 1 16
TORSDOF 8
ENDMDL
MODEL 46
REMARK VINA RESULT:      -2.6     11.137     17.219
ROOT
ATOM      1  C1  BGC C   1      20.469  21.628   6.1190  0.00  0.00     0.000 C
ATOM      2  C2  BGC C   1      20.437  23.025   5.5020  0.00  0.00     0.000 C
ATOM      3  C3  BGC C   1      21.729  23.768   5.8250  0.00  0.00     0.000 C
ATOM      4  C4  BGC C   1      22.061  23.725   7.3070  0.00  0.00     0.000 C
ATOM      5  C5  BGC C   1      21.906  22.305   7.8430  0.00  0.00     0.000 C
ATOM      6  O5  BGC C   1      20.712  21.692   7.4720  0.00  0.00     0.000 O
ATOM      7   O  BGC C   1      20.298  22.870   4.1100  0.00  0.00     0.000 O
ATOM      9  HD  BGC C   1      20.133  23.587   4.5650  0.00  0.00     0.000 HD
ATOM      9   O  BGC C   1      21.602  25.112   5.3410  0.00  0.00     0.000 O
ATOM     11  HD  BGC C   1      21.437  25.829   5.7970  0.00  0.00     0.000 HD
ATOM     11   O  BGC C   1      23.403  24.179   7.4410  0.00  0.00     0.000 O
ATOM     13  HD  BGC C   1      23.238  24.897   7.8970  0.00  0.00     0.000 HD
ATOM     13   O  BGC C   1      20.808  23.029   9.9420  0.00  0.00     0.000 O
ATOM     15  HD  BGC C   1      20.643  23.747  10.3980  0.00  0.00     0.000 HD
ATOM     15   C  BGC C   1      21.972  22.362   9.3800  0.00  0.00     0.000 C
ENDROOT
BRANCH 1 16
ATOM     16  O4  BGC C   2      19.202  21.035   5.9560  0.00  0.00     0.000 O
BRANCH 16 20
ATOM     17  C1  BGC C   2      17.625  17.324   5.3100  0.00  0.00     0.000 C
ATOM     18  C2  BGC C   2      18.154  17.587   6.7110  0.00  0.00     0.000 C
ATOM     19  C3  BGC C   2      18.371  19.077   6.9360  0.00  0.00     0.000 C
ATOM     20  C4  BGC C   2      19.200  19.634   5.8280  0.00  0.00     0.000 C
ATOM     21  C5  BGC C   2      18.626  19.249   4.4670  0.00  0.00     0.000 C
ATOM     22  O5  BGC C   2      18.494  17.864   4.3550  0.00  0.00     0.000 O
ATOM     23   O  BGC C   2      17.217  17.067   7.6660  0.00  0.00     0.000 O
ATOM     25  HD  BGC C   2      17.138  17.613   8.3330  0.00  0.00     0.000 HD
ATOM     25   O  BGC C   2      19.035  19.270   8.1790  0.00  0.00     0.000 O
ATOM     27  HD  BGC C   2      18.957  19.816   8.8460  0.00  0.00     0.000 HD
ATOM     27   C  BGC C   2      19.432  19.766   3.2570  0.00  0.00     0.000 C
ATOM     28   O  BGC C   2      20.810  19.368   3.3400  0.00  0.00     0.000 O
ATOM     30  HD  BGC C   2      20.732  19.914   4.0080  0.00  0.00     0.000 HD
BRANCH 17 30
ATOM     30  O4  BGC C   3      17.535  15.931   5.1000  0.00  0.00     0.000 O
BRANCH 30 34
ATOM     31  C1  BGC C   3      15.172  13.147   3.3690  0.00  0.00     0.000 C
ATOM     32  C2  BGC C   3      16.084  13.944   2.4060  0.00  0.00     0.000 C
ATOM     33  C3  BGC C   3      17.143  14.678   3.1530  0.00  0.00     0.000 C
ATOM     34  C4  BGC C   3      16.475  15.490   4.2650  0.00  0.00     0.000 C
ATOM     35  C5  BGC C   3      15.475  14.671   5.1220  0.00  0.00     0.000 C
ATOM     36  O5  BGC C   3      14.554  14.010   4.2910  0.00  0.00     0.000 O
ATOM     37   O  BGC C   3      16.740  13.243   1.3660  0.00  0.00     0.000 O
ATOM     39  HD  BGC C   3      16.797  13.874   1.9560  0.00  0.00     0.000 HD
ATOM     39   O  BGC C   3      17.891  15.543   2.2480  0.00  0.00     0.000 O
ATOM     41  HD  BGC C   3      17.948  16.174   2.8370  0.00  0.00     0.000 HD
ATOM     41   C  BGC C   3      14.648  15.498   6.1340  0.00  0.00     0.000 C
ATOM     42   O  BGC C   3      13.733  16.486   5.5370  0.00  0.00     0.000 O
ATOM     44  HD  BGC C   3      13.790  17.118   6.1270  0.00  0.00     0.000 HD
BRANCH 31 44
ATOM     44  O4  BGC C   4      14.187  12.462   2.6680  0.00  0.00     0.000 O
BRANCH 44 48
ATOM     45  C1  BGC C   4      12.158   8.919   2.3750  0.00  0.00     0.000 C
ATOM     46  C2  BGC C   4      11.973   9.565   3.7850  0.00  0.00     0.000 C
ATOM     47  C3  BGC C   4      12.533  10.976   3.5640  0.00  0.00     0.000 C
ATOM     48  C4  BGC C   4      13.908  11.121   2.9420  0.00  0.00     0.000 C
ATOM     49  C5  BGC C   4      13.842  10.403   1.5850  0.00  0.00     0.000 C
ATOM     50  O5  BGC C   4      13.433   9.088   1.7370  0.00  0.00     0.000 O
ATOM     51   O  BGC C   4      10.600   9.712   4.4660  0.00  0.00     0.000 O
ATOM     53  HD  BGC C   4      10.651  10.192   5.1840  0.00  0.00     0.000 HD
ATOM     53   O  BGC C   4      12.726  11.402   4.9930  0.00  0.00     0.000 O
ATOM     55  HD  BGC C   4      12.778  11.883   5.7120  0.00  0.00     0.000 HD
ATOM     55   C  BGC C   4      15.199  10.331   0.9350  0.00  0.00     0.000 C
ATOM     56   O  BGC C   4      16.229   9.715   1.7160  0.00  0.00     0.000 O
ATOM     58  HD  BGC C   4      16.281  10.195   2.4350  0.00  0.00     0.000 HD
BRANCH 45 58
ATOM     58  O4  BGC C   5      11.936   7.540   2.3950  0.00  0.00     0.000 O
BRANCH 58 62
ATOM     59  C1  BGC C   5      11.725   4.516   2.8000  0.00  0.00     0.000 C
ATOM     60  C2  BGC C   5      12.467   5.029   3.9310  0.00  0.00     0.000 C
ATOM     61  C3  BGC C   5      13.543   6.043   3.5490  0.00  0.00     0.000 C
ATOM     62  C4  BGC C   5      13.132   6.734   2.2570  0.00  0.00     0.000 C
ATOM     63  C5  BGC C   5      12.644   5.662   1.3100  0.00  0.00     0.000 C
ATOM     64  O5  BGC C   5      12.340   4.375   1.8450  0.00  0.00     0.000 O
ATOM     65   O  BGC C   5      14.843   5.002   0.5580  0.00  0.00     0.000 O
ATOM     67  HD  BGC C   5      14.146   5.497   0.4160  0.00  0.00     0.000 HD
ATOM     67   O  BGC C   5      14.843   5.002   0.5580  0.00  0.00     0.000 O
ATOM     69  HD  BGC C   5      14.146   5.497   0.4160  0.00  0.00     0.000 HD
ENDBRANCH 58 62
ENDBRANCH 45 58
ENDBRANCH 44 48
ENDBRANCH 31 44
ENDBRANCH 30 34
ENDBRANCH 17 30
ENDBRANCH 16 20
ENDBRANCH 1 16
TORSDOF 8
ENDMDL
MODEL 47
REMARK VINA RESULT:      -2.6      7.521     15.143
ROOT
ATOM      1  C1  BGC C   1      11.932   4.005   3.8910  0.00  0.00     0.000 C
ATOM      2  C2  BGC C   1      11.875   3.866   2.3700  0.00  0.00     0.000 C
ATOM      3  C3  BGC C   1      13.284   3.739   1.8050  0.00  0.00     0.000 C
ATOM      4  C4  BGC C   1      14.210   4.830   2.3180  0.00  0.00     0.000 C
ATOM      5  C5  BGC C   1      14.063   4.980   3.8290  0.00  0.00     0.000 C
ATOM      6  O5  BGC C   1      12.741   5.055   4.2600  0.00  0.00     0.000 O
ATOM      7   O  BGC C   1      11.126   2.710   2.0800  0.00  0.00     0.000 O
ATOM      9  HD  BGC C   1      11.297   3.362   1.5360  0.00  0.00     0.000 HD
ATOM      9   O  BGC C   1      13.191   3.743   0.3740  0.00  0.00     0.000 O
ATOM     11  HD  BGC C   1      13.362   4.395  -0.1700  0.00  0.00     0.000 HD
ATOM     11   O  BGC C   1      15.535   4.443   1.9680  0.00  0.00     0.000 O
ATOM     13  HD  BGC C   1      15.706   5.095   1.4240  0.00  0.00     0.000 HD
ATOM     13   O  BGC C   1      14.117   7.456   3.7640  0.00  0.00     0.000 O
ATOM     15  HD  BGC C   1      14.288   8.107   3.2210  0.00  0.00     0.000 HD
ATOM     15   C  BGC C   1      14.793   6.266   4.2570  0.00  0.00     0.000 C
ENDROOT
BRANCH 1 16
ATOM     16  O4  BGC C   2      10.639   4.296   4.3660  0.00  0.00     0.000 O
BRANCH 16 20
ATOM     17  C1  BGC C   2       8.335   3.512   7.6450  0.00  0.00     0.000 C
ATOM     18  C2  BGC C   2       9.632   4.259   7.9080  0.00  0.00     0.000 C
ATOM     19  C3  BGC C   2      10.211   4.808   6.6110  0.00  0.00     0.000 C
ATOM     20  C4  BGC C   2      10.301   3.713   5.6020  0.00  0.00     0.000 C
ATOM     21  C5  BGC C   2       8.971   2.978   5.4700  0.00  0.00     0.000 C
ATOM     22  O5  BGC C   2       8.544   2.494   6.7080  0.00  0.00     0.000 O
ATOM     23   O  BGC C   2       9.373   5.327   8.8320  0.00  0.00     0.000 O
ATOM     25  HD  BGC C   2       9.811   6.036   8.5980  0.00  0.00     0.000 HD
ATOM     25   O  BGC C   2      11.507   5.336   6.8650  0.00  0.00     0.000 O
ATOM     27  HD  BGC C   2      11.946   6.045   6.6310  0.00  0.00     0.000 HD
ATOM     27   C  BGC C   2       8.973   1.812   4.4600  0.00  0.00     0.000 C
ATOM     28   O  BGC C   2      10.026   0.877   4.7470  0.00  0.00     0.000 O
ATOM     30  HD  BGC C   2      10.464   1.586   4.5120  0.00  0.00     0.000 HD
BRANCH 17 30
ATOM     30  O4  BGC C   3       7.881   2.929   8.8480  0.00  0.00     0.000 O
BRANCH 30 34
ATOM     31  C1  BGC C   3       4.512   2.371  11.0090  0.00  0.00     0.000 C
ATOM     32  C2  BGC C   3       4.700   1.420   9.8030  0.00  0.00     0.000 C
ATOM     33  C3  BGC C   3       6.099   1.466   9.2940  0.00  0.00     0.000 C
ATOM     34  C4  BGC C   3       6.477   2.930   9.0560  0.00  0.00     0.000 C
ATOM     35  C5  BGC C   3       6.151   3.863  10.2500  0.00  0.00     0.000 C
ATOM     36  O5  BGC C   3       4.812   3.695  10.6440  0.00  0.00     0.000 O
ATOM     37   O  BGC C   3       4.380   0.051   9.9700  0.00  0.00     0.000 O
ATOM     39  HD  BGC C   3       4.919   0.626   9.6110  0.00  0.00     0.000 HD
ATOM     39   O  BGC C   3       6.215   0.686   8.0680  0.00  0.00     0.000 O
ATOM     41  HD  BGC C   3       6.755   1.261   7.7090  0.00  0.00     0.000 HD
ATOM     41   C  BGC C   3       6.349   5.372   9.9780  0.00  0.00     0.000 C
ATOM     42   O  BGC C   3       5.464   5.945   8.9500  0.00  0.00     0.000 O
ATOM     44  HD  BGC C   3       6.003   6.520   8.5910  0.00  0.00     0.000 HD
BRANCH 31 44
ATOM     44  O4  BGC C   4       3.207   2.323  11.4820  0.00  0.00     0.000 O
BRANCH 44 48
ATOM     45  C1  BGC C   4       0.951   2.285  14.8980  0.00  0.00     0.000 C
ATOM     46  C2  BGC C   4       1.147   3.739  14.3620  0.00  0.00     0.000 C
ATOM     47  C3  BGC C   4       1.725   3.487  12.9630  0.00  0.00     0.000 C
ATOM     48  C4  BGC C   4       2.918   2.562  12.8280  0.00  0.00     0.000 C
ATOM     49  C5  BGC C   4       2.486   1.215  13.4290  0.00  0.00     0.000 C
ATOM     50  O5  BGC C   4       2.045   1.370  14.7320  0.00  0.00     0.000 O
ATOM     51   O  BGC C   4      -0.012   4.741  14.2120  0.00  0.00     0.000 O
ATOM     53  HD  BGC C   4       0.239   5.457  13.7950  0.00  0.00     0.000 HD
ATOM     53   O  BGC C   4       2.279   4.853  12.6650  0.00  0.00     0.000 O
ATOM     55  HD  BGC C   4       2.530   5.569  12.2480  0.00  0.00     0.000 HD
ATOM     55   C  BGC C   4       3.642   0.252  13.5050  0.00  0.00     0.000 C
ATOM     56   O  BGC C   4       4.788   0.716  14.2290  0.00  0.00     0.000 O
ATOM     58  HD  BGC C   4       5.040   1.432  13.8120  0.00  0.00     0.000 HD
BRANCH 45 58
ATOM     58  O4  BGC C   5       0.654   2.262  16.2630  0.00  0.00     0.000 O
BRANCH 58 62
ATOM     59  C1  BGC C   5       0.426   2.802  19.2640  0.00  0.00     0.000 C
ATOM     60  C2  BGC C   5       1.389   3.751  18.7500  0.00  0.00     0.000 C
ATOM     61  C3  BGC C   5       2.403   3.136  17.7900  0.00  0.00     0.000 C
ATOM     62  C4  BGC C   5       1.774   1.925  17.1170  0.00  0.00     0.000 C
ATOM     63  C5  BGC C   5       1.078   1.126  18.1940  0.00  0.00     0.000 C
ATOM     64  O5  BGC C   5       0.840   1.751  19.4540  0.00  0.00     0.000 O
ATOM     65   O  BGC C   5       3.067  -0.012  18.9580  0.00  0.00     0.000 O
ATOM     67  HD  BGC C   5       2.372  -0.034  18.4410  0.00  0.00     0.000 HD
ATOM     67   O  BGC C   5       3.067  -0.012  18.9580  0.00  0.00     0.000 O
ATOM     69  HD  BGC C   5       2.372  -0.034  18.4410  0.00  0.00     0.000 HD
ENDBRANCH 58 62
ENDBRANCH 45 58
ENDBRANCH 44 48
ENDBRANCH 31 44
ENDBRANCH 30 34
ENDBRANCH 17 30
ENDBRANCH 16 20
ENDBRANCH 1 16
TORSDOF 8
ENDMDL
MODEL 48
REMARK VINA RESULT:      -2.6      6.593     18.086
ROOT
ATOM      1  C1  BGC C   1      30.556   6.656  11.8460  0.00  0.00     0.000 C
ATOM      2  C2  BGC C   1      30.852   7.072  13.2870  0.00  0.00     0.000 C
ATOM      3  C3  BGC C   1      32.259   7.648  13.3850  0.00  0.00     0.000 C
ATOM      4  C4  BGC C   1      33.299   6.738  12.7510  0.00  0.00     0.000 C
ATOM      5  C5  BGC C   1      32.820   6.264  11.3820  0.00  0.00     0.000 C
ATOM      6  O5  BGC C   1      31.513   5.784  11.3790  0.00  0.00     0.000 O
ATOM      7   O  BGC C   1      29.899   8.044  13.6490  0.00  0.00     0.000 O
ATOM      9  HD  BGC C   1      30.386   7.573  14.1900  0.00  0.00     0.000 HD
ATOM      9   O  BGC C   1      32.540   7.902  14.7680  0.00  0.00     0.000 O
ATOM     11  HD  BGC C   1      33.026   7.432  15.3090  0.00  0.00     0.000 HD
ATOM     11   O  BGC C   1      34.497   7.498  12.6400  0.00  0.00     0.000 O
ATOM     13  HD  BGC C   1      34.983   7.027  13.1810  0.00  0.00     0.000 HD
ATOM     13   O  BGC C   1      33.605   3.938  11.7210  0.00  0.00     0.000 O
ATOM     15  HD  BGC C   1      34.091   3.468  12.2620  0.00  0.00     0.000 HD
ATOM     15   C  BGC C   1      33.758   5.137  10.9110  0.00  0.00     0.000 C
ENDROOT
BRANCH 1 16
ATOM     16  O4  BGC C   2      29.326   5.970  11.8190  0.00  0.00     0.000 O
BRANCH 16 20
ATOM     17  C1  BGC C   2      26.332   5.260   9.1350  0.00  0.00     0.000 C
ATOM     18  C2  BGC C   2      27.507   4.296   9.0910  0.00  0.00     0.000 C
ATOM     19  C3  BGC C   2      28.362   4.428  10.3430  0.00  0.00     0.000 C
ATOM     20  C4  BGC C   2      28.722   5.861  10.5530  0.00  0.00     0.000 C
ATOM     21  C5  BGC C   2      27.483   6.750  10.5030  0.00  0.00     0.000 C
ATOM     22  O5  BGC C   2      26.788   6.571   9.3060  0.00  0.00     0.000 O
ATOM     23   O  BGC C   2      27.003   2.957   8.9670  0.00  0.00     0.000 O
ATOM     25  HD  BGC C   2      27.464   2.419   9.4660  0.00  0.00     0.000 HD
ATOM     25   O  BGC C   2      29.544   3.653  10.1870  0.00  0.00     0.000 O
ATOM     27  HD  BGC C   2      30.004   3.115  10.6850  0.00  0.00     0.000 HD
ATOM     27   C  BGC C   2      27.761   8.256  10.6910  0.00  0.00     0.000 C
ATOM     28   O  BGC C   2      28.741   8.726   9.7510  0.00  0.00     0.000 O
ATOM     30  HD  BGC C   2      29.202   8.188  10.2500  0.00  0.00     0.000 HD
BRANCH 17 30
ATOM     30  O4  BGC C   3      25.622   5.185   7.9180  0.00  0.00     0.000 O
BRANCH 30 34
ATOM     31  C1  BGC C   3      21.881   5.550   6.4310  0.00  0.00     0.000 C
ATOM     32  C2  BGC C   3      22.648   6.876   6.6490  0.00  0.00     0.000 C
ATOM     33  C3  BGC C   3      24.102   6.629   6.8590  0.00  0.00     0.000 C
ATOM     34  C4  BGC C   3      24.258   5.578   7.9610  0.00  0.00     0.000 C
ATOM     35  C5  BGC C   3      23.372   4.322   7.7580  0.00  0.00     0.000 C
ATOM     36  O5  BGC C   3      22.036   4.702   7.5420  0.00  0.00     0.000 O
ATOM     37   O  BGC C   3      22.551   7.880   5.6560  0.00  0.00     0.000 O
ATOM     39  HD  BGC C   3      23.064   7.480   6.2280  0.00  0.00     0.000 HD
ATOM     39   O  BGC C   3      24.778   7.870   7.2170  0.00  0.00     0.000 O
ATOM     41  HD  BGC C   3      25.291   7.471   7.7890  0.00  0.00     0.000 HD
ATOM     41   C  BGC C   3      23.367   3.325   8.9390  0.00  0.00     0.000 C
ATOM     42   O  BGC C   3      22.800   3.843  10.1950  0.00  0.00     0.000 O
ATOM     44  HD  BGC C   3      23.313   3.444  10.7670  0.00  0.00     0.000 HD
BRANCH 31 44
ATOM     44  O4  BGC C   4      20.526   5.785   6.2340  0.00  0.00     0.000 O
BRANCH 44 48
ATOM     45  C1  BGC C   4      17.258   4.723   4.0090  0.00  0.00     0.000 C
ATOM     46  C2  BGC C   4      17.506   3.713   5.1750  0.00  0.00     0.000 C
ATOM     47  C3  BGC C   4      18.541   4.458   6.0270  0.00  0.00     0.000 C
ATOM     48  C4  BGC C   4      19.781   5.005   5.3470  0.00  0.00     0.000 C
ATOM     49  C5  BGC C   4      19.282   5.952   4.2440  0.00  0.00     0.000 C
ATOM     50  O5  BGC C   4      18.414   5.301   3.3840  0.00  0.00     0.000 O
ATOM     51   O  BGC C   4      16.388   3.231   6.1170  0.00  0.00     0.000 O
ATOM     53  HD  BGC C   4      16.706   2.769   6.7770  0.00  0.00     0.000 HD
ATOM     53   O  BGC C   4      19.051   3.318   6.8650  0.00  0.00     0.000 O
ATOM     55  HD  BGC C   4      19.369   2.856   7.5250  0.00  0.00     0.000 HD
ATOM     55   C  BGC C   4      20.418   6.438   3.3820  0.00  0.00     0.000 C
ATOM     56   O  BGC C   4      21.210   5.416   2.7670  0.00  0.00     0.000 O
ATOM     58  HD  BGC C   4      21.528   4.953   3.4260  0.00  0.00     0.000 HD
BRANCH 45 58
ATOM     58  O4  BGC C   5      16.520   4.156   2.9680  0.00  0.00     0.000 O
BRANCH 58 62
ATOM     59  C1  BGC C   5      13.500   4.428   3.3630  0.00  0.00     0.000 C
ATOM     60  C2  BGC C   5      13.689   3.804   2.0710  0.00  0.00     0.000 C
ATOM     61  C3  BGC C   5      14.778   4.460   1.2270  0.00  0.00     0.000 C
ATOM     62  C4  BGC C   5      15.795   5.111   2.1540  0.00  0.00     0.000 C
ATOM     63  C5  BGC C   5      15.021   5.857   3.2150  0.00  0.00     0.000 C
ATOM     64  O5  BGC C   5      13.634   5.566   3.3720  0.00  0.00     0.000 O
ATOM     65   O  BGC C   5      14.615   7.819   1.8650  0.00  0.00     0.000 O
ATOM     67  HD  BGC C   5      15.123   7.436   2.4520  0.00  0.00     0.000 HD
ATOM     67   O  BGC C   5      14.615   7.819   1.8650  0.00  0.00     0.000 O
ATOM     69  HD  BGC C   5      15.123   7.436   2.4520  0.00  0.00     0.000 HD
ENDBRANCH 58 62
ENDBRANCH 45 58
ENDBRANCH 44 48
ENDBRANCH 31 44
ENDBRANCH 30 34
ENDBRANCH 17 30
ENDBRANCH 16 20
ENDBRANCH 1 16
TORSDOF 8
ENDMDL
MODEL 49
REMARK VINA RESULT:      -2.6      6.768     18.563
ROOT
ATOM      1  C1  BGC C   1      32.105   5.227  10.7130  0.00  0.00     0.000 C
ATOM      2  C2  BGC C   1      33.483   5.084  10.0680  0.00  0.00     0.000 C
ATOM      3  C3  BGC C   1      34.518   4.719  11.1250  0.00  0.00     0.000 C
ATOM      4  C4  BGC C   1      34.463   5.645  12.3290  0.00  0.00     0.000 C
ATOM      5  C5  BGC C   1      33.019   5.833  12.7850  0.00  0.00     0.000 C
ATOM      6  O5  BGC C   1      32.137   6.132  11.7500  0.00  0.00     0.000 O
ATOM      7   O  BGC C   1      33.393   4.067   9.1000  0.00  0.00     0.000 O
ATOM      9  HD  BGC C   1      34.007   4.675   9.1500  0.00  0.00     0.000 HD
ATOM      9   O  BGC C   1      35.810   4.724  10.5030  0.00  0.00     0.000 O
ATOM     11  HD  BGC C   1      36.424   5.333  10.5530  0.00  0.00     0.000 HD
ATOM     11   O  BGC C   1      35.248   5.040  13.3500  0.00  0.00     0.000 O
ATOM     13  HD  BGC C   1      35.862   5.649  13.4000  0.00  0.00     0.000 HD
ATOM     13   O  BGC C   1      33.276   8.265  13.1820  0.00  0.00     0.000 O
ATOM     15  HD  BGC C   1      33.890   8.873  13.2320  0.00  0.00     0.000 HD
ATOM     15   C  BGC C   1      32.985   6.984  13.8070  0.00  0.00     0.000 C
ENDROOT
BRANCH 1 16
ATOM     16  O4  BGC C   2      31.209   5.734   9.7520  0.00  0.00     0.000 O
BRANCH 16 20
ATOM     17  C1  BGC C   2      27.272   5.348   8.7370  0.00  0.00     0.000 C
ATOM     18  C2  BGC C   2      27.555   6.106  10.0250  0.00  0.00     0.000 C
ATOM     19  C3  BGC C   2      29.023   6.499  10.1080  0.00  0.00     0.000 C
ATOM     20  C4  BGC C   2      29.876   5.297   9.8760  0.00  0.00     0.000 C
ATOM     21  C5  BGC C   2      29.461   4.567   8.6020  0.00  0.00     0.000 C
ATOM     22  O5  BGC C   2      28.107   4.230   8.6400  0.00  0.00     0.000 O
ATOM     23   O  BGC C   2      26.720   7.272  10.0690  0.00  0.00     0.000 O
ATOM     25  HD  BGC C   2      27.167   7.946  10.3800  0.00  0.00     0.000 HD
ATOM     25   O  BGC C   2      29.291   7.038  11.3970  0.00  0.00     0.000 O
ATOM     27  HD  BGC C   2      29.737   7.711  11.7080  0.00  0.00     0.000 HD
ATOM     27   C  BGC C   2      30.277   3.296   8.2900  0.00  0.00     0.000 C
ATOM     28   O  BGC C   2      30.270   2.386   9.4030  0.00  0.00     0.000 O
ATOM     30  HD  BGC C   2      30.717   3.060   9.7140  0.00  0.00     0.000 HD
BRANCH 17 30
ATOM     30  O4  BGC C   3      25.931   4.909   8.7410  0.00  0.00     0.000 O
BRANCH 30 34
ATOM     31  C1  BGC C   3      22.751   4.427   6.2920  0.00  0.00     0.000 C
ATOM     32  C2  BGC C   3      23.890   3.394   6.1230  0.00  0.00     0.000 C
ATOM     33  C3  BGC C   3      24.833   3.438   7.2750  0.00  0.00     0.000 C
ATOM     34  C4  BGC C   3      25.273   4.890   7.4830  0.00  0.00     0.000 C
ATOM     35  C5  BGC C   3      24.098   5.900   7.5200  0.00  0.00     0.000 C
ATOM     36  O5  BGC C   3      23.276   5.728   6.3930  0.00  0.00     0.000 O
ATOM     37   O  BGC C   3      23.543   2.034   5.9420  0.00  0.00     0.000 O
ATOM     39  HD  BGC C   3      24.094   2.593   6.3060  0.00  0.00     0.000 HD
ATOM     39   O  BGC C   3      25.979   2.572   7.0230  0.00  0.00     0.000 O
ATOM     41  HD  BGC C   3      26.530   3.132   7.3870  0.00  0.00     0.000 HD
ATOM     41   C  BGC C   3      24.514   7.389   7.5450  0.00  0.00     0.000 C
ATOM     42   O  BGC C   3      25.226   7.861   6.3450  0.00  0.00     0.000 O
ATOM     44  HD  BGC C   3      25.777   8.421   6.7090  0.00  0.00     0.000 HD
BRANCH 31 44
ATOM     44  O4  BGC C   4      21.873   4.381   5.2170  0.00  0.00     0.000 O
BRANCH 44 48
ATOM     45  C1  BGC C   4      17.991   4.977   4.0640  0.00  0.00     0.000 C
ATOM     46  C2  BGC C   4      18.777   6.325   4.1330  0.00  0.00     0.000 C
ATOM     47  C3  BGC C   4      20.227   5.841   4.2680  0.00  0.00     0.000 C
ATOM     48  C4  BGC C   4      20.555   4.824   5.3430  0.00  0.00     0.000 C
ATOM     49  C5  BGC C   4      19.656   3.608   5.0710  0.00  0.00     0.000 C
ATOM     50  O5  BGC C   4      18.321   3.973   5.0360  0.00  0.00     0.000 O
ATOM     51   O  BGC C   4      18.740   7.375   3.0080  0.00  0.00     0.000 O
ATOM     53  HD  BGC C   4      19.316   8.007   3.1450  0.00  0.00     0.000 HD
ATOM     53   O  BGC C   4      20.877   7.110   4.7470  0.00  0.00     0.000 O
ATOM     55  HD  BGC C   4      21.453   7.742   4.8830  0.00  0.00     0.000 HD
ATOM     55   C  BGC C   4      19.767   2.585   6.1720  0.00  0.00     0.000 C
ATOM     56   O  BGC C   4      19.483   3.063   7.4920  0.00  0.00     0.000 O
ATOM     58  HD  BGC C   4      20.059   3.695   7.6290  0.00  0.00     0.000 HD
BRANCH 45 58
ATOM     58  O4  BGC C   5      16.612   5.165   4.1810  0.00  0.00     0.000 O
BRANCH 58 62
ATOM     59  C1  BGC C   5      13.639   5.861   4.0030  0.00  0.00     0.000 C
ATOM     60  C2  BGC C   5      13.710   4.460   4.3540  0.00  0.00     0.000 C
ATOM     61  C3  BGC C   5      14.735   3.675   3.5380  0.00  0.00     0.000 C
ATOM     62  C4  BGC C   5      15.835   4.624   3.0840  0.00  0.00     0.000 C
ATOM     63  C5  BGC C   5      15.163   5.876   2.5690  0.00  0.00     0.000 C
ATOM     64  O5  BGC C   5      13.790   6.088   2.8910  0.00  0.00     0.000 O
ATOM     65   O  BGC C   5      14.673   4.988   0.3760  0.00  0.00     0.000 O
ATOM     67  HD  BGC C   5      15.223   5.441   0.8690  0.00  0.00     0.000 HD
ATOM     67   O  BGC C   5      14.673   4.988   0.3760  0.00  0.00     0.000 O
ATOM     69  HD  BGC C   5      15.223   5.441   0.8690  0.00  0.00     0.000 HD
ENDBRANCH 58 62
ENDBRANCH 45 58
ENDBRANCH 44 48
ENDBRANCH 31 44
ENDBRANCH 30 34
ENDBRANCH 17 30
ENDBRANCH 16 20
ENDBRANCH 1 16
TORSDOF 8
ENDMDL
MODEL 50
REMARK VINA RESULT:      -2.6      8.857     14.119
ROOT
ATOM      1  C1  BGC C   1      17.233   7.936  19.1870  0.00  0.00     0.000 C
ATOM      2  C2  BGC C   1      18.469   7.762  20.0690  0.00  0.00     0.000 C
ATOM      3  C3  BGC C   1      18.106   8.008  21.5290  0.00  0.00     0.000 C
ATOM      4  C4  BGC C   1      17.355   9.315  21.7230  0.00  0.00     0.000 C
ATOM      5  C5  BGC C   1      16.244   9.444  20.6840  0.00  0.00     0.000 C
ATOM      6  O5  BGC C   1      16.657   9.170  19.3830  0.00  0.00     0.000 O
ATOM      7   O  BGC C   1      18.930   6.444  19.8950  0.00  0.00     0.000 O
ATOM      9  HD  BGC C   1      19.383   7.109  20.2150  0.00  0.00     0.000 HD
ATOM      9   O  BGC C   1      19.314   7.965  22.3010  0.00  0.00     0.000 O
ATOM     11  HD  BGC C   1      19.767   8.630  22.6210  0.00  0.00     0.000 HD
ATOM     11   O  BGC C   1      16.821   9.291  23.0420  0.00  0.00     0.000 O
ATOM     13  HD  BGC C   1      17.274   9.956  23.3620  0.00  0.00     0.000 HD
ATOM     13   O  BGC C   1      16.688  11.843  20.2520  0.00  0.00     0.000 O
ATOM     15  HD  BGC C   1      17.141  12.508  20.5720  0.00  0.00     0.000 HD
ATOM     15   C  BGC C   1      15.705  10.886  20.7350  0.00  0.00     0.000 C
ENDROOT
BRANCH 1 16
ATOM     16  O4  BGC C   2      17.632   7.878  17.8380  0.00  0.00     0.000 O
BRANCH 16 20
ATOM     17  C1  BGC C   2      16.063   6.641  14.2760  0.00  0.00     0.000 C
ATOM     18  C2  BGC C   2      15.695   8.051  14.7100  0.00  0.00     0.000 C
ATOM     19  C3  BGC C   2      16.607   8.525  15.8330  0.00  0.00     0.000 C
ATOM     20  C4  BGC C   2      16.626   7.508  16.9240  0.00  0.00     0.000 C
ATOM     21  C5  BGC C   2      16.928   6.118  16.3730  0.00  0.00     0.000 C
ATOM     22  O5  BGC C   2      16.021   5.771  15.3710  0.00  0.00     0.000 O
ATOM     23   O  BGC C   2      15.798   8.926  13.5770  0.00  0.00     0.000 O
ATOM     25  HD  BGC C   2      16.150   9.680  13.8150  0.00  0.00     0.000 HD
ATOM     25   O  BGC C   2      16.122   9.763  16.3380  0.00  0.00     0.000 O
ATOM     27  HD  BGC C   2      16.475  10.518  16.5760  0.00  0.00     0.000 HD
ATOM     27   C  BGC C   2      16.950   4.994  17.4290  0.00  0.00     0.000 C
ATOM     28   O  BGC C   2      15.729   4.968  18.1870  0.00  0.00     0.000 O
ATOM     30  HD  BGC C   2      16.081   5.722  18.4250  0.00  0.00     0.000 HD
BRANCH 17 30
ATOM     30  O4  BGC C   3      15.135   6.194  13.3110  0.00  0.00     0.000 O
BRANCH 30 34
ATOM     31  C1  BGC C   3      14.965   3.970   9.9400  0.00  0.00     0.000 C
ATOM     32  C2  BGC C   3      14.810   3.189  11.2670  0.00  0.00     0.000 C
ATOM     33  C3  BGC C   3      14.539   4.111  12.4060  0.00  0.00     0.000 C
ATOM     34  C4  BGC C   3      15.602   5.212  12.3980  0.00  0.00     0.000 C
ATOM     35  C5  BGC C   3      15.805   5.876  11.0130  0.00  0.00     0.000 C
ATOM     36  O5  BGC C   3      16.021   4.893  10.0320  0.00  0.00     0.000 O
ATOM     37   O  BGC C   3      13.833   2.168  11.3360  0.00  0.00     0.000 O
ATOM     39  HD  BGC C   3      14.229   2.815  11.7540  0.00  0.00     0.000 HD
ATOM     39   O  BGC C   3      14.553   3.375  13.6640  0.00  0.00     0.000 O
ATOM     41  HD  BGC C   3      14.949   4.022  14.0820  0.00  0.00     0.000 HD
ATOM     41   C  BGC C   3      16.993   6.862  10.9250  0.00  0.00     0.000 C
ATOM     42   O  BGC C   3      18.323   6.260  11.1230  0.00  0.00     0.000 O
ATOM     44  HD  BGC C   3      18.719   6.907  11.5410  0.00  0.00     0.000 HD
BRANCH 31 44
ATOM     44  O4  BGC C   4      15.215   3.107   8.8810  0.00  0.00     0.000 O
BRANCH 44 48
ATOM     45  C1  BGC C   4      14.520   2.401   4.9090  0.00  0.00     0.000 C
ATOM     46  C2  BGC C   4      15.471   3.624   5.1120  0.00  0.00     0.000 C
ATOM     47  C3  BGC C   4      15.829   3.505   6.5990  0.00  0.00     0.000 C
ATOM     48  C4  BGC C   4      14.705   3.363   7.6060  0.00  0.00     0.000 C
ATOM     49  C5  BGC C   4      13.915   2.111   7.1920  0.00  0.00     0.000 C
ATOM     50  O5  BGC C   4      13.480   2.209   5.8810  0.00  0.00     0.000 O
ATOM     51   O  BGC C   4      16.785   3.802   4.3300  0.00  0.00     0.000 O
ATOM     53  HD  BGC C   4      17.251   4.463   4.6390  0.00  0.00     0.000 HD
ATOM     53   O  BGC C   4      16.373   4.886   6.8420  0.00  0.00     0.000 O
ATOM     55  HD  BGC C   4      16.839   5.547   7.1510  0.00  0.00     0.000 HD
ATOM     55   C  BGC C   4      12.666   1.952   8.0210  0.00  0.00     0.000 C
ATOM     56   O  BGC C   4      11.770   3.069   8.0130  0.00  0.00     0.000 O
ATOM     58  HD  BGC C   4      12.236   3.730   8.3220  0.00  0.00     0.000 HD
BRANCH 45 58
ATOM     58  O4  BGC C   5      13.868   2.439   3.6740  0.00  0.00     0.000 O
BRANCH 58 62
ATOM     59  C1  BGC C   5      12.421   3.280   1.1150  0.00  0.00     0.000 C
ATOM     60  C2  BGC C   5      12.509   4.463   1.9430  0.00  0.00     0.000 C
ATOM     61  C3  BGC C   5      12.156   4.214   3.4070  0.00  0.00     0.000 C
ATOM     62  C4  BGC C   5      12.458   2.762   3.7470  0.00  0.00     0.000 C
ATOM     63  C5  BGC C   5      11.915   1.915   2.6190  0.00  0.00     0.000 C
ATOM     64  O5  BGC C   5      11.575   2.559   1.3930  0.00  0.00     0.000 O
ATOM     65   O  BGC C   5       9.637   1.896   3.4210  0.00  0.00     0.000 O
ATOM     67  HD  BGC C   5      10.403   1.493   3.4050  0.00  0.00     0.000 HD
ATOM     67   O  BGC C   5       9.637   1.896   3.4210  0.00  0.00     0.000 O
ATOM     69  HD  BGC C   5      10.403   1.493   3.4050  0.00  0.00     0.000 HD
ENDBRANCH 58 62
ENDBRANCH 45 58
ENDBRANCH 44 48
ENDBRANCH 31 44
ENDBRANCH 30 34
ENDBRANCH 17 30
ENDBRANCH 16 20
ENDBRANCH 1 16
TORSDOF 8
ENDMDL
MODEL 51
REMARK VINA RESULT:      -2.6      9.291     13.295
ROOT
ATOM      1  C1  BGC C   1      12.323  19.765   6.8550  0.00  0.00     0.000 C
ATOM      2  C2  BGC C   1      13.298  20.942   6.8390  0.00  0.00     0.000 C
ATOM      3  C3  BGC C   1      12.800  22.045   7.7650  0.00  0.00     0.000 C
ATOM      4  C4  BGC C   1      11.349  22.408   7.4980  0.00  0.00     0.000 C
ATOM      5  C5  BGC C   1      10.502  21.144   7.3810  0.00  0.00     0.000 C
ATOM      6  O5  BGC C   1      11.048  20.177   6.5410  0.00  0.00     0.000 O
ATOM      7   O  BGC C   1      14.547  20.462   7.2780  0.00  0.00     0.000 O
ATOM      9  HD  BGC C   1      14.404  21.192   6.8340  0.00  0.00     0.000 HD
ATOM      9   O  BGC C   1      13.671  23.175   7.6190  0.00  0.00     0.000 O
ATOM     11  HD  BGC C   1      13.528  23.905   7.1760  0.00  0.00     0.000 HD
ATOM     11   O  BGC C   1      10.918  23.212   8.5910  0.00  0.00     0.000 O
ATOM     13  HD  BGC C   1      10.775  23.943   8.1480  0.00  0.00     0.000 HD
ATOM     13   O  BGC C   1       9.195  21.989   5.4530  0.00  0.00     0.000 O
ATOM     15  HD  BGC C   1       9.052  22.719   5.0100  0.00  0.00     0.000 HD
ATOM     15   C  BGC C   1       9.118  21.543   6.8350  0.00  0.00     0.000 C
ENDROOT
BRANCH 1 16
ATOM     16  O4  BGC C   2      12.713  18.843   5.8640  0.00  0.00     0.000 O
BRANCH 16 20
ATOM     17  C1  BGC C   2      12.669  14.800   5.2930  0.00  0.00     0.000 C
ATOM     18  C2  BGC C   2      11.361  15.524   5.0190  0.00  0.00     0.000 C
ATOM     19  C3  BGC C   2      11.588  17.025   4.9080  0.00  0.00     0.000 C
ATOM     20  C4  BGC C   2      12.343  17.506   6.1010  0.00  0.00     0.000 C
ATOM     21  C5  BGC C   2      13.595  16.666   6.3320  0.00  0.00     0.000 C
ATOM     22  O5  BGC C   2      13.274  15.312   6.4460  0.00  0.00     0.000 O
ATOM     23   O  BGC C   2      10.793  15.012   3.8040  0.00  0.00     0.000 O
ATOM     25  HD  BGC C   2      10.456  15.659   3.3380  0.00  0.00     0.000 HD
ATOM     25   O  BGC C   2      10.329  17.684   4.8370  0.00  0.00     0.000 O
ATOM     27  HD  BGC C   2       9.992  18.331   4.3710  0.00  0.00     0.000 HD
ATOM     27   C  BGC C   2      14.433  17.078   7.5610  0.00  0.00     0.000 C
ATOM     28   O  BGC C   2      13.631  17.104   8.7530  0.00  0.00     0.000 O
ATOM     30  HD  BGC C   2      13.294  17.751   8.2860  0.00  0.00     0.000 HD
BRANCH 17 30
ATOM     30  O4  BGC C   3      12.409  13.428   5.4940  0.00  0.00     0.000 O
BRANCH 30 34
ATOM     31  C1  BGC C   3      13.945   9.770   4.7210  0.00  0.00     0.000 C
ATOM     32  C2  BGC C   3      14.647  10.568   5.8450  0.00  0.00     0.000 C
ATOM     33  C3  BGC C   3      13.815  11.722   6.2860  0.00  0.00     0.000 C
ATOM     34  C4  BGC C   3      13.411  12.527   5.0480  0.00  0.00     0.000 C
ATOM     35  C5  BGC C   3      12.828  11.660   3.9030  0.00  0.00     0.000 C
ATOM     36  O5  BGC C   3      13.698  10.596   3.6100  0.00  0.00     0.000 O
ATOM     37   O  BGC C   3      15.032   9.879   7.0200  0.00  0.00     0.000 O
ATOM     39  HD  BGC C   3      14.713  10.612   6.6870  0.00  0.00     0.000 HD
ATOM     39   O  BGC C   3      14.559  12.548   7.2300  0.00  0.00     0.000 O
ATOM     41  HD  BGC C   3      14.241  13.282   6.8970  0.00  0.00     0.000 HD
ATOM     41   C  BGC C   3      12.579  12.410   2.5740  0.00  0.00     0.000 C
ATOM     42   O  BGC C   3      13.787  12.935   1.9150  0.00  0.00     0.000 O
ATOM     44  HD  BGC C   3      13.469  13.669   1.5820  0.00  0.00     0.000 HD
BRANCH 31 44
ATOM     44  O4  BGC C   4      14.723   8.694   4.3140  0.00  0.00     0.000 O
BRANCH 44 48
ATOM     45  C1  BGC C   4      14.645   4.786   3.0970  0.00  0.00     0.000 C
ATOM     46  C2  BGC C   4      14.056   5.734   2.0040  0.00  0.00     0.000 C
ATOM     47  C3  BGC C   4      14.466   7.116   2.5280  0.00  0.00     0.000 C
ATOM     48  C4  BGC C   4      14.139   7.474   3.9650  0.00  0.00     0.000 C
ATOM     49  C5  BGC C   4      14.812   6.401   4.8360  0.00  0.00     0.000 C
ATOM     50  O5  BGC C   4      14.399   5.131   4.4690  0.00  0.00     0.000 O
ATOM     51   O  BGC C   4      14.463   5.659   0.5220  0.00  0.00     0.000 O
ATOM     53  HD  BGC C   4      14.139   6.322   0.0700  0.00  0.00     0.000 HD
ATOM     53   O  BGC C   4      13.546   7.982   1.7120  0.00  0.00     0.000 O
ATOM     55  HD  BGC C   4      13.222   8.646   1.2600  0.00  0.00     0.000 HD
ATOM     55   C  BGC C   4      14.424   6.549   6.2850  0.00  0.00     0.000 C
ATOM     56   O  BGC C   4      13.018   6.526   6.5560  0.00  0.00     0.000 O
ATOM     58  HD  BGC C   4      12.694   7.190   6.1040  0.00  0.00     0.000 HD
BRANCH 45 58
ATOM     58  O4  BGC C   5      14.187   3.473   2.9590  0.00  0.00     0.000 O
BRANCH 58 62
ATOM     59  C1  BGC C   5      12.306   1.216   2.1120  0.00  0.00     0.000 C
ATOM     60  C2  BGC C   5      11.548   2.443   2.0030  0.00  0.00     0.000 C
ATOM     61  C3  BGC C   5      11.720   3.378   3.1970  0.00  0.00     0.000 C
ATOM     62  C4  BGC C   5      13.081   3.127   3.8280  0.00  0.00     0.000 C
ATOM     63  C5  BGC C   5      13.259   1.629   3.9290  0.00  0.00     0.000 C
ATOM     64  O5  BGC C   5      12.386   0.792   3.1730  0.00  0.00     0.000 O
ATOM     65   O  BGC C   5      11.985   1.383   5.9660  0.00  0.00     0.000 O
ATOM     67  HD  BGC C   5      12.766   1.489   5.6080  0.00  0.00     0.000 HD
ATOM     67   O  BGC C   5      11.985   1.383   5.9660  0.00  0.00     0.000 O
ATOM     69  HD  BGC C   5      12.766   1.489   5.6080  0.00  0.00     0.000 HD
ENDBRANCH 58 62
ENDBRANCH 45 58
ENDBRANCH 44 48
ENDBRANCH 31 44
ENDBRANCH 30 34
ENDBRANCH 17 30
ENDBRANCH 16 20
ENDBRANCH 1 16
TORSDOF 8
ENDMDL
MODEL 52
REMARK VINA RESULT:      -2.5     12.320     16.005
ROOT
ATOM      1  C1  BGC C   1      13.000  23.598   7.4270  0.00  0.00     0.000 C
ATOM      2  C2  BGC C   1      13.729  24.848   6.9340  0.00  0.00     0.000 C
ATOM      3  C3  BGC C   1      13.631  25.955   7.9770  0.00  0.00     0.000 C
ATOM      4  C4  BGC C   1      12.202  26.183   8.4410  0.00  0.00     0.000 C
ATOM      5  C5  BGC C   1      11.529  24.849   8.7560  0.00  0.00     0.000 C
ATOM      6  O5  BGC C   1      11.698  23.887   7.7640  0.00  0.00     0.000 O
ATOM      7   O  BGC C   1      15.075  24.495   6.7200  0.00  0.00     0.000 O
ATOM      9  HD  BGC C   1      14.667  25.187   6.3960  0.00  0.00     0.000 HD
ATOM      9   O  BGC C   1      14.210  27.142   7.4210  0.00  0.00     0.000 O
ATOM     11  HD  BGC C   1      13.802  27.834   7.0960  0.00  0.00     0.000 HD
ATOM     11   O  BGC C   1      12.271  27.007   9.5990  0.00  0.00     0.000 O
ATOM     13  HD  BGC C   1      11.863  27.698   9.2750  0.00  0.00     0.000 HD
ATOM     13   O  BGC C   1       9.383  25.481   7.6910  0.00  0.00     0.000 O
ATOM     15  HD  BGC C   1       8.975  26.172   7.3660  0.00  0.00     0.000 HD
ATOM     15   C  BGC C   1      10.022  25.104   8.9420  0.00  0.00     0.000 C
ENDROOT
BRANCH 1 16
ATOM     16  O4  BGC C   2      12.956  22.659   6.3780  0.00  0.00     0.000 O
BRANCH 16 20
ATOM     17  C1  BGC C   2      12.820  18.598   5.9780  0.00  0.00     0.000 C
ATOM     18  C2  BGC C   2      11.478  19.295   6.1410  0.00  0.00     0.000 C
ATOM     19  C3  BGC C   2      11.618  20.794   5.9150  0.00  0.00     0.000 C
ATOM     20  C4  BGC C   2      12.720  21.327   6.7670  0.00  0.00     0.000 C
ATOM     21  C5  BGC C   2      13.997  20.512   6.5850  0.00  0.00     0.000 C
ATOM     22  O5  BGC C   2      13.766  19.159   6.8420  0.00  0.00     0.000 O
ATOM     23   O  BGC C   2      10.546  18.731   5.2070  0.00  0.00     0.000 O
ATOM     25  HD  BGC C   2      10.056  19.356   4.8620  0.00  0.00     0.000 HD
ATOM     25   O  BGC C   2      10.394  21.434   6.2550  0.00  0.00     0.000 O
ATOM     27  HD  BGC C   2       9.903  22.059   5.9110  0.00  0.00     0.000 HD
ATOM     27   C  BGC C   2      15.190  20.980   7.4450  0.00  0.00     0.000 C
ATOM     28   O  BGC C   2      14.838  21.039   8.8360  0.00  0.00     0.000 O
ATOM     30  HD  BGC C   2      14.347  21.664   8.4920  0.00  0.00     0.000 HD
BRANCH 17 30
ATOM     30  O4  BGC C   3      12.676  17.230   6.2960  0.00  0.00     0.000 O
BRANCH 30 34
ATOM     31  C1  BGC C   3      14.023  13.599   5.1400  0.00  0.00     0.000 C
ATOM     32  C2  BGC C   3      14.884  14.328   6.1990  0.00  0.00     0.000 C
ATOM     33  C3  BGC C   3      14.141  15.468   6.8060  0.00  0.00     0.000 C
ATOM     34  C4  BGC C   3      13.592  16.341   5.6750  0.00  0.00     0.000 C
ATOM     35  C5  BGC C   3      12.845  15.544   4.5750  0.00  0.00     0.000 C
ATOM     36  O5  BGC C   3      13.647  14.486   4.1150  0.00  0.00     0.000 O
ATOM     37   O  BGC C   3      15.407  13.572   7.2750  0.00  0.00     0.000 O
ATOM     39  HD  BGC C   3      15.062  14.326   7.0260  0.00  0.00     0.000 HD
ATOM     39   O  BGC C   3      15.020  16.232   7.6820  0.00  0.00     0.000 O
ATOM     41  HD  BGC C   3      14.675  16.987   7.4330  0.00  0.00     0.000 HD
ATOM     41   C  BGC C   3      12.437  16.367   3.3320  0.00  0.00     0.000 C
ATOM     42   O  BGC C   3      13.557  16.911   2.5440  0.00  0.00     0.000 O
ATOM     44  HD  BGC C   3      13.212  17.665   2.2950  0.00  0.00     0.000 HD
BRANCH 31 44
ATOM     44  O4  BGC C   4      14.718  12.536   4.5790  0.00  0.00     0.000 O
BRANCH 44 48
ATOM     45  C1  BGC C   4      14.284   8.676   3.2850  0.00  0.00     0.000 C
ATOM     46  C2  BGC C   4      14.185   9.689   2.0990  0.00  0.00     0.000 C
ATOM     47  C3  BGC C   4      14.677  10.988   2.7490  0.00  0.00     0.000 C
ATOM     48  C4  BGC C   4      14.045  11.431   4.0540  0.00  0.00     0.000 C
ATOM     49  C5  BGC C   4      14.259  10.276   5.0460  0.00  0.00     0.000 C
ATOM     50  O5  BGC C   4      13.744   9.091   4.5490  0.00  0.00     0.000 O
ATOM     51   O  BGC C   4      14.956   9.509   0.7790  0.00  0.00     0.000 O
ATOM     53  HD  BGC C   4      14.886  10.209   0.2730  0.00  0.00     0.000 HD
ATOM     53   O  BGC C   4      14.176  11.984   1.7390  0.00  0.00     0.000 O
ATOM     55  HD  BGC C   4      14.107  12.684   1.2340  0.00  0.00     0.000 HD
ATOM     55   C  BGC C   4      13.530  10.523   6.3410  0.00  0.00     0.000 C
ATOM     56   O  BGC C   4      12.121  10.755   6.2250  0.00  0.00     0.000 O
ATOM     58  HD  BGC C   4      12.052  11.455   5.7200  0.00  0.00     0.000 HD
BRANCH 45 58
ATOM     58  O4  BGC C   5      13.656   7.463   2.9960  0.00  0.00     0.000 O
BRANCH 58 62
ATOM     59  C1  BGC C   5      12.733   4.547   3.0430  0.00  0.00     0.000 C
ATOM     60  C2  BGC C   5      13.814   4.650   3.9990  0.00  0.00     0.000 C
ATOM     61  C3  BGC C   5      15.013   5.444   3.4870  0.00  0.00     0.000 C
ATOM     62  C4  BGC C   5      14.532   6.447   2.4480  0.00  0.00     0.000 C
ATOM     63  C5  BGC C   5      13.579   5.718   1.5290  0.00  0.00     0.000 C
ATOM     64  O5  BGC C   5      13.064   4.457   1.9500  0.00  0.00     0.000 O
ATOM     65   O  BGC C   5      15.300   4.730   0.1510  0.00  0.00     0.000 O
ATOM     67  HD  BGC C   5      14.748   5.389   0.2610  0.00  0.00     0.000 HD
ATOM     67   O  BGC C   5      15.300   4.730   0.1510  0.00  0.00     0.000 O
ATOM     69  HD  BGC C   5      14.748   5.389   0.2610  0.00  0.00     0.000 HD
ENDBRANCH 58 62
ENDBRANCH 45 58
ENDBRANCH 44 48
ENDBRANCH 31 44
ENDBRANCH 30 34
ENDBRANCH 17 30
ENDBRANCH 16 20
ENDBRANCH 1 16
TORSDOF 8
ENDMDL
MODEL 53
REMARK VINA RESULT:      -2.5      9.043     13.669
ROOT
ATOM      1  C1  BGC C   1      12.195   4.266   3.8010  0.00  0.00     0.000 C
ATOM      2  C2  BGC C   1      11.591   4.062   2.4130  0.00  0.00     0.000 C
ATOM      3  C3  BGC C   1      12.699   3.977   1.3690  0.00  0.00     0.000 C
ATOM      4  C4  BGC C   1      13.684   5.130   1.4810  0.00  0.00     0.000 C
ATOM      5  C5  BGC C   1      14.094   5.334   2.9360  0.00  0.00     0.000 C
ATOM      6  O5  BGC C   1      13.021   5.367   3.8230  0.00  0.00     0.000 O
ATOM      7   O  BGC C   1      10.856   2.862   2.4430  0.00  0.00     0.000 O
ATOM      9  HD  BGC C   1      10.777   3.499   1.8610  0.00  0.00     0.000 HD
ATOM      9   O  BGC C   1      12.086   3.919   0.0740  0.00  0.00     0.000 O
ATOM     11  HD  BGC C   1      12.008   4.555  -0.5080  0.00  0.00     0.000 HD
ATOM     11   O  BGC C   1      14.807   4.791   0.6750  0.00  0.00     0.000 O
ATOM     13  HD  BGC C   1      14.728   5.427   0.0930  0.00  0.00     0.000 HD
ATOM     13   O  BGC C   1      13.976   7.806   2.8040  0.00  0.00     0.000 O
ATOM     15  HD  BGC C   1      13.898   8.442   2.2220  0.00  0.00     0.000 HD
ATOM     15   C  BGC C   1      14.854   6.669   3.0370  0.00  0.00     0.000 C
ENDROOT
BRANCH 1 16
ATOM     16  O4  BGC C   2      11.152   4.516   4.7140  0.00  0.00     0.000 O
BRANCH 16 20
ATOM     17  C1  BGC C   2      10.240   3.722   8.6140  0.00  0.00     0.000 C
ATOM     18  C2  BGC C   2      11.480   4.571   8.3810  0.00  0.00     0.000 C
ATOM     19  C3  BGC C   2      11.512   5.099   6.9540  0.00  0.00     0.000 C
ATOM     20  C4  BGC C   2      11.326   3.968   5.9990  0.00  0.00     0.000 C
ATOM     21  C5  BGC C   2      10.101   3.136   6.3660  0.00  0.00     0.000 C
ATOM     22  O5  BGC C   2      10.185   2.680   7.6820  0.00  0.00     0.000 O
ATOM     23   O  BGC C   2      11.479   5.658   9.3180  0.00  0.00     0.000 O
ATOM     25  HD  BGC C   2      11.746   6.385   8.9300  0.00  0.00     0.000 HD
ATOM     25   O  BGC C   2      12.765   5.729   6.7170  0.00  0.00     0.000 O
ATOM     27  HD  BGC C   2      13.031   6.456   6.3280  0.00  0.00     0.000 HD
ATOM     27   C  BGC C   2       9.840   1.928   5.4420  0.00  0.00     0.000 C
ATOM     28   O  BGC C   2      10.999   1.083   5.3490  0.00  0.00     0.000 O
ATOM     30  HD  BGC C   2      11.265   1.810   4.9600  0.00  0.00     0.000 HD
BRANCH 17 30
ATOM     30  O4  BGC C   3      10.294   3.164   9.9100  0.00  0.00     0.000 O
BRANCH 30 34
ATOM     31  C1  BGC C   3       7.926   2.434  13.1030  0.00  0.00     0.000 C
ATOM     32  C2  BGC C   3       7.919   1.349  12.0010  0.00  0.00     0.000 C
ATOM     33  C3  BGC C   3       9.057   1.531  11.0570  0.00  0.00     0.000 C
ATOM     34  C4  BGC C   3       9.049   2.981  10.5670  0.00  0.00     0.000 C
ATOM     35  C5  BGC C   3       8.929   4.026  11.7060  0.00  0.00     0.000 C
ATOM     36  O5  BGC C   3       7.835   3.717  12.5330  0.00  0.00     0.000 O
ATOM     37   O  BGC C   3       7.939  -0.010  12.3960  0.00  0.00     0.000 O
ATOM     39  HD  BGC C   3       8.220   0.578  11.8250  0.00  0.00     0.000 HD
ATOM     39   O  BGC C   3       8.943   0.598   9.9430  0.00  0.00     0.000 O
ATOM     41  HD  BGC C   3       9.223   1.186   9.3720  0.00  0.00     0.000 HD
ATOM     41   C  BGC C   3       8.734   5.487  11.2380  0.00  0.00     0.000 C
ATOM     42   O  BGC C   3       7.482   5.750  10.5090  0.00  0.00     0.000 O
ATOM     44  HD  BGC C   3       7.763   6.339   9.9380  0.00  0.00     0.000 HD
BRANCH 31 44
ATOM     44  O4  BGC C   4       6.865   2.259  13.9810  0.00  0.00     0.000 O
BRANCH 44 48
ATOM     45  C1  BGC C   4       5.698   2.489  17.8990  0.00  0.00     0.000 C
ATOM     46  C2  BGC C   4       5.873   3.910  17.2730  0.00  0.00     0.000 C
ATOM     47  C3  BGC C   4       5.994   3.586  15.7780  0.00  0.00     0.000 C
ATOM     48  C4  BGC C   4       7.002   2.540  15.3430  0.00  0.00     0.000 C
ATOM     49  C5  BGC C   4       6.632   1.251  16.0940  0.00  0.00     0.000 C
ATOM     50  O5  BGC C   4       6.604   1.463  17.4620  0.00  0.00     0.000 O
ATOM     51   O  BGC C   4       4.823   5.025  17.4220  0.00  0.00     0.000 O
ATOM     53  HD  BGC C   4       5.011   5.708  16.9230  0.00  0.00     0.000 HD
ATOM     53   O  BGC C   4       6.570   4.884  15.2810  0.00  0.00     0.000 O
ATOM     55  HD  BGC C   4       6.758   5.566  14.7820  0.00  0.00     0.000 HD
ATOM     55   C  BGC C   4       7.662   0.173  15.8740  0.00  0.00     0.000 C
ATOM     56   O  BGC C   4       9.007   0.521  16.2200  0.00  0.00     0.000 O
ATOM     58  HD  BGC C   4       9.196   1.203  15.7210  0.00  0.00     0.000 HD
BRANCH 45 58
ATOM     58  O4  BGC C   5       5.808   2.510  19.2910  0.00  0.00     0.000 O
BRANCH 58 62
ATOM     59  C1  BGC C   5       6.461   2.996  22.2390  0.00  0.00     0.000 C
ATOM     60  C2  BGC C   5       7.315   3.883  21.4790  0.00  0.00     0.000 C
ATOM     61  C3  BGC C   5       7.973   3.216  20.2740  0.00  0.00     0.000 C
ATOM     62  C4  BGC C   5       7.090   2.070  19.8010  0.00  0.00     0.000 C
ATOM     63  C5  BGC C   5       6.658   1.301  21.0280  0.00  0.00     0.000 C
ATOM     64  O5  BGC C   5       6.827   1.914  22.3050  0.00  0.00     0.000 O
ATOM     65   O  BGC C   5       8.686   0.000  21.2100  0.00  0.00     0.000 O
ATOM     67  HD  BGC C   5       7.876   0.043  20.9060  0.00  0.00     0.000 HD
ATOM     67   O  BGC C   5       8.686   0.000  21.2100  0.00  0.00     0.000 O
ATOM     69  HD  BGC C   5       7.876   0.043  20.9060  0.00  0.00     0.000 HD
ENDBRANCH 58 62
ENDBRANCH 45 58
ENDBRANCH 44 48
ENDBRANCH 31 44
ENDBRANCH 30 34
ENDBRANCH 17 30
ENDBRANCH 16 20
ENDBRANCH 1 16
TORSDOF 8
ENDMDL
MODEL 54
REMARK VINA RESULT:      -2.4      9.966     14.421
ROOT
ATOM      1  C1  BGC C   1      16.084   7.830  20.7200  0.00  0.00     0.000 C
ATOM      2  C2  BGC C   1      17.112   7.275  21.7050  0.00  0.00     0.000 C
ATOM      3  C3  BGC C   1      16.563   7.344  23.1260  0.00  0.00     0.000 C
ATOM      4  C4  BGC C   1      16.021   8.722  23.4670  0.00  0.00     0.000 C
ATOM      5  C5  BGC C   1      15.133   9.235  22.3370  0.00  0.00     0.000 C
ATOM      6  O5  BGC C   1      15.700   9.104  21.0730  0.00  0.00     0.000 O
ATOM      7   O  BGC C   1      17.366   5.939  21.3430  0.00  0.00     0.000 O
ATOM      9  HD  BGC C   1      17.866   6.441  21.8410  0.00  0.00     0.000 HD
ATOM      9   O  BGC C   1      17.604   6.938  24.0250  0.00  0.00     0.000 O
ATOM     11  HD  BGC C   1      18.104   7.440  24.5220  0.00  0.00     0.000 HD
ATOM     11   O  BGC C   1      15.284   8.586  24.6770  0.00  0.00     0.000 O
ATOM     13  HD  BGC C   1      15.785   9.088  25.1750  0.00  0.00     0.000 HD
ATOM     13   O  BGC C   1      16.041  11.538  22.4350  0.00  0.00     0.000 O
ATOM     15  HD  BGC C   1      16.541  12.040  22.9330  0.00  0.00     0.000 HD
ATOM     15   C  BGC C   1      14.845  10.726  22.5940  0.00  0.00     0.000 C
ENDROOT
BRANCH 1 16
ATOM     16  O4  BGC C   2      16.682   7.918  19.4480  0.00  0.00     0.000 O
BRANCH 16 20
ATOM     17  C1  BGC C   2      15.550   7.623  15.5350  0.00  0.00     0.000 C
ATOM     18  C2  BGC C   2      15.275   8.958  16.2080  0.00  0.00     0.000 C
ATOM     19  C3  BGC C   2      16.050   9.076  17.5120  0.00  0.00     0.000 C
ATOM     20  C4  BGC C   2      15.793   7.873  18.3570  0.00  0.00     0.000 C
ATOM     21  C5  BGC C   2      16.025   6.589  17.5660  0.00  0.00     0.000 C
ATOM     22  O5  BGC C   2      15.248   6.571  16.4060  0.00  0.00     0.000 O
ATOM     23   O  BGC C   2      15.642  10.015  15.3090  0.00  0.00     0.000 O
ATOM     25  HD  BGC C   2      16.033  10.653  15.7440  0.00  0.00     0.000 HD
ATOM     25   O  BGC C   2      15.630  10.247  18.2020  0.00  0.00     0.000 O
ATOM     27  HD  BGC C   2      16.022  10.886  18.6370  0.00  0.00     0.000 HD
ATOM     27   C  BGC C   2      15.764   5.289  18.3550  0.00  0.00     0.000 C
ATOM     28   O  BGC C   2      14.446   5.283  18.9280  0.00  0.00     0.000 O
ATOM     30  HD  BGC C   2      14.837   5.922  19.3630  0.00  0.00     0.000 HD
BRANCH 17 30
ATOM     30  O4  BGC C   3      14.738   7.504  14.3870  0.00  0.00     0.000 O
BRANCH 30 34
ATOM     31  C1  BGC C   3      14.825   6.056  10.6140  0.00  0.00     0.000 C
ATOM     32  C2  BGC C   3      14.507   5.023  11.7220  0.00  0.00     0.000 C
ATOM     33  C3  BGC C   3      14.158   5.697  13.0030  0.00  0.00     0.000 C
ATOM     34  C4  BGC C   3      15.257   6.711  13.3300  0.00  0.00     0.000 C
ATOM     35  C5  BGC C   3      15.624   7.640  12.1450  0.00  0.00     0.000 C
ATOM     36  O5  BGC C   3      15.901   6.875  10.9990  0.00  0.00     0.000 O
ATOM     37   O  BGC C   3      13.489   4.069  11.4800  0.00  0.00     0.000 O
ATOM     39  HD  BGC C   3      13.865   4.589  12.0620  0.00  0.00     0.000 HD
ATOM     39   O  BGC C   3      14.016   4.713  14.0690  0.00  0.00     0.000 O
ATOM     41  HD  BGC C   3      14.392   5.232  14.6510  0.00  0.00     0.000 HD
ATOM     41   C  BGC C   3      16.852   8.550  12.3810  0.00  0.00     0.000 C
ATOM     42   O  BGC C   3      18.131   7.843  12.5640  0.00  0.00     0.000 O
ATOM     44  HD  BGC C   3      18.507   8.363  13.1450  0.00  0.00     0.000 HD
BRANCH 31 44
ATOM     44  O4  BGC C   4      15.148   5.423   9.4210  0.00  0.00     0.000 O
BRANCH 44 48
ATOM     45  C1  BGC C   4      14.655   5.512   5.3580  0.00  0.00     0.000 C
ATOM     46  C2  BGC C   4      15.691   6.583   5.8300  0.00  0.00     0.000 C
ATOM     47  C3  BGC C   4      15.941   6.164   7.2840  0.00  0.00     0.000 C
ATOM     48  C4  BGC C   4      14.746   5.951   8.1930  0.00  0.00     0.000 C
ATOM     49  C5  BGC C   4      13.880   4.876   7.5160  0.00  0.00     0.000 C
ATOM     50  O5  BGC C   4      13.542   5.249   6.2260  0.00  0.00     0.000 O
ATOM     51   O  BGC C   4      17.063   6.772   5.1580  0.00  0.00     0.000 O
ATOM     53  HD  BGC C   4      17.563   7.320   5.6070  0.00  0.00     0.000 HD
ATOM     53   O  BGC C   4      16.582   7.421   7.8050  0.00  0.00     0.000 O
ATOM     55  HD  BGC C   4      17.082   7.969   8.2530  0.00  0.00     0.000 HD
ATOM     55   C  BGC C   4      12.572   4.689   8.2400  0.00  0.00     0.000 C
ATOM     56   O  BGC C   4      11.776   5.870   8.3950  0.00  0.00     0.000 O
ATOM     58  HD  BGC C   4      12.275   6.418   8.8430  0.00  0.00     0.000 HD
BRANCH 45 58
ATOM     58  O4  BGC C   5      14.090   5.834   4.1220  0.00  0.00     0.000 O
BRANCH 58 62
ATOM     59  C1  BGC C   5      11.990   4.762   2.1740  0.00  0.00     0.000 C
ATOM     60  C2  BGC C   5      12.456   3.626   2.9390  0.00  0.00     0.000 C
ATOM     61  C3  BGC C   5      13.973   3.576   3.1000  0.00  0.00     0.000 C
ATOM     62  C4  BGC C   5      14.524   4.992   3.0250  0.00  0.00     0.000 C
ATOM     63  C5  BGC C   5      13.846   5.676   1.8600  0.00  0.00     0.000 C
ATOM     64  O5  BGC C   5      12.675   5.075   1.3110  0.00  0.00     0.000 O
ATOM     65   O  BGC C   5      15.302   4.747   0.1700  0.00  0.00     0.000 O
ATOM     67  HD  BGC C   5      15.139   5.410   0.7020  0.00  0.00     0.000 HD
ATOM     67   O  BGC C   5      15.302   4.747   0.1700  0.00  0.00     0.000 O
ATOM     69  HD  BGC C   5      15.139   5.410   0.7020  0.00  0.00     0.000 HD
ENDBRANCH 58 62
ENDBRANCH 45 58
ENDBRANCH 44 48
ENDBRANCH 31 44
ENDBRANCH 30 34
ENDBRANCH 17 30
ENDBRANCH 16 20
ENDBRANCH 1 16
TORSDOF 8
ENDMDL
MODEL 55
REMARK VINA RESULT:      -2.3      8.138     14.599
ROOT
ATOM      1  C1  BGC C   1      19.164   3.719   5.0020  0.00  0.00     0.000 C
ATOM      2  C2  BGC C   1      18.657   2.304   4.7210  0.00  0.00     0.000 C
ATOM      3  C3  BGC C   1      19.357   1.307   5.6370  0.00  0.00     0.000 C
ATOM      4  C4  BGC C   1      20.868   1.467   5.6120  0.00  0.00     0.000 C
ATOM      5  C5  BGC C   1      21.246   2.940   5.7450  0.00  0.00     0.000 C
ATOM      6  O5  BGC C   1      20.534   3.782   4.8950  0.00  0.00     0.000 O
ATOM      7   O  BGC C   1      17.270   2.297   4.9600  0.00  0.00     0.000 O
ATOM      9  HD  BGC C   1      17.715   1.716   4.4970  0.00  0.00     0.000 HD
ATOM      9   O  BGC C   1      18.951  -0.012   5.2510  0.00  0.00     0.000 O
ATOM     11  HD  BGC C   1      19.396  -0.593   4.7870  0.00  0.00     0.000 HD
ATOM     11   O  BGC C   1      21.380   0.707   6.7010  0.00  0.00     0.000 O
ATOM     13  HD  BGC C   1      21.825   0.126   6.2380  0.00  0.00     0.000 HD
ATOM     13   O  BGC C   1      23.029   2.818   4.0290  0.00  0.00     0.000 O
ATOM     15  HD  BGC C   1      23.474   2.237   3.5660  0.00  0.00     0.000 HD
ATOM     15   C  BGC C   1      22.747   3.080   5.4320  0.00  0.00     0.000 C
ENDROOT
BRANCH 1 16
ATOM     16  O4  BGC C   2      18.634   4.588   4.0290  0.00  0.00     0.000 O
BRANCH 16 20
ATOM     17  C1  BGC C   2      17.232   8.419   3.8490  0.00  0.00     0.000 C
ATOM     18  C2  BGC C   2      18.737   8.255   3.7080  0.00  0.00     0.000 C
ATOM     19  C3  BGC C   2      19.098   6.804   3.4260  0.00  0.00     0.000 C
ATOM     20  C4  BGC C   2      18.454   5.922   4.4420  0.00  0.00     0.000 C
ATOM     21  C5  BGC C   2      16.962   6.219   4.5600  0.00  0.00     0.000 C
ATOM     22  O5  BGC C   2      16.744   7.568   4.8460  0.00  0.00     0.000 O
ATOM     23   O  BGC C   2      19.198   9.103   2.6450  0.00  0.00     0.000 O
ATOM     25  HD  BGC C   2      19.798   8.691   2.1760  0.00  0.00     0.000 HD
ATOM     25   O  BGC C   2      20.511   6.653   3.4830  0.00  0.00     0.000 O
ATOM     27  HD  BGC C   2      21.112   6.242   3.0140  0.00  0.00     0.000 HD
ATOM     27   C  BGC C   2      16.214   5.366   5.6050  0.00  0.00     0.000 C
ATOM     28   O  BGC C   2      16.838   5.459   6.8960  0.00  0.00     0.000 O
ATOM     30  HD  BGC C   2      17.438   5.048   6.4270  0.00  0.00     0.000 HD
BRANCH 17 30
ATOM     30  O4  BGC C   3      16.941   9.751   4.2140  0.00  0.00     0.000 O
BRANCH 30 34
ATOM     31  C1  BGC C   3      14.077  12.574   3.7980  0.00  0.00     0.000 C
ATOM     32  C2  BGC C   3      13.828  11.522   4.9060  0.00  0.00     0.000 C
ATOM     33  C3  BGC C   3      15.068  10.756   5.2110  0.00  0.00     0.000 C
ATOM     34  C4  BGC C   3      15.639  10.219   3.8970  0.00  0.00     0.000 C
ATOM     35  C5  BGC C   3      15.751  11.288   2.7800  0.00  0.00     0.000 C
ATOM     36  O5  BGC C   3      14.522  11.950   2.6180  0.00  0.00     0.000 O
ATOM     37   O  BGC C   3      13.313  11.965   6.1480  0.00  0.00     0.000 O
ATOM     39  HD  BGC C   3      13.855  11.422   5.7450  0.00  0.00     0.000 HD
ATOM     39   O  BGC C   3      14.774   9.672   6.1400  0.00  0.00     0.000 O
ATOM     41  HD  BGC C   3      15.316   9.129   5.7370  0.00  0.00     0.000 HD
ATOM     41   C  BGC C   3      16.150  10.744   1.3890  0.00  0.00     0.000 C
ATOM     42   O  BGC C   3      15.179   9.825   0.7720  0.00  0.00     0.000 O
ATOM     44  HD  BGC C   3      15.721   9.282   0.3700  0.00  0.00     0.000 HD
BRANCH 31 44
ATOM     44  O4  BGC C   4      12.919  13.287   3.5180  0.00  0.00     0.000 O
BRANCH 44 48
ATOM     45  C1  BGC C   4      11.405  16.988   2.6410  0.00  0.00     0.000 C
ATOM     46  C2  BGC C   4      12.185  16.390   1.4270  0.00  0.00     0.000 C
ATOM     47  C3  BGC C   4      12.378  14.931   1.8600  0.00  0.00     0.000 C
ATOM     48  C4  BGC C   4      12.966  14.653   3.2290  0.00  0.00     0.000 C
ATOM     49  C5  BGC C   4      12.039  15.345   4.2410  0.00  0.00     0.000 C
ATOM     50  O5  BGC C   4      11.907  16.693   3.9540  0.00  0.00     0.000 O
ATOM     51   O  BGC C   4      11.624  16.379  -0.0060  0.00  0.00     0.000 O
ATOM     53  HD  BGC C   4      12.122  15.912  -0.5390  0.00  0.00     0.000 HD
ATOM     53   O  BGC C   4      13.462  14.520   0.9010  0.00  0.00     0.000 O
ATOM     55  HD  BGC C   4      13.960  14.053   0.3690  0.00  0.00     0.000 HD
ATOM     55   C  BGC C   4      12.605  15.282   5.6360  0.00  0.00     0.000 C
ATOM     56   O  BGC C   4      13.922  15.823   5.7950  0.00  0.00     0.000 O
ATOM     58  HD  BGC C   4      14.420  15.355   5.2630  0.00  0.00     0.000 HD
BRANCH 45 58
ATOM     58  O4  BGC C   5      11.324  18.381   2.5810  0.00  0.00     0.000 O
BRANCH 58 62
ATOM     59  C1  BGC C   5      10.094  20.598   4.2910  0.00  0.00     0.000 C
ATOM     60  C2  BGC C   5       9.313  19.406   4.5440  0.00  0.00     0.000 C
ATOM     61  C3  BGC C   5       8.956  18.629   3.2800  0.00  0.00     0.000 C
ATOM     62  C4  BGC C   5      10.017  18.894   2.2220  0.00  0.00     0.000 C
ATOM     63  C5  BGC C   5      10.288  20.380   2.2190  0.00  0.00     0.000 C
ATOM     64  O5  BGC C   5       9.827  21.153   3.3260  0.00  0.00     0.000 O
ATOM     65   O  BGC C   5       8.396  20.955   0.8310  0.00  0.00     0.000 O
ATOM     67  HD  BGC C   5       9.240  20.764   0.8640  0.00  0.00     0.000 HD
ATOM     67   O  BGC C   5       8.396  20.955   0.8310  0.00  0.00     0.000 O
ATOM     69  HD  BGC C   5       9.240  20.764   0.8640  0.00  0.00     0.000 HD
ENDBRANCH 58 62
ENDBRANCH 45 58
ENDBRANCH 44 48
ENDBRANCH 31 44
ENDBRANCH 30 34
ENDBRANCH 17 30
ENDBRANCH 16 20
ENDBRANCH 1 16
TORSDOF 8
ENDMDL
MODEL 56
REMARK VINA RESULT:      -2.2      7.283     10.377
ROOT
ATOM      1  C1  BGC C   1      16.025   9.779   2.3000  0.00  0.00     0.000 C
ATOM      2  C2  BGC C   1      14.635  10.016   2.8900  0.00  0.00     0.000 C
ATOM      3  C3  BGC C   1      13.711  10.605   1.8310  0.00  0.00     0.000 C
ATOM      4  C4  BGC C   1      14.328  11.806   1.1330  0.00  0.00     0.000 C
ATOM      5  C5  BGC C   1      15.768  11.500   0.7290  0.00  0.00     0.000 C
ATOM      6  O5  BGC C   1      16.529  10.934   1.7480  0.00  0.00     0.000 O
ATOM      7   O  BGC C   1      14.145   8.772   3.3300  0.00  0.00     0.000 O
ATOM      9  HD  BGC C   1      13.859   9.552   3.5730  0.00  0.00     0.000 HD
ATOM      9   O  BGC C   1      12.465  10.931   2.4590  0.00  0.00     0.000 O
ATOM     11  HD  BGC C   1      12.178  11.712   2.7020  0.00  0.00     0.000 HD
ATOM     11   O  BGC C   1      13.523  12.077  -0.0090  0.00  0.00     0.000 O
ATOM     13  HD  BGC C   1      13.236  12.857   0.2340  0.00  0.00     0.000 HD
ATOM     13   O  BGC C   1      16.617  13.724   1.4140  0.00  0.00     0.000 O
ATOM     15  HD  BGC C   1      16.330  14.504   1.6570  0.00  0.00     0.000 HD
ATOM     15   C  BGC C   1      16.433  12.817   0.2910  0.00  0.00     0.000 C
ENDROOT
BRANCH 1 16
ATOM     16  O4  BGC C   2      16.898   9.404   3.3390  0.00  0.00     0.000 O
BRANCH 16 20
ATOM     17  C1  BGC C   2      20.062   6.890   3.9220  0.00  0.00     0.000 C
ATOM     18  C2  BGC C   2      20.328   8.100   3.0400  0.00  0.00     0.000 C
ATOM     19  C3  BGC C   2      19.219   9.132   3.1910  0.00  0.00     0.000 C
ATOM     20  C4  BGC C   2      17.895   8.475   2.9880  0.00  0.00     0.000 C
ATOM     21  C5  BGC C   2      17.760   7.231   3.8600  0.00  0.00     0.000 C
ATOM     22  O5  BGC C   2      18.810   6.341   3.6250  0.00  0.00     0.000 O
ATOM     23   O  BGC C   2      21.595   8.668   3.4040  0.00  0.00     0.000 O
ATOM     25  HD  BGC C   2      21.545   9.533   3.3980  0.00  0.00     0.000 HD
ATOM     25   O  BGC C   2      19.402  10.158   2.2230  0.00  0.00     0.000 O
ATOM     27  HD  BGC C   2      19.352  11.023   2.2180  0.00  0.00     0.000 HD
ATOM     27   C  BGC C   2      16.426   6.473   3.7030  0.00  0.00     0.000 C
ATOM     28   O  BGC C   2      16.177   6.139   2.3280  0.00  0.00     0.000 O
ATOM     30  HD  BGC C   2      16.127   7.003   2.3230  0.00  0.00     0.000 HD
BRANCH 17 30
ATOM     30  O4  BGC C   3      21.050   5.911   3.6790  0.00  0.00     0.000 O
BRANCH 30 34
ATOM     31  C1  BGC C   3      23.466   3.309   5.6110  0.00  0.00     0.000 C
ATOM     32  C2  BGC C   3      21.975   2.903   5.5250  0.00  0.00     0.000 C
ATOM     33  C3  BGC C   3      21.250   3.727   4.5180  0.00  0.00     0.000 C
ATOM     34  C4  BGC C   3      21.524   5.204   4.8150  0.00  0.00     0.000 C
ATOM     35  C5  BGC C   3      23.025   5.533   5.0170  0.00  0.00     0.000 C
ATOM     36  O5  BGC C   3      23.588   4.664   5.9680  0.00  0.00     0.000 O
ATOM     37   O  BGC C   3      21.662   1.553   5.2400  0.00  0.00     0.000 O
ATOM     39  HD  BGC C   3      21.451   2.383   5.1130  0.00  0.00     0.000 HD
ATOM     39   O  BGC C   3      19.822   3.437   4.5650  0.00  0.00     0.000 O
ATOM     41  HD  BGC C   3      19.611   4.268   4.4380  0.00  0.00     0.000 HD
ATOM     41   C  BGC C   3      23.323   6.972   5.4970  0.00  0.00     0.000 C
ATOM     42   O  BGC C   3      22.801   7.308   6.8320  0.00  0.00     0.000 O
ATOM     44  HD  BGC C   3      22.590   8.138   6.7050  0.00  0.00     0.000 HD
BRANCH 31 44
ATOM     44  O4  BGC C   4      24.138   2.538   6.5500  0.00  0.00     0.000 O
BRANCH 44 48
ATOM     45  C1  BGC C   4      27.796   1.038   7.6130  0.00  0.00     0.000 C
ATOM     46  C2  BGC C   4      27.624   2.514   8.0960  0.00  0.00     0.000 C
ATOM     47  C3  BGC C   4      26.124   2.747   7.8760  0.00  0.00     0.000 C
ATOM     48  C4  BGC C   4      25.530   2.418   6.5210  0.00  0.00     0.000 C
ATOM     49  C5  BGC C   4      25.836   0.933   6.2690  0.00  0.00     0.000 C
ATOM     50  O5  BGC C   4      27.195   0.683   6.3590  0.00  0.00     0.000 O
ATOM     51   O  BGC C   4      27.961   2.972   9.5260  0.00  0.00     0.000 O
ATOM     53  HD  BGC C   4      27.702   3.786   9.6680  0.00  0.00     0.000 HD
ATOM     53   O  BGC C   4      26.087   4.250   7.9420  0.00  0.00     0.000 O
ATOM     55  HD  BGC C   4      25.828   5.064   8.0830  0.00  0.00     0.000 HD
ATOM     55   C  BGC C   4      25.440   0.519   4.8750  0.00  0.00     0.000 C
ATOM     56   O  BGC C   4      26.025   1.282   3.8130  0.00  0.00     0.000 O
ATOM     58  HD  BGC C   4      25.766   2.096   3.9550  0.00  0.00     0.000 HD
BRANCH 45 58
ATOM     58  O4  BGC C   5      29.140   0.676   7.4940  0.00  0.00     0.000 O
BRANCH 58 62
ATOM     59  C1  BGC C   5      32.025  -0.012   6.7490  0.00  0.00     0.000 C
ATOM     60  C2  BGC C   5      32.091   0.761   7.9700  0.00  0.00     0.000 C
ATOM     61  C3  BGC C   5      31.189   1.992   7.9650  0.00  0.00     0.000 C
ATOM     62  C4  BGC C   5      30.012   1.738   7.0350  0.00  0.00     0.000 C
ATOM     63  C5  BGC C   5      30.565   1.123   5.7700  0.00  0.00     0.000 C
ATOM     64  O5  BGC C   5      31.894   0.606   5.7940  0.00  0.00     0.000 O
ATOM     65   O  BGC C   5      31.231   3.218   4.7690  0.00  0.00     0.000 O
ATOM     67  HD  BGC C   5      30.618   2.611   4.8400  0.00  0.00     0.000 HD
ATOM     67   O  BGC C   5      31.231   3.218   4.7690  0.00  0.00     0.000 O
ATOM     69  HD  BGC C   5      30.618   2.611   4.8400  0.00  0.00     0.000 HD
ENDBRANCH 58 62
ENDBRANCH 45 58
ENDBRANCH 44 48
ENDBRANCH 31 44
ENDBRANCH 30 34
ENDBRANCH 17 30
ENDBRANCH 16 20
ENDBRANCH 1 16
TORSDOF 8
ENDMDL
MODEL 57
REMARK VINA RESULT:      -2.2     10.615     15.020
ROOT
ATOM      1  C1  BGC C   1      15.832   6.350  21.7120  0.00  0.00     0.000 C
ATOM      2  C2  BGC C   1      17.183   6.422  22.4240  0.00  0.00     0.000 C
ATOM      3  C3  BGC C   1      16.991   6.260  23.9270  0.00  0.00     0.000 C
ATOM      4  C4  BGC C   1      15.924   7.193  24.4740  0.00  0.00     0.000 C
ATOM      5  C5  BGC C   1      14.680   7.149  23.5910  0.00  0.00     0.000 C
ATOM      6  O5  BGC C   1      14.952   7.272  22.2310  0.00  0.00     0.000 O
ATOM      7   O  BGC C   1      17.983   5.381  21.9170  0.00  0.00     0.000 O
ATOM      9  HD  BGC C   1      18.262   6.084  22.3390  0.00  0.00     0.000 HD
ATOM      9   O  BGC C   1      18.260   6.464  24.5620  0.00  0.00     0.000 O
ATOM     11  HD  BGC C   1      18.538   7.168  24.9840  0.00  0.00     0.000 HD
ATOM     11   O  BGC C   1      15.629   6.752  25.7950  0.00  0.00     0.000 O
ATOM     13  HD  BGC C   1      15.907   7.455  26.2170  0.00  0.00     0.000 HD
ATOM     13   O  BGC C   1      14.320   9.599  23.6750  0.00  0.00     0.000 O
ATOM     15  HD  BGC C   1      14.598  10.302  24.0970  0.00  0.00     0.000 HD
ATOM     15   C  BGC C   1      13.752   8.303  24.0120  0.00  0.00     0.000 C
ENDROOT
BRANCH 1 16
ATOM     16  O4  BGC C   2      16.020   6.678  20.3560  0.00  0.00     0.000 O
BRANCH 16 20
ATOM     17  C1  BGC C   2      14.325   5.760  16.7560  0.00  0.00     0.000 C
ATOM     18  C2  BGC C   2      13.629   6.847  17.5600  0.00  0.00     0.000 C
ATOM     19  C3  BGC C   2      14.531   7.352  18.6780  0.00  0.00     0.000 C
ATOM     20  C4  BGC C   2      15.034   6.195  19.4740  0.00  0.00     0.000 C
ATOM     21  C5  BGC C   2      15.643   5.129  18.5670  0.00  0.00     0.000 C
ATOM     22  O5  BGC C   2      14.727   4.718  17.5970  0.00  0.00     0.000 O
ATOM     23   O  BGC C   2      13.276   7.922  16.6770  0.00  0.00     0.000 O
ATOM     25  HD  BGC C   2      13.421   8.684  17.0630  0.00  0.00     0.000 HD
ATOM     25   O  BGC C   2      13.788   8.227  19.5180  0.00  0.00     0.000 O
ATOM     27  HD  BGC C   2      13.933   8.989  19.9040  0.00  0.00     0.000 HD
ATOM     27   C  BGC C   2      16.175   3.882  19.3030  0.00  0.00     0.000 C
ATOM     28   O  BGC C   2      15.161   3.298  20.1380  0.00  0.00     0.000 O
ATOM     30  HD  BGC C   2      15.306   4.059  20.5240  0.00  0.00     0.000 HD
BRANCH 17 30
ATOM     30  O4  BGC C   3      13.426   5.243  15.7980  0.00  0.00     0.000 O
BRANCH 30 34
ATOM     31  C1  BGC C   3      13.341   3.898  11.9870  0.00  0.00     0.000 C
ATOM     32  C2  BGC C   3      13.745   2.856  13.0570  0.00  0.00     0.000 C
ATOM     33  C3  BGC C   3      13.415   3.336  14.4280  0.00  0.00     0.000 C
ATOM     34  C4  BGC C   3      14.005   4.737  14.6040  0.00  0.00     0.000 C
ATOM     35  C5  BGC C   3      13.672   5.706  13.4400  0.00  0.00     0.000 C
ATOM     36  O5  BGC C   3      14.007   5.116  12.2090  0.00  0.00     0.000 O
ATOM     37   O  BGC C   3      13.220   1.546  12.9530  0.00  0.00     0.000 O
ATOM     39  HD  BGC C   3      13.444   2.191  13.4850  0.00  0.00     0.000 HD
ATOM     39   O  BGC C   3      13.944   2.414  15.4260  0.00  0.00     0.000 O
ATOM     41  HD  BGC C   3      14.169   3.059  15.9580  0.00  0.00     0.000 HD
ATOM     41   C  BGC C   3      14.399   7.069  13.4940  0.00  0.00     0.000 C
ATOM     42   O  BGC C   3      15.865   7.004  13.3670  0.00  0.00     0.000 O
ATOM     44  HD  BGC C   3      16.090   7.649  13.8990  0.00  0.00     0.000 HD
BRANCH 31 44
ATOM     44  O4  BGC C   4      13.649   3.446  10.7100  0.00  0.00     0.000 O
BRANCH 44 48
ATOM     45  C1  BGC C   4      12.382   3.312   6.8200  0.00  0.00     0.000 C
ATOM     46  C2  BGC C   4      12.920   4.730   7.1950  0.00  0.00     0.000 C
ATOM     47  C3  BGC C   4      13.606   4.464   8.5410  0.00  0.00     0.000 C
ATOM     48  C4  BGC C   4      12.825   3.743   9.6220  0.00  0.00     0.000 C
ATOM     49  C5  BGC C   4      12.399   2.396   9.0160  0.00  0.00     0.000 C
ATOM     50  O5  BGC C   4      11.687   2.582   7.8430  0.00  0.00     0.000 O
ATOM     51   O  BGC C   4      13.914   5.508   6.3130  0.00  0.00     0.000 O
ATOM     53  HD  BGC C   4      14.203   6.220   6.7130  0.00  0.00     0.000 HD
ATOM     53   O  BGC C   4      13.727   5.874   9.0500  0.00  0.00     0.000 O
ATOM     55  HD  BGC C   4      14.016   6.586   9.4500  0.00  0.00     0.000 HD
ATOM     55   C  BGC C   4      11.471   1.649   9.9380  0.00  0.00     0.000 C
ATOM     56   O  BGC C   4      10.289   2.354  10.3330  0.00  0.00     0.000 O
ATOM     58  HD  BGC C   4      10.578   3.066  10.7330  0.00  0.00     0.000 HD
BRANCH 45 58
ATOM     58  O4  BGC C   5      11.504   3.351   5.7340  0.00  0.00     0.000 O
BRANCH 58 62
ATOM     59  C1  BGC C   5      13.075   3.808   3.1500  0.00  0.00     0.000 C
ATOM     60  C2  BGC C   5      11.688   3.664   2.7650  0.00  0.00     0.000 C
ATOM     61  C3  BGC C   5      10.976   2.507   3.4620  0.00  0.00     0.000 C
ATOM     62  C4  BGC C   5      11.648   2.250   4.8030  0.00  0.00     0.000 C
ATOM     63  C5  BGC C   5      13.141   2.271   4.5690  0.00  0.00     0.000 C
ATOM     64  O5  BGC C   5      13.626   2.823   3.3460  0.00  0.00     0.000 O
ATOM     65   O  BGC C   5      13.280  -0.007   3.7750  0.00  0.00     0.000 O
ATOM     67  HD  BGC C   5      13.341   0.531   4.4520  0.00  0.00     0.000 HD
ATOM     67   O  BGC C   5      13.280  -0.007   3.7750  0.00  0.00     0.000 O
ATOM     69  HD  BGC C   5      13.341   0.531   4.4520  0.00  0.00     0.000 HD
ENDBRANCH 58 62
ENDBRANCH 45 58
ENDBRANCH 44 48
ENDBRANCH 31 44
ENDBRANCH 30 34
ENDBRANCH 17 30
ENDBRANCH 16 20
ENDBRANCH 1 16
TORSDOF 8
ENDMDL
MODEL 58
REMARK VINA RESULT:      -2.2      6.462      9.849
ROOT
ATOM      1  C1  BGC C   1      15.056   9.174   2.4970  0.00  0.00     0.000 C
ATOM      2  C2  BGC C   1      13.711   9.076   3.2150  0.00  0.00     0.000 C
ATOM      3  C3  BGC C   1      12.574   9.326   2.2310  0.00  0.00     0.000 C
ATOM      4  C4  BGC C   1      12.782  10.596   1.4230  0.00  0.00     0.000 C
ATOM      5  C5  BGC C   1      14.210  10.654   0.8880  0.00  0.00     0.000 C
ATOM      6  O5  BGC C   1      15.181  10.381   1.8470  0.00  0.00     0.000 O
ATOM      7   O  BGC C   1      13.614   7.780   3.7550  0.00  0.00     0.000 O
ATOM      9  HD  BGC C   1      13.150   8.471   3.9920  0.00  0.00     0.000 HD
ATOM      9   O  BGC C   1      11.345   9.354   2.9680  0.00  0.00     0.000 O
ATOM     11  HD  BGC C   1      10.881  10.046   3.2060  0.00  0.00     0.000 HD
ATOM     11   O  BGC C   1      11.837  10.566   0.3580  0.00  0.00     0.000 O
ATOM     13  HD  BGC C   1      11.374  11.258   0.5960  0.00  0.00     0.000 HD
ATOM     13   O  BGC C   1      14.485  13.065   1.3860  0.00  0.00     0.000 O
ATOM     15  HD  BGC C   1      14.022  13.756   1.6240  0.00  0.00     0.000 HD
ATOM     15   C  BGC C   1      14.456  12.067   0.3280  0.00  0.00     0.000 C
ENDROOT
BRANCH 1 16
ATOM     16  O4  BGC C   2      16.084   9.115   3.4570  0.00  0.00     0.000 O
BRANCH 16 20
ATOM     17  C1  BGC C   2      19.909   7.714   3.7520  0.00  0.00     0.000 C
ATOM     18  C2  BGC C   2      19.730   8.994   2.9510  0.00  0.00     0.000 C
ATOM     19  C3  BGC C   2      18.361   9.607   3.2120  0.00  0.00     0.000 C
ATOM     20  C4  BGC C   2      17.304   8.575   3.0070  0.00  0.00     0.000 C
ATOM     21  C5  BGC C   2      17.617   7.305   3.7920  0.00  0.00     0.000 C
ATOM     22  O5  BGC C   2      18.880   6.812   3.4590  0.00  0.00     0.000 O
ATOM     23   O  BGC C   2      20.770   9.915   3.3110  0.00  0.00     0.000 O
ATOM     25  HD  BGC C   2      20.449  10.718   3.3700  0.00  0.00     0.000 HD
ATOM     25   O  BGC C   2      18.156  10.692   2.3140  0.00  0.00     0.000 O
ATOM     27  HD  BGC C   2      17.835  11.494   2.3730  0.00  0.00     0.000 HD
ATOM     27   C  BGC C   2      16.585   6.171   3.6250  0.00  0.00     0.000 C
ATOM     28   O  BGC C   2      16.380   5.853   2.2390  0.00  0.00     0.000 O
ATOM     30  HD  BGC C   2      16.059   6.656   2.2980  0.00  0.00     0.000 HD
BRANCH 17 30
ATOM     30  O4  BGC C   3      21.141   7.118   3.4070  0.00  0.00     0.000 O
BRANCH 30 34
ATOM     31  C1  BGC C   3      23.441   4.447   5.3860  0.00  0.00     0.000 C
ATOM     32  C2  BGC C   3      23.104   4.086   3.9200  0.00  0.00     0.000 C
ATOM     33  C3  BGC C   3      22.564   5.263   3.1850  0.00  0.00     0.000 C
ATOM     34  C4  BGC C   3      21.419   5.861   4.0060  0.00  0.00     0.000 C
ATOM     35  C5  BGC C   3      21.771   6.087   5.4990  0.00  0.00     0.000 C
ATOM     36  O5  BGC C   3      22.294   4.908   6.0570  0.00  0.00     0.000 O
ATOM     37   O  BGC C   3      24.128   3.542   3.1090  0.00  0.00     0.000 O
ATOM     39  HD  BGC C   3      23.442   4.068   3.1450  0.00  0.00     0.000 HD
ATOM     39   O  BGC C   3      22.108   4.864   1.8590  0.00  0.00     0.000 O
ATOM     41  HD  BGC C   3      21.422   5.391   1.8950  0.00  0.00     0.000 HD
ATOM     41   C  BGC C   3      20.587   6.517   6.3950  0.00  0.00     0.000 C
ATOM     42   O  BGC C   3      19.509   5.522   6.5290  0.00  0.00     0.000 O
ATOM     44  HD  BGC C   3      18.823   6.049   6.5650  0.00  0.00     0.000 HD
BRANCH 31 44
ATOM     44  O4  BGC C   4      23.946   3.347   6.0670  0.00  0.00     0.000 O
BRANCH 44 48
ATOM     45  C1  BGC C   4      26.730   2.094   8.7940  0.00  0.00     0.000 C
ATOM     46  C2  BGC C   4      25.662   3.022   9.4570  0.00  0.00     0.000 C
ATOM     47  C3  BGC C   4      24.589   3.104   8.3630  0.00  0.00     0.000 C
ATOM     48  C4  BGC C   4      25.015   3.478   6.9570  0.00  0.00     0.000 C
ATOM     49  C5  BGC C   4      26.064   2.437   6.5360  0.00  0.00     0.000 C
ATOM     50  O5  BGC C   4      27.111   2.391   7.4420  0.00  0.00     0.000 O
ATOM     51   O  BGC C   4      24.954   2.674  10.7780  0.00  0.00     0.000 O
ATOM     53  HD  BGC C   4      24.311   3.229  10.9490  0.00  0.00     0.000 HD
ATOM     53   O  BGC C   4      23.820   4.301   8.8490  0.00  0.00     0.000 O
ATOM     55  HD  BGC C   4      23.177   4.856   9.0200  0.00  0.00     0.000 HD
ATOM     55   C  BGC C   4      26.691   2.794   5.2130  0.00  0.00     0.000 C
ATOM     56   O  BGC C   4      27.295   4.090   5.1430  0.00  0.00     0.000 O
ATOM     58  HD  BGC C   4      26.653   4.645   5.3140  0.00  0.00     0.000 HD
BRANCH 45 58
ATOM     58  O4  BGC C   5      27.926   2.066   9.5160  0.00  0.00     0.000 O
BRANCH 58 62
ATOM     59  C1  BGC C   5      30.697   2.312  10.7860  0.00  0.00     0.000 C
ATOM     60  C2  BGC C   5      29.742   2.402  11.8690  0.00  0.00     0.000 C
ATOM     61  C3  BGC C   5      28.556   3.315  11.5660  0.00  0.00     0.000 C
ATOM     62  C4  BGC C   5      28.330   3.347  10.0610  0.00  0.00     0.000 C
ATOM     63  C5  BGC C   5      29.682   3.517   9.4080  0.00  0.00     0.000 C
ATOM     64  O5  BGC C   5      30.848   3.282  10.1950  0.00  0.00     0.000 O
ATOM     65   O  BGC C   5      29.778   5.913   9.7010  0.00  0.00     0.000 O
ATOM     67  HD  BGC C   5      29.568   5.254   9.1800  0.00  0.00     0.000 HD
ATOM     67   O  BGC C   5      29.778   5.913   9.7010  0.00  0.00     0.000 O
ATOM     69  HD  BGC C   5      29.568   5.254   9.1800  0.00  0.00     0.000 HD
ENDBRANCH 58 62
ENDBRANCH 45 58
ENDBRANCH 44 48
ENDBRANCH 31 44
ENDBRANCH 30 34
ENDBRANCH 17 30
ENDBRANCH 16 20
ENDBRANCH 1 16
TORSDOF 8
ENDMDL
MODEL 59
REMARK VINA RESULT:      -2.2      9.709     13.473
ROOT
ATOM      1  C1  BGC C   1       7.696  14.288  16.7060  0.00  0.00     0.000 C
ATOM      2  C2  BGC C   1       6.921  13.919  17.9710  0.00  0.00     0.000 C
ATOM      3  C3  BGC C   1       6.487  15.183  18.7040  0.00  0.00     0.000 C
ATOM      4  C4  BGC C   1       7.640  16.150  18.9140  0.00  0.00     0.000 C
ATOM      5  C5  BGC C   1       8.432  16.317  17.6200  0.00  0.00     0.000 C
ATOM      6  O5  BGC C   1       8.757  15.113  17.0010  0.00  0.00     0.000 O
ATOM      7   O  BGC C   1       5.794  13.173  17.5740  0.00  0.00     0.000 O
ATOM      9  HD  BGC C   1       6.140  13.200  18.3680  0.00  0.00     0.000 HD
ATOM      9   O  BGC C   1       5.882  14.792  19.9440  0.00  0.00     0.000 O
ATOM     11  HD  BGC C   1       6.227  14.819  20.7380  0.00  0.00     0.000 HD
ATOM     11   O  BGC C   1       7.070  17.387  19.3280  0.00  0.00     0.000 O
ATOM     13  HD  BGC C   1       7.415  17.414  20.1220  0.00  0.00     0.000 HD
ATOM     13   O  BGC C   1      10.634  16.254  18.7550  0.00  0.00     0.000 O
ATOM     15  HD  BGC C   1      10.979  16.281  19.5490  0.00  0.00     0.000 HD
ATOM     15   C  BGC C   1       9.736  17.067  17.9490  0.00  0.00     0.000 C
ENDROOT
BRANCH 1 16
ATOM     16  O4  BGC C   2       8.231  13.111  16.1480  0.00  0.00     0.000 O
BRANCH 16 20
ATOM     17  C1  BGC C   2       8.930  11.518  12.4540  0.00  0.00     0.000 C
ATOM     18  C2  BGC C   2       9.705  12.782  12.7900  0.00  0.00     0.000 C
ATOM     19  C3  BGC C   2       9.648  13.069  14.2830  0.00  0.00     0.000 C
ATOM     20  C4  BGC C   2       8.229  13.053  14.7410  0.00  0.00     0.000 C
ATOM     21  C5  BGC C   2       7.521  11.779  14.2880  0.00  0.00     0.000 C
ATOM     22  O5  BGC C   2       7.610  11.625  12.9040  0.00  0.00     0.000 O
ATOM     23   O  BGC C   2      11.066  12.619  12.3620  0.00  0.00     0.000 O
ATOM     25  HD  BGC C   2      11.605  12.952  12.9520  0.00  0.00     0.000 HD
ATOM     25   O  BGC C   2      10.221  14.347  14.5360  0.00  0.00     0.000 O
ATOM     27  HD  BGC C   2      10.760  14.680  15.1260  0.00  0.00     0.000 HD
ATOM     27   C  BGC C   2       6.038  11.682  14.7010  0.00  0.00     0.000 C
ATOM     28   O  BGC C   2       5.300  12.836  14.2660  0.00  0.00     0.000 O
ATOM     30  HD  BGC C   2       5.839  13.169  14.8560  0.00  0.00     0.000 HD
BRANCH 17 30
ATOM     30  O4  BGC C   3       8.915  11.339  11.0540  0.00  0.00     0.000 O
BRANCH 30 34
ATOM     31  C1  BGC C   3       9.327   8.449   8.2580  0.00  0.00     0.000 C
ATOM     32  C2  BGC C   3       7.912   8.597   8.8670  0.00  0.00     0.000 C
ATOM     33  C3  BGC C   3       7.776   9.881   9.6070  0.00  0.00     0.000 C
ATOM     34  C4  BGC C   3       8.942   9.997  10.5920  0.00  0.00     0.000 C
ATOM     35  C5  BGC C   3      10.328   9.716   9.9560  0.00  0.00     0.000 C
ATOM     36  O5  BGC C   3      10.305   8.491   9.2670  0.00  0.00     0.000 O
ATOM     37   O  BGC C   3       6.796   8.512   8.0010  0.00  0.00     0.000 O
ATOM     39  HD  BGC C   3       7.142   8.901   8.6930  0.00  0.00     0.000 HD
ATOM     39   O  BGC C   3       6.495   9.929  10.3020  0.00  0.00     0.000 O
ATOM     41  HD  BGC C   3       6.841  10.318  10.9940  0.00  0.00     0.000 HD
ATOM     41   C  BGC C   3      11.505   9.644  10.9550  0.00  0.00     0.000 C
ATOM     42   O  BGC C   3      11.437   8.540  11.9270  0.00  0.00     0.000 O
ATOM     44  HD  BGC C   3      11.783   8.928  12.6190  0.00  0.00     0.000 HD
BRANCH 31 44
ATOM     44  O4  BGC C   4       9.449   7.251   7.5660  0.00  0.00     0.000 O
BRANCH 44 48
ATOM     45  C1  BGC C   4      11.080   5.489   4.2510  0.00  0.00     0.000 C
ATOM     46  C2  BGC C   4      12.158   6.273   5.0670  0.00  0.00     0.000 C
ATOM     47  C3  BGC C   4      11.414   6.566   6.3760  0.00  0.00     0.000 C
ATOM     48  C4  BGC C   4      10.041   7.205   6.3020  0.00  0.00     0.000 C
ATOM     49  C5  BGC C   4       9.176   6.264   5.4480  0.00  0.00     0.000 C
ATOM     50  O5  BGC C   4       9.756   6.041   4.2100  0.00  0.00     0.000 O
ATOM     51   O  BGC C   4      13.528   5.676   5.4350  0.00  0.00     0.000 O
ATOM     53  HD  BGC C   4      13.960   6.188   5.9840  0.00  0.00     0.000 HD
ATOM     53   O  BGC C   4      12.296   7.649   6.9350  0.00  0.00     0.000 O
ATOM     55  HD  BGC C   4      12.728   8.161   7.4840  0.00  0.00     0.000 HD
ATOM     55   C  BGC C   4       7.826   6.869   5.1600  0.00  0.00     0.000 C
ATOM     56   O  BGC C   4       7.846   8.154   4.5260  0.00  0.00     0.000 O
ATOM     58  HD  BGC C   4       8.278   8.666   5.0750  0.00  0.00     0.000 HD
BRANCH 45 58
ATOM     58  O4  BGC C   5      11.451   5.320   2.9150  0.00  0.00     0.000 O
BRANCH 58 62
ATOM     59  C1  BGC C   5      13.817   3.387   2.7900  0.00  0.00     0.000 C
ATOM     60  C2  BGC C   5      13.502   3.735   1.4220  0.00  0.00     0.000 C
ATOM     61  C3  BGC C   5      12.007   3.708   1.1120  0.00  0.00     0.000 C
ATOM     62  C4  BGC C   5      11.233   3.986   2.3930  0.00  0.00     0.000 C
ATOM     63  C5  BGC C   5      11.858   3.149   3.4850  0.00  0.00     0.000 C
ATOM     64  O5  BGC C   5      13.145   2.582   3.2500  0.00  0.00     0.000 O
ATOM     65   O  BGC C   5      10.685   1.115   2.9160  0.00  0.00     0.000 O
ATOM     67  HD  BGC C   5      10.702   1.831   3.4030  0.00  0.00     0.000 HD
ATOM     67   O  BGC C   5      10.685   1.115   2.9160  0.00  0.00     0.000 O
ATOM     69  HD  BGC C   5      10.702   1.831   3.4030  0.00  0.00     0.000 HD
ENDBRANCH 58 62
ENDBRANCH 45 58
ENDBRANCH 44 48
ENDBRANCH 31 44
ENDBRANCH 30 34
ENDBRANCH 17 30
ENDBRANCH 16 20
ENDBRANCH 1 16
TORSDOF 8
ENDMDL
MODEL 60
REMARK VINA RESULT:      -2.2     10.349     14.663
ROOT
ATOM      1  C1  BGC C   1      13.742  20.026  11.5270  0.00  0.00     0.000 C
ATOM      2  C2  BGC C   1      14.787  21.109  11.7930  0.00  0.00     0.000 C
ATOM      3  C3  BGC C   1      14.455  21.849  13.0840  0.00  0.00     0.000 C
ATOM      4  C4  BGC C   1      13.012  22.324  13.1190  0.00  0.00     0.000 C
ATOM      5  C5  BGC C   1      12.076  21.200  12.6840  0.00  0.00     0.000 C
ATOM      6  O5  BGC C   1      12.473  20.558  11.5140  0.00  0.00     0.000 O
ATOM      7   O  BGC C   1      16.038  20.472  11.9030  0.00  0.00     0.000 O
ATOM      9  HD  BGC C   1      15.901  21.312  11.7470  0.00  0.00     0.000 HD
ATOM      9   O  BGC C   1      15.381  22.935  13.2240  0.00  0.00     0.000 O
ATOM     11  HD  BGC C   1      15.245  23.776  13.0680  0.00  0.00     0.000 HD
ATOM     11   O  BGC C   1      12.743  22.725  14.4580  0.00  0.00     0.000 O
ATOM     13  HD  BGC C   1      12.607  23.566  14.3020  0.00  0.00     0.000 HD
ATOM     13   O  BGC C   1      10.648  22.686  11.3080  0.00  0.00     0.000 O
ATOM     15  HD  BGC C   1      10.512  23.527  11.1520  0.00  0.00     0.000 HD
ATOM     15   C  BGC C   1      10.676  21.801  12.4620  0.00  0.00     0.000 C
ENDROOT
BRANCH 1 16
ATOM     16  O4  BGC C   2      13.974  19.482  10.2490  0.00  0.00     0.000 O
BRANCH 16 20
ATOM     17  C1  BGC C   2      13.558  15.884   8.3630  0.00  0.00     0.000 C
ATOM     18  C2  BGC C   2      12.296  16.724   8.4770  0.00  0.00     0.000 C
ATOM     19  C3  BGC C   2      12.635  18.159   8.8540  0.00  0.00     0.000 C
ATOM     20  C4  BGC C   2      13.514  18.165  10.0590  0.00  0.00     0.000 C
ATOM     21  C5  BGC C   2      14.708  17.233   9.8710  0.00  0.00     0.000 C
ATOM     22  O5  BGC C   2      14.287  15.940   9.5560  0.00  0.00     0.000 O
ATOM     23   O  BGC C   2      11.599  16.686   7.2230  0.00  0.00     0.000 O
ATOM     25  HD  BGC C   2      11.281  17.470   7.0360  0.00  0.00     0.000 HD
ATOM     25   O  BGC C   2      11.432  18.866   9.1320  0.00  0.00     0.000 O
ATOM     27  HD  BGC C   2      11.115  19.650   8.9450  0.00  0.00     0.000 HD
ATOM     27   C  BGC C   2      15.666  17.159  11.0780  0.00  0.00     0.000 C
ATOM     28   O  BGC C   2      14.960  16.817  12.2830  0.00  0.00     0.000 O
ATOM     30  HD  BGC C   2      14.643  17.601  12.0950  0.00  0.00     0.000 HD
BRANCH 17 30
ATOM     30  O4  BGC C   3      13.202  14.540   8.1170  0.00  0.00     0.000 O
BRANCH 30 34
ATOM     31  C1  BGC C   3      14.379  11.306   5.9970  0.00  0.00     0.000 C
ATOM     32  C2  BGC C   3      15.159  11.570   7.3070  0.00  0.00     0.000 C
ATOM     33  C3  BGC C   3      14.443  12.548   8.1730  0.00  0.00     0.000 C
ATOM     34  C4  BGC C   3      14.112  13.784   7.3330  0.00  0.00     0.000 C
ATOM     35  C5  BGC C   3      13.444  13.455   5.9730  0.00  0.00     0.000 C
ATOM     36  O5  BGC C   3      14.207  12.502   5.2770  0.00  0.00     0.000 O
ATOM     37   O  BGC C   3      15.481  10.465   8.1310  0.00  0.00     0.000 O
ATOM     39  HD  BGC C   3      15.233  11.294   8.1030  0.00  0.00     0.000 HD
ATOM     39   O  BGC C   3      15.267  12.899   9.3230  0.00  0.00     0.000 O
ATOM     41  HD  BGC C   3      15.018  13.728   9.2960  0.00  0.00     0.000 HD
ATOM     41   C  BGC C   3      13.262  14.661   5.0230  0.00  0.00     0.000 C
ATOM     42   O  BGC C   3      14.511  15.285   4.5550  0.00  0.00     0.000 O
ATOM     44  HD  BGC C   3      14.263  16.114   4.5280  0.00  0.00     0.000 HD
BRANCH 31 44
ATOM     44  O4  BGC C   4      15.049  10.393   5.1930  0.00  0.00     0.000 O
BRANCH 44 48
ATOM     45  C1  BGC C   4      14.596   7.216   2.6520  0.00  0.00     0.000 C
ATOM     46  C2  BGC C   4      14.049   8.535   2.0170  0.00  0.00     0.000 C
ATOM     47  C3  BGC C   4      14.594   9.599   2.9780  0.00  0.00     0.000 C
ATOM     48  C4  BGC C   4      14.351   9.427   4.4640  0.00  0.00     0.000 C
ATOM     49  C5  BGC C   4      14.962   8.068   4.8430  0.00  0.00     0.000 C
ATOM     50  O5  BGC C   4      14.430   7.050   4.0680  0.00  0.00     0.000 O
ATOM     51   O  BGC C   4      14.394   8.981   0.5850  0.00  0.00     0.000 O
ATOM     53  HD  BGC C   4      14.111   9.783   0.4260  0.00  0.00     0.000 HD
ATOM     53   O  BGC C   4      13.721  10.762   2.5930  0.00  0.00     0.000 O
ATOM     55  HD  BGC C   4      13.438  11.565   2.4330  0.00  0.00     0.000 HD
ATOM     55   C  BGC C   4      14.642   7.700   6.2690  0.00  0.00     0.000 C
ATOM     56   O  BGC C   4      13.250   7.672   6.6040  0.00  0.00     0.000 O
ATOM     58  HD  BGC C   4      12.967   8.475   6.4450  0.00  0.00     0.000 HD
BRANCH 45 58
ATOM     58  O4  BGC C   5      14.024   6.078   2.0780  0.00  0.00     0.000 O
BRANCH 58 62
ATOM     59  C1  BGC C   5      12.407   3.702   1.0320  0.00  0.00     0.000 C
ATOM     60  C2  BGC C   5      11.467   4.571   1.7060  0.00  0.00     0.000 C
ATOM     61  C3  BGC C   5      11.968   5.088   3.0520  0.00  0.00     0.000 C
ATOM     62  C4  BGC C   5      13.489   5.127   3.0310  0.00  0.00     0.000 C
ATOM     63  C5  BGC C   5      13.962   3.825   2.4270  0.00  0.00     0.000 C
ATOM     64  O5  BGC C   5      13.016   3.022   1.7240  0.00  0.00     0.000 O
ATOM     65   O  BGC C   5      13.769   2.543   4.4650  0.00  0.00     0.000 O
ATOM     67  HD  BGC C   5      14.283   3.012   3.9500  0.00  0.00     0.000 HD
ATOM     67   O  BGC C   5      13.769   2.543   4.4650  0.00  0.00     0.000 O
ATOM     69  HD  BGC C   5      14.283   3.012   3.9500  0.00  0.00     0.000 HD
ENDBRANCH 58 62
ENDBRANCH 45 58
ENDBRANCH 44 48
ENDBRANCH 31 44
ENDBRANCH 30 34
ENDBRANCH 17 30
ENDBRANCH 16 20
ENDBRANCH 1 16
TORSDOF 8
ENDMDL
MODEL 61
REMARK VINA RESULT:      -2.1     10.881     14.607
ROOT
ATOM      1  C1  BGC C   1       8.879   2.857   6.4080  0.00  0.00     0.000 C
ATOM      2  C2  BGC C   1       8.065   1.755   5.7310  0.00  0.00     0.000 C
ATOM      3  C3  BGC C   1       8.938   0.993   4.7420  0.00  0.00     0.000 C
ATOM      4  C4  BGC C   1       9.679   1.922   3.7940  0.00  0.00     0.000 C
ATOM      5  C5  BGC C   1      10.321   3.067   4.5720  0.00  0.00     0.000 C
ATOM      6  O5  BGC C   1       9.460   3.685   5.4750  0.00  0.00     0.000 O
ATOM      7   O  BGC C   1       7.601   0.891   6.7410  0.00  0.00     0.000 O
ATOM      9  HD  BGC C   1       7.285   0.959   5.9370  0.00  0.00     0.000 HD
ATOM      9   O  BGC C   1       8.105   0.061   4.0390  0.00  0.00     0.000 O
ATOM     11  HD  BGC C   1       7.789   0.130   3.2350  0.00  0.00     0.000 HD
ATOM     11   O  BGC C   1      10.665   1.135   3.1340  0.00  0.00     0.000 O
ATOM     13  HD  BGC C   1      10.349   1.203   2.3310  0.00  0.00     0.000 HD
ATOM     13   O  BGC C   1       9.696   4.784   2.8990  0.00  0.00     0.000 O
ATOM     15  HD  BGC C   1       9.379   4.853   2.0960  0.00  0.00     0.000 HD
ATOM     15   C  BGC C   1      10.808   4.120   3.5600  0.00  0.00     0.000 C
ENDROOT
BRANCH 1 16
ATOM     16  O4  BGC C   2       8.009   3.651   7.1790  0.00  0.00     0.000 O
BRANCH 16 20
ATOM     17  C1  BGC C   2       8.146   5.817  10.6380  0.00  0.00     0.000 C
ATOM     18  C2  BGC C   2       8.686   6.511   9.3980  0.00  0.00     0.000 C
ATOM     19  C3  BGC C   2       8.256   5.774   8.1370  0.00  0.00     0.000 C
ATOM     20  C4  BGC C   2       8.604   4.329   8.2600  0.00  0.00     0.000 C
ATOM     21  C5  BGC C   2       8.083   3.749   9.5710  0.00  0.00     0.000 C
ATOM     22  O5  BGC C   2       8.557   4.480  10.6620  0.00  0.00     0.000 O
ATOM     23   O  BGC C   2       8.205   7.863   9.3770  0.00  0.00     0.000 O
ATOM     25  HD  BGC C   2       7.984   8.088   8.5710  0.00  0.00     0.000 HD
ATOM     25   O  BGC C   2       8.926   6.337   7.0160  0.00  0.00     0.000 O
ATOM     27  HD  BGC C   2       8.705   6.562   6.2090  0.00  0.00     0.000 HD
ATOM     27   C  BGC C   2       8.414   2.259   9.7950  0.00  0.00     0.000 C
ATOM     28   O  BGC C   2       9.825   2.015   9.6760  0.00  0.00     0.000 O
ATOM     30  HD  BGC C   2       9.604   2.240   8.8690  0.00  0.00     0.000 HD
BRANCH 17 30
ATOM     30  O4  BGC C   3       8.648   6.462  11.7890  0.00  0.00     0.000 O
BRANCH 30 34
ATOM     31  C1  BGC C   3       7.540   7.511  15.5320  0.00  0.00     0.000 C
ATOM     32  C2  BGC C   3       8.057   6.062  15.3670  0.00  0.00     0.000 C
ATOM     33  C3  BGC C   3       8.754   5.884  14.0620  0.00  0.00     0.000 C
ATOM     34  C4  BGC C   3       7.835   6.396  12.9510  0.00  0.00     0.000 C
ATOM     35  C5  BGC C   3       7.244   7.803  13.2260  0.00  0.00     0.000 C
ATOM     36  O5  BGC C   3       6.645   7.836  14.4970  0.00  0.00     0.000 O
ATOM     37   O  BGC C   3       8.922   5.540  16.3580  0.00  0.00     0.000 O
ATOM     39  HD  BGC C   3       8.735   5.578  15.5130  0.00  0.00     0.000 HD
ATOM     39   O  BGC C   3       9.094   4.481  13.8600  0.00  0.00     0.000 O
ATOM     41  HD  BGC C   3       8.906   4.518  13.0150  0.00  0.00     0.000 HD
ATOM     41   C  BGC C   3       6.172   8.273  12.2160  0.00  0.00     0.000 C
ATOM     42   O  BGC C   3       4.937   7.472  12.1940  0.00  0.00     0.000 O
ATOM     44  HD  BGC C   3       4.750   7.509  11.3490  0.00  0.00     0.000 HD
BRANCH 31 44
ATOM     44  O4  BGC C   4       6.893   7.673  16.7500  0.00  0.00     0.000 O
BRANCH 44 48
ATOM     45  C1  BGC C   4       6.280  10.221  19.8950  0.00  0.00     0.000 C
ATOM     46  C2  BGC C   4       5.557  10.725  18.6050  0.00  0.00     0.000 C
ATOM     47  C3  BGC C   4       5.657   9.501  17.6860  0.00  0.00     0.000 C
ATOM     48  C4  BGC C   4       7.014   8.859  17.4790  0.00  0.00     0.000 C
ATOM     49  C5  BGC C   4       7.518   8.463  18.8760  0.00  0.00     0.000 C
ATOM     50  O5  BGC C   4       7.542   9.558  19.7240  0.00  0.00     0.000 O
ATOM     51   O  BGC C   4       4.091  11.195  18.5960  0.00  0.00     0.000 O
ATOM     53  HD  BGC C   4       3.807  11.331  17.7890  0.00  0.00     0.000 HD
ATOM     53   O  BGC C   4       5.348  10.148  16.3640  0.00  0.00     0.000 O
ATOM     55  HD  BGC C   4       5.063  10.284  15.5570  0.00  0.00     0.000 HD
ATOM     55   C  BGC C   4       8.938   7.960  18.8250  0.00  0.00     0.000 C
ATOM     56   O  BGC C   4       9.892   8.855  18.2440  0.00  0.00     0.000 O
ATOM     58  HD  BGC C   4       9.608   8.991  17.4370  0.00  0.00     0.000 HD
BRANCH 45 58
ATOM     58  O4  BGC C   5       6.527  11.256  20.8000  0.00  0.00     0.000 O
BRANCH 58 62
ATOM     59  C1  BGC C   5       7.609  13.511  22.5600  0.00  0.00     0.000 C
ATOM     60  C2  BGC C   5       6.267  13.896  22.1810  0.00  0.00     0.000 C
ATOM     61  C3  BGC C   5       5.958  13.669  20.7040  0.00  0.00     0.000 C
ATOM     62  C4  BGC C   5       6.829  12.533  20.1870  0.00  0.00     0.000 C
ATOM     63  C5  BGC C   5       8.229  12.771  20.7030  0.00  0.00     0.000 C
ATOM     64  O5  BGC C   5       8.409  13.707  21.7640  0.00  0.00     0.000 O
ATOM     65   O  BGC C   5       8.840  14.360  18.9890  0.00  0.00     0.000 O
ATOM     67  HD  BGC C   5       8.845  13.533  19.2470  0.00  0.00     0.000 HD
ATOM     67   O  BGC C   5       8.840  14.360  18.9890  0.00  0.00     0.000 O
ATOM     69  HD  BGC C   5       8.845  13.533  19.2470  0.00  0.00     0.000 HD
ENDBRANCH 58 62
ENDBRANCH 45 58
ENDBRANCH 44 48
ENDBRANCH 31 44
ENDBRANCH 30 34
ENDBRANCH 17 30
ENDBRANCH 16 20
ENDBRANCH 1 16
TORSDOF 8
ENDMDL
MODEL 62
REMARK VINA RESULT:      -2.1     12.050     15.245
ROOT
ATOM      1  C1  BGC C   1       8.681   2.236   6.9300  0.00  0.00     0.000 C
ATOM      2  C2  BGC C   1       7.556   1.950   5.9360  0.00  0.00     0.000 C
ATOM      3  C3  BGC C   1       8.117   1.268   4.6940  0.00  0.00     0.000 C
ATOM      4  C4  BGC C   1       9.311   2.013   4.1200  0.00  0.00     0.000 C
ATOM      5  C5  BGC C   1      10.290   2.380   5.2320  0.00  0.00     0.000 C
ATOM      6  O5  BGC C   1       9.686   2.967   6.3400  0.00  0.00     0.000 O
ATOM      7   O  BGC C   1       6.628   1.109   6.5790  0.00  0.00     0.000 O
ATOM      9  HD  BGC C   1       6.483   1.590   5.8730  0.00  0.00     0.000 HD
ATOM      9   O  BGC C   1       7.055   1.139   3.7390  0.00  0.00     0.000 O
ATOM     11  HD  BGC C   1       6.911   1.620   3.0340  0.00  0.00     0.000 HD
ATOM     11   O  BGC C   1       9.919   1.145   3.1690  0.00  0.00     0.000 O
ATOM     13  HD  BGC C   1       9.774   1.627   2.4630  0.00  0.00     0.000 HD
ATOM     13   O  BGC C   1      10.720   4.652   4.3420  0.00  0.00     0.000 O
ATOM     15  HD  BGC C   1      10.575   5.133   3.6370  0.00  0.00     0.000 HD
ATOM     15   C  BGC C   1      11.323   3.365   4.6550  0.00  0.00     0.000 C
ENDROOT
BRANCH 1 16
ATOM     16  O4  BGC C   2       8.165   3.018   7.9810  0.00  0.00     0.000 O
BRANCH 16 20
ATOM     17  C1  BGC C   2       8.825   3.529  11.9790  0.00  0.00     0.000 C
ATOM     18  C2  BGC C   2       9.745   4.303  11.0490  0.00  0.00     0.000 C
ATOM     19  C3  BGC C   2       9.187   4.327   9.6330  0.00  0.00     0.000 C
ATOM     20  C4  BGC C   2       8.867   2.936   9.1990  0.00  0.00     0.000 C
ATOM     21  C5  BGC C   2       8.004   2.223  10.2350  0.00  0.00     0.000 C
ATOM     22  O5  BGC C   2       8.618   2.235  11.4890  0.00  0.00     0.000 O
ATOM     23   O  BGC C   2       9.895   5.639  11.5520  0.00  0.00     0.000 O
ATOM     25  HD  BGC C   2       9.884   6.206  10.8970  0.00  0.00     0.000 HD
ATOM     25   O  BGC C   2      10.155   4.894   8.7580  0.00  0.00     0.000 O
ATOM     27  HD  BGC C   2      10.144   5.461   8.1040  0.00  0.00     0.000 HD
ATOM     27   C  BGC C   2       7.638   0.767   9.8800  0.00  0.00     0.000 C
ATOM     28   O  BGC C   2       8.813  -0.011   9.5980  0.00  0.00     0.000 O
ATOM     30  HD  BGC C   2       8.802   0.556   8.9430  0.00  0.00     0.000 HD
BRANCH 17 30
ATOM     30  O4  BGC C   3       9.422   3.437  13.2550  0.00  0.00     0.000 O
BRANCH 30 34
ATOM     31  C1  BGC C   3       8.456   3.471  17.1790  0.00  0.00     0.000 C
ATOM     32  C2  BGC C   3       8.318   2.104  16.4660  0.00  0.00     0.000 C
ATOM     33  C3  BGC C   3       9.014   2.111  15.1490  0.00  0.00     0.000 C
ATOM     34  C4  BGC C   3       8.533   3.329  14.3570  0.00  0.00     0.000 C
ATOM     35  C5  BGC C   3       8.575   4.654  15.1600  0.00  0.00     0.000 C
ATOM     36  O5  BGC C   3       7.909   4.496  16.3880  0.00  0.00     0.000 O
ATOM     37   O  BGC C   3       8.759   0.944  17.1470  0.00  0.00     0.000 O
ATOM     39  HD  BGC C   3       8.702   1.355  16.3860  0.00  0.00     0.000 HD
ATOM     39   O  BGC C   3       8.741   0.874  14.4290  0.00  0.00     0.000 O
ATOM     41  HD  BGC C   3       8.684   1.284  13.6680  0.00  0.00     0.000 HD
ATOM     41   C  BGC C   3       7.928   5.869  14.4560  0.00  0.00     0.000 C
ATOM     42   O  BGC C   3       6.480   5.756  14.2140  0.00  0.00     0.000 O
ATOM     44  HD  BGC C   3       6.423   6.167  13.4530  0.00  0.00     0.000 HD
BRANCH 31 44
ATOM     44  O4  BGC C   4       7.807   3.459  18.4070  0.00  0.00     0.000 O
BRANCH 44 48
ATOM     45  C1  BGC C   4       7.994   4.726  22.2960  0.00  0.00     0.000 C
ATOM     46  C2  BGC C   4       7.706   5.914  21.3240  0.00  0.00     0.000 C
ATOM     47  C3  BGC C   4       7.375   5.182  20.0160  0.00  0.00     0.000 C
ATOM     48  C4  BGC C   4       8.341   4.129  19.5110  0.00  0.00     0.000 C
ATOM     49  C5  BGC C   4       8.468   3.089  20.6350  0.00  0.00     0.000 C
ATOM     50  O5  BGC C   4       8.862   3.684  21.8220  0.00  0.00     0.000 O
ATOM     51   O  BGC C   4       6.593   6.948  21.5720  0.00  0.00     0.000 O
ATOM     53  HD  BGC C   4       6.486   7.469  20.8880  0.00  0.00     0.000 HD
ATOM     53   O  BGC C   4       7.523   6.319  19.0420  0.00  0.00     0.000 O
ATOM     55  HD  BGC C   4       7.416   6.840  18.3590  0.00  0.00     0.000 HD
ATOM     55   C  BGC C   4       9.532   2.069  20.3220  0.00  0.00     0.000 C
ATOM     56   O  BGC C   4      10.836   2.596  20.0540  0.00  0.00     0.000 O
ATOM     58  HD  BGC C   4      10.729   3.117  19.3700  0.00  0.00     0.000 HD
BRANCH 45 58
ATOM     58  O4  BGC C   5       8.556   5.154  23.5000  0.00  0.00     0.000 O
BRANCH 58 62
ATOM     59  C1  BGC C   5       6.342   6.396  25.2070  0.00  0.00     0.000 C
ATOM     60  C2  BGC C   5       7.553   6.461  25.9960  0.00  0.00     0.000 C
ATOM     61  C3  BGC C   5       8.369   5.172  25.9740  0.00  0.00     0.000 C
ATOM     62  C4  BGC C   5       8.094   4.436  24.6710  0.00  0.00     0.000 C
ATOM     63  C5  BGC C   5       6.600   4.463  24.4470  0.00  0.00     0.000 C
ATOM     64  O5  BGC C   5       5.818   5.378  25.2130  0.00  0.00     0.000 O
ATOM     65   O  BGC C   5       6.118   2.594  25.9000  0.00  0.00     0.000 O
ATOM     67  HD  BGC C   5       6.280   2.862  25.0930  0.00  0.00     0.000 HD
ATOM     67   O  BGC C   5       6.118   2.594  25.9000  0.00  0.00     0.000 O
ATOM     69  HD  BGC C   5       6.280   2.862  25.0930  0.00  0.00     0.000 HD
ENDBRANCH 58 62
ENDBRANCH 45 58
ENDBRANCH 44 48
ENDBRANCH 31 44
ENDBRANCH 30 34
ENDBRANCH 17 30
ENDBRANCH 16 20
ENDBRANCH 1 16
TORSDOF 8
ENDMDL
MODEL 63
REMARK VINA RESULT:      -2.1     10.341     16.088
ROOT
ATOM      1  C1  BGC C   1      18.743   6.549   3.8310  0.00  0.00     0.000 C
ATOM      2  C2  BGC C   1      18.092   5.169   3.7540  0.00  0.00     0.000 C
ATOM      3  C3  BGC C   1      18.954   4.144   4.4820  0.00  0.00     0.000 C
ATOM      4  C4  BGC C   1      20.406   4.196   4.0400  0.00  0.00     0.000 C
ATOM      5  C5  BGC C   1      20.897   5.641   4.0070  0.00  0.00     0.000 C
ATOM      6  O5  BGC C   1      20.032   6.513   3.3510  0.00  0.00     0.000 O
ATOM      7   O  BGC C   1      16.826   5.265   4.3630  0.00  0.00     0.000 O
ATOM      9  HD  BGC C   1      17.089   4.644   3.8190  0.00  0.00     0.000 HD
ATOM      9   O  BGC C   1      18.375   2.849   4.2740  0.00  0.00     0.000 O
ATOM     11  HD  BGC C   1      18.638   2.228   3.7300  0.00  0.00     0.000 HD
ATOM     11   O  BGC C   1      21.150   3.424   4.9760  0.00  0.00     0.000 O
ATOM     13  HD  BGC C   1      21.413   2.804   4.4320  0.00  0.00     0.000 HD
ATOM     13   O  BGC C   1      22.128   5.359   1.8750  0.00  0.00     0.000 O
ATOM     15  HD  BGC C   1      22.391   4.739   1.3310  0.00  0.00     0.000 HD
ATOM     15   C  BGC C   1      22.259   5.669   3.2910  0.00  0.00     0.000 C
ENDROOT
BRANCH 1 16
ATOM     16  O4  BGC C   2      18.021   7.434   3.0060  0.00  0.00     0.000 O
BRANCH 16 20
ATOM     17  C1  BGC C   2      16.737  11.310   3.0640  0.00  0.00     0.000 C
ATOM     18  C2  BGC C   2      18.233  11.108   2.8820  0.00  0.00     0.000 C
ATOM     19  C3  BGC C   2      18.542   9.664   2.5140  0.00  0.00     0.000 C
ATOM     20  C4  BGC C   2      17.891   8.748   3.4950  0.00  0.00     0.000 C
ATOM     21  C5  BGC C   2      16.412   9.083   3.6600  0.00  0.00     0.000 C
ATOM     22  O5  BGC C   2      16.242  10.420   4.0240  0.00  0.00     0.000 O
ATOM     23   O  BGC C   2      18.700  11.998   1.8570  0.00  0.00     0.000 O
ATOM     25  HD  BGC C   2      19.278  11.595   1.3540  0.00  0.00     0.000 HD
ATOM     25   O  BGC C   2      19.951   9.468   2.5330  0.00  0.00     0.000 O
ATOM     27  HD  BGC C   2      20.529   9.064   2.0300  0.00  0.00     0.000 HD
ATOM     27   C  BGC C   2      15.658   8.198   4.6730  0.00  0.00     0.000 C
ATOM     28   O  BGC C   2      16.309   8.201   5.9540  0.00  0.00     0.000 O
ATOM     30  HD  BGC C   2      16.887   7.798   5.4510  0.00  0.00     0.000 HD
BRANCH 17 30
ATOM     30  O4  BGC C   3      16.496  12.628   3.5060  0.00  0.00     0.000 O
BRANCH 30 34
ATOM     31  C1  BGC C   3      13.770  15.601   3.2400  0.00  0.00     0.000 C
ATOM     32  C2  BGC C   3      13.404  14.439   4.1940  0.00  0.00     0.000 C
ATOM     33  C3  BGC C   3      14.592  13.590   4.4880  0.00  0.00     0.000 C
ATOM     34  C4  BGC C   3      15.237  13.185   3.1600  0.00  0.00     0.000 C
ATOM     35  C5  BGC C   3      15.467  14.372   2.1900  0.00  0.00     0.000 C
ATOM     36  O5  BGC C   3      14.276  15.102   2.0270  0.00  0.00     0.000 O
ATOM     37   O  BGC C   3      12.817  14.755   5.4430  0.00  0.00     0.000 O
ATOM     39  HD  BGC C   3      13.368  14.241   5.0150  0.00  0.00     0.000 HD
ATOM     39   O  BGC C   3      14.194  12.418   5.2590  0.00  0.00     0.000 O
ATOM     41  HD  BGC C   3      14.745  11.903   4.8310  0.00  0.00     0.000 HD
ATOM     41   C  BGC C   3      15.946  13.978   0.7740  0.00  0.00     0.000 C
ATOM     42   O  BGC C   3      14.989  13.180  -0.0120  0.00  0.00     0.000 O
ATOM     44  HD  BGC C   3      15.540  12.666  -0.4400  0.00  0.00     0.000 HD
BRANCH 31 44
ATOM     44  O4  BGC C   4      12.661  16.392   2.9700  0.00  0.00     0.000 O
BRANCH 44 48
ATOM     45  C1  BGC C   4      11.348  20.259   2.6920  0.00  0.00     0.000 C
ATOM     46  C2  BGC C   4      11.934  19.758   1.3330  0.00  0.00     0.000 C
ATOM     47  C3  BGC C   4      12.061  18.249   1.5790  0.00  0.00     0.000 C
ATOM     48  C4  BGC C   4      12.780  17.776   2.8270  0.00  0.00     0.000 C
ATOM     49  C5  BGC C   4      12.033  18.404   4.0150  0.00  0.00     0.000 C
ATOM     50  O5  BGC C   4      11.974  19.782   3.8930  0.00  0.00     0.000 O
ATOM     51   O  BGC C   4      11.211  19.951  -0.0120  0.00  0.00     0.000 O
ATOM     53  HD  BGC C   4      11.606  19.517  -0.6500  0.00  0.00     0.000 HD
ATOM     53   O  BGC C   4      12.991  17.884   0.4550  0.00  0.00     0.000 O
ATOM     55  HD  BGC C   4      13.386  17.451  -0.1830  0.00  0.00     0.000 HD
ATOM     55   C  BGC C   4      12.751  18.143   5.3140  0.00  0.00     0.000 C
ATOM     56   O  BGC C   4      14.115  18.576   5.3660  0.00  0.00     0.000 O
ATOM     58  HD  BGC C   4      14.510  18.142   4.7280  0.00  0.00     0.000 HD
BRANCH 45 58
ATOM     58  O4  BGC C   5      11.369  21.652   2.7930  0.00  0.00     0.000 O
BRANCH 58 62
ATOM     59  C1  BGC C   5       9.140  22.816   1.0530  0.00  0.00     0.000 C
ATOM     60  C2  BGC C   5       9.782  23.939   1.6990  0.00  0.00     0.000 C
ATOM     61  C3  BGC C   5      10.053  23.719   3.1850  0.00  0.00     0.000 C
ATOM     62  C4  BGC C   5      10.208  22.227   3.4420  0.00  0.00     0.000 C
ATOM     63  C5  BGC C   5       9.093  21.526   2.7000  0.00  0.00     0.000 C
ATOM     64  O5  BGC C   5       8.381  22.256   1.7030  0.00  0.00     0.000 O
ATOM     65   O  BGC C   5       7.416  21.903   4.3970  0.00  0.00     0.000 O
ATOM     67  HD  BGC C   5       8.016  21.367   4.0770  0.00  0.00     0.000 HD
ATOM     67   O  BGC C   5       7.416  21.903   4.3970  0.00  0.00     0.000 O
ATOM     69  HD  BGC C   5       8.016  21.367   4.0770  0.00  0.00     0.000 HD
ENDBRANCH 58 62
ENDBRANCH 45 58
ENDBRANCH 44 48
ENDBRANCH 31 44
ENDBRANCH 30 34
ENDBRANCH 17 30
ENDBRANCH 16 20
ENDBRANCH 1 16
TORSDOF 8
ENDMDL
MODEL 64
REMARK VINA RESULT:      -2.1      9.249     15.340
ROOT
ATOM      1  C1  BGC C   1      23.420   3.519   3.9240  0.00  0.00     0.000 C
ATOM      2  C2  BGC C   1      23.376   2.114   4.5230  0.00  0.00     0.000 C
ATOM      3  C3  BGC C   1      24.621   1.334   4.1150  0.00  0.00     0.000 C
ATOM      4  C4  BGC C   1      24.869   1.390   2.6160  0.00  0.00     0.000 C
ATOM      5  C5  BGC C   1      24.732   2.823   2.1110  0.00  0.00     0.000 C
ATOM      6  O5  BGC C   1      23.583   3.469   2.5590  0.00  0.00     0.000 O
ATOM      7   O  BGC C   1      23.322   2.252   5.9220  0.00  0.00     0.000 O
ATOM      9  HD  BGC C   1      23.107   1.547   5.4670  0.00  0.00     0.000 HD
ATOM      9   O  BGC C   1      24.476  -0.012   4.5860  0.00  0.00     0.000 O
ATOM     11  HD  BGC C   1      24.261  -0.717   4.1300  0.00  0.00     0.000 HD
ATOM     11   O  BGC C   1      26.185   0.894   2.3980  0.00  0.00     0.000 O
ATOM     13  HD  BGC C   1      25.970   0.189   1.9430  0.00  0.00     0.000 HD
ATOM     13   O  BGC C   1      23.491   2.169   0.0690  0.00  0.00     0.000 O
ATOM     15  HD  BGC C   1      23.276   1.465  -0.3870  0.00  0.00     0.000 HD
ATOM     15   C  BGC C   1      24.707   2.788   0.5720  0.00  0.00     0.000 C
ENDROOT
BRANCH 1 16
ATOM     16  O4  BGC C   2      22.185   4.151   4.1690  0.00  0.00     0.000 O
BRANCH 16 20
ATOM     17  C1  BGC C   2      20.737   7.941   4.6320  0.00  0.00     0.000 C
ATOM     18  C2  BGC C   2      21.054   7.520   3.2060  0.00  0.00     0.000 C
ATOM     19  C3  BGC C   2      21.229   6.011   3.1140  0.00  0.00     0.000 C
ATOM     20  C4  BGC C   2      22.209   5.558   4.1440  0.00  0.00     0.000 C
ATOM     21  C5  BGC C   2      21.842   6.096   5.5230  0.00  0.00     0.000 C
ATOM     22  O5  BGC C   2      21.733   7.488   5.5030  0.00  0.00     0.000 O
ATOM     23   O  BGC C   2      19.989   7.955   2.3470  0.00  0.00     0.000 O
ATOM     25  HD  BGC C   2      19.811   7.343   1.7600  0.00  0.00     0.000 HD
ATOM     25   O  BGC C   2      21.703   5.673   1.8160  0.00  0.00     0.000 O
ATOM     27  HD  BGC C   2      21.525   5.061   1.2300  0.00  0.00     0.000 HD
ATOM     27   C  BGC C   2      22.814   5.695   6.6530  0.00  0.00     0.000 C
ATOM     28   O  BGC C   2      24.166   6.053   6.3280  0.00  0.00     0.000 O
ATOM     30  HD  BGC C   2      23.989   5.441   5.7410  0.00  0.00     0.000 HD
BRANCH 17 30
ATOM     30  O4  BGC C   3      20.685   9.350   4.7010  0.00  0.00     0.000 O
BRANCH 30 34
ATOM     31  C1  BGC C   3      18.659  12.324   6.5410  0.00  0.00     0.000 C
ATOM     32  C2  BGC C   3      19.842  11.726   7.3380  0.00  0.00     0.000 C
ATOM     33  C3  BGC C   3      20.722  10.904   6.4610  0.00  0.00     0.000 C
ATOM     34  C4  BGC C   3      19.848   9.898   5.7080  0.00  0.00     0.000 C
ATOM     35  C5  BGC C   3      18.606  10.532   5.0310  0.00  0.00     0.000 C
ATOM     36  O5  BGC C   3      17.886  11.301   5.9630  0.00  0.00     0.000 O
ATOM     37   O  BGC C   3      20.693  12.611   8.0430  0.00  0.00     0.000 O
ATOM     39  HD  BGC C   3      20.640  11.890   7.5660  0.00  0.00     0.000 HD
ATOM     39   O  BGC C   3      21.737  10.226   7.2580  0.00  0.00     0.000 O
ATOM     41  HD  BGC C   3      21.684   9.505   6.7810  0.00  0.00     0.000 HD
ATOM     41   C  BGC C   3      17.606   9.524   4.4180  0.00  0.00     0.000 C
ATOM     42   O  BGC C   3      16.948   8.628   5.3840  0.00  0.00     0.000 O
ATOM     44  HD  BGC C   3      16.895   7.907   4.9070  0.00  0.00     0.000 HD
BRANCH 31 44
ATOM     44  O4  BGC C   4      17.842  13.091   7.3620  0.00  0.00     0.000 O
BRANCH 44 48
ATOM     45  C1  BGC C   4      15.576  16.493   7.5820  0.00  0.00     0.000 C
ATOM     46  C2  BGC C   4      14.905  15.420   6.6660  0.00  0.00     0.000 C
ATOM     47  C3  BGC C   4      15.737  14.170   6.9780  0.00  0.00     0.000 C
ATOM     48  C4  BGC C   4      17.247  14.265   6.8930  0.00  0.00     0.000 C
ATOM     49  C5  BGC C   4      17.661  15.382   7.8640  0.00  0.00     0.000 C
ATOM     50  O5  BGC C   4      17.009  16.567   7.5650  0.00  0.00     0.000 O
ATOM     51   O  BGC C   4      13.420  15.031   6.7810  0.00  0.00     0.000 O
ATOM     53  HD  BGC C   4      13.232  14.345   6.2860  0.00  0.00     0.000 HD
ATOM     53   O  BGC C   4      15.353  13.308   5.8060  0.00  0.00     0.000 O
ATOM     55  HD  BGC C   4      15.166  12.622   5.3120  0.00  0.00     0.000 HD
ATOM     55   C  BGC C   4      19.132  15.690   7.7520  0.00  0.00     0.000 C
ATOM     56   O  BGC C   4      19.593  16.043   6.4420  0.00  0.00     0.000 O
ATOM     58  HD  BGC C   4      19.406  15.357   5.9480  0.00  0.00     0.000 HD
BRANCH 45 58
ATOM     58  O4  BGC C   5      15.136  17.786   7.2900  0.00  0.00     0.000 O
BRANCH 58 62
ATOM     59  C1  BGC C   5      12.314  18.153   8.4100  0.00  0.00     0.000 C
ATOM     60  C2  BGC C   5      12.685  19.418   7.8150  0.00  0.00     0.000 C
ATOM     61  C3  BGC C   5      14.102  19.866   8.1620  0.00  0.00     0.000 C
ATOM     62  C4  BGC C   5      14.952  18.636   8.4480  0.00  0.00     0.000 C
ATOM     63  C5  BGC C   5      14.139  17.727   9.3400  0.00  0.00     0.000 C
ATOM     64  O5  BGC C   5      12.739  17.970   9.4570  0.00  0.00     0.000 O
ATOM     65   O  BGC C   5      14.670  18.886  11.3930  0.00  0.00     0.000 O
ATOM     67  HD  BGC C   5      14.869  18.239  10.8530  0.00  0.00     0.000 HD
ATOM     67   O  BGC C   5      14.670  18.886  11.3930  0.00  0.00     0.000 O
ATOM     69  HD  BGC C   5      14.869  18.239  10.8530  0.00  0.00     0.000 HD
ENDBRANCH 58 62
ENDBRANCH 45 58
ENDBRANCH 44 48
ENDBRANCH 31 44
ENDBRANCH 30 34
ENDBRANCH 17 30
ENDBRANCH 16 20
ENDBRANCH 1 16
TORSDOF 8
ENDMDL
MODEL 65
REMARK VINA RESULT:      -2.1      5.429     14.583
ROOT
ATOM      1  C1  BGC C   1      18.289   9.700  12.8490  0.00  0.00     0.000 C
ATOM      2  C2  BGC C   1      19.778   9.549  13.1610  0.00  0.00     0.000 C
ATOM      3  C3  BGC C   1      20.189  10.544  14.2390  0.00  0.00     0.000 C
ATOM      4  C4  BGC C   1      19.738  11.960  13.9170  0.00  0.00     0.000 C
ATOM      5  C5  BGC C   1      18.279  11.960  13.4690  0.00  0.00     0.000 C
ATOM      6  O5  BGC C   1      17.986  10.997  12.5070  0.00  0.00     0.000 O
ATOM      7   O  BGC C   1      19.984   8.230  13.6090  0.00  0.00     0.000 O
ATOM      9  HD  BGC C   1      20.590   8.772  13.3100  0.00  0.00     0.000 HD
ATOM      9   O  BGC C   1      21.610  10.459  14.4050  0.00  0.00     0.000 O
ATOM     11  HD  BGC C   1      22.216  11.001  14.1060  0.00  0.00     0.000 HD
ATOM     11   O  BGC C   1      19.910  12.727  15.1040  0.00  0.00     0.000 O
ATOM     13  HD  BGC C   1      20.515  13.269  14.8050  0.00  0.00     0.000 HD
ATOM     13   O  BGC C   1      18.660  13.584  11.6370  0.00  0.00     0.000 O
ATOM     15  HD  BGC C   1      19.265  14.126  11.3380  0.00  0.00     0.000 HD
ATOM     15   C  BGC C   1      17.956  13.349  12.8890  0.00  0.00     0.000 C
ENDROOT
BRANCH 1 16
ATOM     16  O4  BGC C   2      17.979   8.897  11.7350  0.00  0.00     0.000 O
BRANCH 16 20
ATOM     17  C1  BGC C   2      14.623   7.760   9.7050  0.00  0.00     0.000 C
ATOM     18  C2  BGC C   2      15.290   9.039   9.2230  0.00  0.00     0.000 C
ATOM     19  C3  BGC C   2      16.696   9.162   9.7930  0.00  0.00     0.000 C
ATOM     20  C4  BGC C   2      16.652   8.986  11.2740  0.00  0.00     0.000 C
ATOM     21  C5  BGC C   2      15.896   7.716  11.6530  0.00  0.00     0.000 C
ATOM     22  O5  BGC C   2      14.613   7.716  11.1030  0.00  0.00     0.000 O
ATOM     23   O  BGC C   2      15.330   9.029   7.7880  0.00  0.00     0.000 O
ATOM     25  HD  BGC C   2      16.088   9.340   7.5100  0.00  0.00     0.000 HD
ATOM     25   O  BGC C   2      17.218  10.447   9.4760  0.00  0.00     0.000 O
ATOM     27  HD  BGC C   2      17.977  10.757   9.1980  0.00  0.00     0.000 HD
ATOM     27   C  BGC C   2      15.782   7.460  13.1700  0.00  0.00     0.000 C
ATOM     28   O  BGC C   2      15.212   8.592  13.8470  0.00  0.00     0.000 O
ATOM     30  HD  BGC C   2      15.971   8.903  13.5690  0.00  0.00     0.000 HD
BRANCH 17 30
ATOM     30  O4  BGC C   3      13.289   7.730   9.2450  0.00  0.00     0.000 O
BRANCH 30 34
ATOM     31  C1  BGC C   3      10.512   5.126   7.8850  0.00  0.00     0.000 C
ATOM     32  C2  BGC C   3      10.583   5.290   9.4220  0.00  0.00     0.000 C
ATOM     33  C3  BGC C   3      11.369   6.496   9.8000  0.00  0.00     0.000 C
ATOM     34  C4  BGC C   3      12.714   6.443   9.0720  0.00  0.00     0.000 C
ATOM     35  C5  BGC C   3      12.593   6.152   7.5540  0.00  0.00     0.000 C
ATOM     36  O5  BGC C   3      11.804   5.008   7.3420  0.00  0.00     0.000 O
ATOM     37   O  BGC C   3       9.369   5.358  10.1470  0.00  0.00     0.000 O
ATOM     39  HD  BGC C   3      10.180   5.653  10.0710  0.00  0.00     0.000 HD
ATOM     39   O  BGC C   3      11.555   6.544  11.2450  0.00  0.00     0.000 O
ATOM     41  HD  BGC C   3      12.366   6.839  11.1690  0.00  0.00     0.000 HD
ATOM     41   C  BGC C   3      13.933   5.911   6.8220  0.00  0.00     0.000 C
ATOM     42   O  BGC C   3      14.679   4.717   7.2570  0.00  0.00     0.000 O
ATOM     44  HD  BGC C   3      15.490   5.012   7.1810  0.00  0.00     0.000 HD
BRANCH 31 44
ATOM     44  O4  BGC C   4       9.776   4.001   7.5370  0.00  0.00     0.000 O
BRANCH 44 48
ATOM     45  C1  BGC C   4       7.133   2.459   4.8180  0.00  0.00     0.000 C
ATOM     46  C2  BGC C   4       8.594   2.444   4.2630  0.00  0.00     0.000 C
ATOM     47  C3  BGC C   4       9.414   2.756   5.5210  0.00  0.00     0.000 C
ATOM     48  C4  BGC C   4       9.033   3.963   6.3550  0.00  0.00     0.000 C
ATOM     49  C5  BGC C   4       7.567   3.752   6.7670  0.00  0.00     0.000 C
ATOM     50  O5  BGC C   4       6.760   3.562   5.6570  0.00  0.00     0.000 O
ATOM     51   O  BGC C   4       9.222   1.210   3.5920  0.00  0.00     0.000 O
ATOM     53  HD  BGC C   4      10.068   1.324   3.4470  0.00  0.00     0.000 HD
ATOM     53   O  BGC C   4      10.721   3.144   4.8850  0.00  0.00     0.000 O
ATOM     55  HD  BGC C   4      11.567   3.258   4.7400  0.00  0.00     0.000 HD
ATOM     55   C  BGC C   4       7.013   4.966   7.4670  0.00  0.00     0.000 C
ATOM     56   O  BGC C   4       7.099   6.195   6.7360  0.00  0.00     0.000 O
ATOM     58  HD  BGC C   4       7.945   6.309   6.5910  0.00  0.00     0.000 HD
BRANCH 45 58
ATOM     58  O4  BGC C   5       6.181   2.435   3.7960  0.00  0.00     0.000 O
BRANCH 58 62
ATOM     59  C1  BGC C   5       3.655   2.115   2.1020  0.00  0.00     0.000 C
ATOM     60  C2  BGC C   5       4.350   3.273   1.5850  0.00  0.00     0.000 C
ATOM     61  C3  BGC C   5       4.867   4.214   2.6700  0.00  0.00     0.000 C
ATOM     62  C4  BGC C   5       5.119   3.411   3.9380  0.00  0.00     0.000 C
ATOM     63  C5  BGC C   5       3.927   2.505   4.1400  0.00  0.00     0.000 C
ATOM     64  O5  BGC C   5       3.034   2.308   3.0460  0.00  0.00     0.000 O
ATOM     65   O  BGC C   5       2.534   4.185   5.1760  0.00  0.00     0.000 O
ATOM     67  HD  BGC C   5       3.095   3.535   5.2920  0.00  0.00     0.000 HD
ATOM     67   O  BGC C   5       2.534   4.185   5.1760  0.00  0.00     0.000 O
ATOM     69  HD  BGC C   5       3.095   3.535   5.2920  0.00  0.00     0.000 HD
ENDBRANCH 58 62
ENDBRANCH 45 58
ENDBRANCH 44 48
ENDBRANCH 31 44
ENDBRANCH 30 34
ENDBRANCH 17 30
ENDBRANCH 16 20
ENDBRANCH 1 16
TORSDOF 8
ENDMDL
MODEL 66
REMARK VINA RESULT:      -2.1      8.682     14.886
ROOT
ATOM      1  C1  BGC C   1      23.203   3.457   3.8940  0.00  0.00     0.000 C
ATOM      2  C2  BGC C   1      23.243   2.031   4.4430  0.00  0.00     0.000 C
ATOM      3  C3  BGC C   1      24.555   1.359   4.0560  0.00  0.00     0.000 C
ATOM      4  C4  BGC C   1      24.849   1.486   2.5700  0.00  0.00     0.000 C
ATOM      5  C5  BGC C   1      24.624   2.923   2.1080  0.00  0.00     0.000 C
ATOM      6  O5  BGC C   1      23.416   3.468   2.5350  0.00  0.00     0.000 O
ATOM      7   O  BGC C   1      23.131   2.114   5.8440  0.00  0.00     0.000 O
ATOM      9  HD  BGC C   1      22.984   1.413   5.3570  0.00  0.00     0.000 HD
ATOM      9   O  BGC C   1      24.493  -0.011   4.4750  0.00  0.00     0.000 O
ATOM     11  HD  BGC C   1      24.346  -0.712   3.9880  0.00  0.00     0.000 HD
ATOM     11   O  BGC C   1      26.205   1.095   2.3840  0.00  0.00     0.000 O
ATOM     13  HD  BGC C   1      26.057   0.394   1.8970  0.00  0.00     0.000 HD
ATOM     13   O  BGC C   1      23.506   2.255   0.0010  0.00  0.00     0.000 O
ATOM     15  HD  BGC C   1      23.359   1.554  -0.4860  0.00  0.00     0.000 HD
ATOM     15   C  BGC C   1      24.655   2.942   0.5690  0.00  0.00     0.000 C
ENDROOT
BRANCH 1 16
ATOM     16  O4  BGC C   2      21.918   3.988   4.1140  0.00  0.00     0.000 O
BRANCH 16 20
ATOM     17  C1  BGC C   2      20.182   7.621   4.7950  0.00  0.00     0.000 C
ATOM     18  C2  BGC C   2      20.753   7.408   3.4020  0.00  0.00     0.000 C
ATOM     19  C3  BGC C   2      21.033   5.933   3.1540  0.00  0.00     0.000 C
ATOM     20  C4  BGC C   2      21.858   5.386   4.2700  0.00  0.00     0.000 C
ATOM     21  C5  BGC C   2      21.239   5.720   5.6240  0.00  0.00     0.000 C
ATOM     22  O5  BGC C   2      21.049   7.096   5.7590  0.00  0.00     0.000 O
ATOM     23   O  BGC C   2      19.818   7.911   2.4360  0.00  0.00     0.000 O
ATOM     25  HD  BGC C   2      19.776   7.376   1.7560  0.00  0.00     0.000 HD
ATOM     25   O  BGC C   2      21.733   5.791   1.9230  0.00  0.00     0.000 O
ATOM     27  HD  BGC C   2      21.691   5.256   1.2430  0.00  0.00     0.000 HD
ATOM     27   C  BGC C   2      22.036   5.210   6.8420  0.00  0.00     0.000 C
ATOM     28   O  BGC C   2      23.399   5.663   6.7990  0.00  0.00     0.000 O
ATOM     30  HD  BGC C   2      23.358   5.128   6.1190  0.00  0.00     0.000 HD
BRANCH 17 30
ATOM     30  O4  BGC C   3      20.033   9.005   5.0310  0.00  0.00     0.000 O
BRANCH 30 34
ATOM     31  C1  BGC C   3      17.499  11.639   6.7570  0.00  0.00     0.000 C
ATOM     32  C2  BGC C   3      18.507  10.955   7.7100  0.00  0.00     0.000 C
ATOM     33  C3  BGC C   3      19.600  10.287   6.9500  0.00  0.00     0.000 C
ATOM     34  C4  BGC C   3      18.967   9.384   5.8880  0.00  0.00     0.000 C
ATOM     35  C5  BGC C   3      17.874  10.086   5.0420  0.00  0.00     0.000 C
ATOM     36  O5  BGC C   3      16.928  10.696   5.8840  0.00  0.00     0.000 O
ATOM     37   O  BGC C   3      19.134  11.744   8.7040  0.00  0.00     0.000 O
ATOM     39  HD  BGC C   3      19.226  11.099   8.1330  0.00  0.00     0.000 HD
ATOM     39   O  BGC C   3      20.448   9.520   7.8550  0.00  0.00     0.000 O
ATOM     41  HD  BGC C   3      20.539   8.875   7.2840  0.00  0.00     0.000 HD
ATOM     41   C  BGC C   3      17.088   9.159   4.0870  0.00  0.00     0.000 C
ATOM     42   O  BGC C   3      16.280   8.119   4.7460  0.00  0.00     0.000 O
ATOM     44  HD  BGC C   3      16.371   7.474   4.1750  0.00  0.00     0.000 HD
BRANCH 31 44
ATOM     44  O4  BGC C   4      16.483  12.262   7.4690  0.00  0.00     0.000 O
BRANCH 44 48
ATOM     45  C1  BGC C   4      14.060  15.557   7.6460  0.00  0.00     0.000 C
ATOM     46  C2  BGC C   4      13.682  14.637   6.4420  0.00  0.00     0.000 C
ATOM     47  C3  BGC C   4      14.478  13.363   6.7530  0.00  0.00     0.000 C
ATOM     48  C4  BGC C   4      15.959  13.488   7.0540  0.00  0.00     0.000 C
ATOM     49  C5  BGC C   4      16.072  14.442   8.2550  0.00  0.00     0.000 C
ATOM     50  O5  BGC C   4      15.451  15.651   7.9900  0.00  0.00     0.000 O
ATOM     51   O  BGC C   4      12.234  14.216   6.1320  0.00  0.00     0.000 O
ATOM     53  HD  BGC C   4      12.205  13.615   5.5080  0.00  0.00     0.000 HD
ATOM     53   O  BGC C   4      14.429  12.695   5.4060  0.00  0.00     0.000 O
ATOM     55  HD  BGC C   4      14.400  12.094   4.7830  0.00  0.00     0.000 HD
ATOM     55   C  BGC C   4      17.509  14.782   8.5520  0.00  0.00     0.000 C
ATOM     56   O  BGC C   4      18.251  15.345   7.4640  0.00  0.00     0.000 O
ATOM     58  HD  BGC C   4      18.221  14.745   6.8400  0.00  0.00     0.000 HD
BRANCH 45 58
ATOM     58  O4  BGC C   5      13.637  16.875   7.4560  0.00  0.00     0.000 O
BRANCH 58 62
ATOM     59  C1  BGC C   5      13.196  19.850   6.9020  0.00  0.00     0.000 C
ATOM     60  C2  BGC C   5      12.063  19.155   6.3300  0.00  0.00     0.000 C
ATOM     61  C3  BGC C   5      12.445  17.906   5.5400  0.00  0.00     0.000 C
ATOM     62  C4  BGC C   5      13.751  17.353   6.0930  0.00  0.00     0.000 C
ATOM     63  C5  BGC C   5      14.690  18.522   6.2800  0.00  0.00     0.000 C
ATOM     64  O5  BGC C   5      14.143  19.839   6.2570  0.00  0.00     0.000 O
ATOM     65   O  BGC C   5      15.408  18.612   3.9760  0.00  0.00     0.000 O
ATOM     67  HD  BGC C   5      15.564  18.311   4.7730  0.00  0.00     0.000 HD
ATOM     67   O  BGC C   5      15.408  18.612   3.9760  0.00  0.00     0.000 O
ATOM     69  HD  BGC C   5      15.564  18.311   4.7730  0.00  0.00     0.000 HD
ENDBRANCH 58 62
ENDBRANCH 45 58
ENDBRANCH 44 48
ENDBRANCH 31 44
ENDBRANCH 30 34
ENDBRANCH 17 30
ENDBRANCH 16 20
ENDBRANCH 1 16
TORSDOF 8
ENDMDL
MODEL 67
REMARK VINA RESULT:      -2.1      7.329     16.140
ROOT
ATOM      1  C1  BGC C   1      25.866   5.632   2.6870  0.00  0.00     0.000 C
ATOM      2  C2  BGC C   1      27.104   5.629   3.5830  0.00  0.00     0.000 C
ATOM      3  C3  BGC C   1      28.319   5.155   2.7930  0.00  0.00     0.000 C
ATOM      4  C4  BGC C   1      28.054   3.853   2.0570  0.00  0.00     0.000 C
ATOM      5  C5  BGC C   1      26.716   3.922   1.3260  0.00  0.00     0.000 C
ATOM      6  O5  BGC C   1      25.670   4.396   2.1130  0.00  0.00     0.000 O
ATOM      7   O  BGC C   1      27.300   6.947   4.0370  0.00  0.00     0.000 O
ATOM      9  HD  BGC C   1      27.631   6.228   4.3880  0.00  0.00     0.000 HD
ATOM      9   O  BGC C   1      29.423   5.043   3.7010  0.00  0.00     0.000 O
ATOM     11  HD  BGC C   1      29.755   4.324   4.0520  0.00  0.00     0.000 HD
ATOM     11   O  BGC C   1      29.128   3.672   1.1410  0.00  0.00     0.000 O
ATOM     13  HD  BGC C   1      29.460   2.953   1.4910  0.00  0.00     0.000 HD
ATOM     13   O  BGC C   1      26.057   1.617   1.9510  0.00  0.00     0.000 O
ATOM     15  HD  BGC C   1      26.389   0.898   2.3010  0.00  0.00     0.000 HD
ATOM     15   C  BGC C   1      26.361   2.505   0.8400  0.00  0.00     0.000 C
ENDROOT
BRANCH 1 16
ATOM     16  O4  BGC C   2      24.736   5.901   3.4810  0.00  0.00     0.000 O
BRANCH 16 20
ATOM     17  C1  BGC C   2      21.009   7.486   2.9590  0.00  0.00     0.000 C
ATOM     18  C2  BGC C   2      21.133   5.988   2.7280  0.00  0.00     0.000 C
ATOM     19  C3  BGC C   2      22.443   5.461   3.2950  0.00  0.00     0.000 C
ATOM     20  C4  BGC C   2      23.577   6.281   2.7780  0.00  0.00     0.000 C
ATOM     21  C5  BGC C   2      23.319   7.769   2.9900  0.00  0.00     0.000 C
ATOM     22  O5  BGC C   2      22.109   8.153   2.4100  0.00  0.00     0.000 O
ATOM     23   O  BGC C   2      20.017   5.330   3.3460  0.00  0.00     0.000 O
ATOM     25  HD  BGC C   2      20.279   4.600   3.7310  0.00  0.00     0.000 HD
ATOM     25   O  BGC C   2      22.610   4.104   2.9020  0.00  0.00     0.000 O
ATOM     27  HD  BGC C   2      22.872   3.374   3.2860  0.00  0.00     0.000 HD
ATOM     27   C  BGC C   2      24.433   8.699   2.4670  0.00  0.00     0.000 C
ATOM     28   O  BGC C   2      24.719   8.442   1.0820  0.00  0.00     0.000 O
ATOM     30  HD  BGC C   2      24.981   7.711   1.4670  0.00  0.00     0.000 HD
BRANCH 17 30
ATOM     30  O4  BGC C   3      19.836   7.959   2.3300  0.00  0.00     0.000 O
BRANCH 30 34
ATOM     31  C1  BGC C   3      16.796  10.572   2.8440  0.00  0.00     0.000 C
ATOM     32  C2  BGC C   3      18.207  11.198   2.7320  0.00  0.00     0.000 C
ATOM     33  C3  BGC C   3      19.192  10.213   2.2050  0.00  0.00     0.000 C
ATOM     34  C4  BGC C   3      19.093   8.936   3.0430  0.00  0.00     0.000 C
ATOM     35  C5  BGC C   3      17.643   8.421   3.2280  0.00  0.00     0.000 C
ATOM     36  O5  BGC C   3      16.818   9.457   3.7000  0.00  0.00     0.000 O
ATOM     37   O  BGC C   3      18.361  12.373   1.9580  0.00  0.00     0.000 O
ATOM     39  HD  BGC C   3      18.708  11.615   2.1930  0.00  0.00     0.000 HD
ATOM     39   O  BGC C   3      20.538  10.772   2.2550  0.00  0.00     0.000 O
ATOM     41  HD  BGC C   3      20.885  10.014   2.4900  0.00  0.00     0.000 HD
ATOM     41   C  BGC C   3      17.487   7.242   4.2160  0.00  0.00     0.000 C
ATOM     42   O  BGC C   3      17.836   7.545   5.6140  0.00  0.00     0.000 O
ATOM     44  HD  BGC C   3      18.183   6.786   5.8490  0.00  0.00     0.000 HD
BRANCH 31 44
ATOM     44  O4  BGC C   4      15.880  11.494   3.3330  0.00  0.00     0.000 O
BRANCH 44 48
ATOM     45  C1  BGC C   4      12.042  12.881   3.0030  0.00  0.00     0.000 C
ATOM     46  C2  BGC C   4      12.092  11.523   3.7740  0.00  0.00     0.000 C
ATOM     47  C3  BGC C   4      13.594  11.366   4.0440  0.00  0.00     0.000 C
ATOM     48  C4  BGC C   4      14.558  11.506   2.8820  0.00  0.00     0.000 C
ATOM     49  C5  BGC C   4      14.312  12.902   2.2870  0.00  0.00     0.000 C
ATOM     50  O5  BGC C   4      12.983  13.064   1.9330  0.00  0.00     0.000 O
ATOM     51   O  BGC C   4      11.354  11.288   5.1040  0.00  0.00     0.000 O
ATOM     53  HD  BGC C   4      11.575  10.530   5.4590  0.00  0.00     0.000 HD
ATOM     53   O  BGC C   4      13.640   9.902   4.3880  0.00  0.00     0.000 O
ATOM     55  HD  BGC C   4      13.861   9.144   4.7440  0.00  0.00     0.000 HD
ATOM     55   C  BGC C   4      15.096  13.104   1.0170  0.00  0.00     0.000 C
ATOM     56   O  BGC C   4      14.869  12.134  -0.0120  0.00  0.00     0.000 O
ATOM     58  HD  BGC C   4      15.090  11.376   0.3430  0.00  0.00     0.000 HD
BRANCH 45 58
ATOM     58  O4  BGC C   5      10.788  13.120   2.4370  0.00  0.00     0.000 O
BRANCH 58 62
ATOM     59  C1  BGC C   5       7.869  13.524   1.6190  0.00  0.00     0.000 C
ATOM     60  C2  BGC C   5       8.594  14.674   1.1270  0.00  0.00     0.000 C
ATOM     61  C3  BGC C   5       9.572  15.263   2.1410  0.00  0.00     0.000 C
ATOM     62  C4  BGC C   5      10.020  14.161   3.0900  0.00  0.00     0.000 C
ATOM     63  C5  BGC C   5       8.786  13.389   3.4950  0.00  0.00     0.000 C
ATOM     64  O5  BGC C   5       7.595  13.567   2.7310  0.00  0.00     0.000 O
ATOM     65   O  BGC C   5       8.099  14.941   5.2140  0.00  0.00     0.000 O
ATOM     67  HD  BGC C   5       8.534  14.217   5.0230  0.00  0.00     0.000 HD
ATOM     67   O  BGC C   5       8.099  14.941   5.2140  0.00  0.00     0.000 O
ATOM     69  HD  BGC C   5       8.534  14.217   5.0230  0.00  0.00     0.000 HD
ENDBRANCH 58 62
ENDBRANCH 45 58
ENDBRANCH 44 48
ENDBRANCH 31 44
ENDBRANCH 30 34
ENDBRANCH 17 30
ENDBRANCH 16 20
ENDBRANCH 1 16
TORSDOF 8
ENDMDL
MODEL 68
REMARK VINA RESULT:      -1.9     10.685     15.687
ROOT
ATOM      1  C1  BGC C   1      15.626   8.459  21.3960  0.00  0.00     0.000 C
ATOM      2  C2  BGC C   1      16.868   8.130  22.2230  0.00  0.00     0.000 C
ATOM      3  C3  BGC C   1      16.632   8.486  23.6850  0.00  0.00     0.000 C
ATOM      4  C4  BGC C   1      16.102   9.900  23.8540  0.00  0.00     0.000 C
ATOM      5  C5  BGC C   1      14.966  10.160  22.8680  0.00  0.00     0.000 C
ATOM      6  O5  BGC C   1      15.257   9.774  21.5630  0.00  0.00     0.000 O
ATOM      7   O  BGC C   1      17.112   6.750  22.0890  0.00  0.00     0.000 O
ATOM      9  HD  BGC C   1      17.679   7.349  22.3530  0.00  0.00     0.000 HD
ATOM      9   O  BGC C   1      17.861   8.286  24.3960  0.00  0.00     0.000 O
ATOM     11  HD  BGC C   1      18.428   8.884  24.6610  0.00  0.00     0.000 HD
ATOM     11   O  BGC C   1      15.648  10.012  25.1990  0.00  0.00     0.000 O
ATOM     13  HD  BGC C   1      16.215  10.610  25.4630  0.00  0.00     0.000 HD
ATOM     13   O  BGC C   1      15.747  12.441  22.3010  0.00  0.00     0.000 O
ATOM     15  HD  BGC C   1      16.314  13.040  22.5650  0.00  0.00     0.000 HD
ATOM     15   C  BGC C   1      14.658  11.668  22.8780  0.00  0.00     0.000 C
ENDROOT
BRANCH 1 16
ATOM     16  O4  BGC C   2      15.933   8.286  20.0330  0.00  0.00     0.000 O
BRANCH 16 20
ATOM     17  C1  BGC C   2      13.976   7.236  16.6060  0.00  0.00     0.000 C
ATOM     18  C2  BGC C   2      13.889   8.702  16.9990  0.00  0.00     0.000 C
ATOM     19  C3  BGC C   2      14.930   9.041  18.0550  0.00  0.00     0.000 C
ATOM     20  C4  BGC C   2      14.829   8.073  19.1860  0.00  0.00     0.000 C
ATOM     21  C5  BGC C   2      14.849   6.634  18.6780  0.00  0.00     0.000 C
ATOM     22  O5  BGC C   2      13.840   6.423  17.7370  0.00  0.00     0.000 O
ATOM     23   O  BGC C   2      14.082   9.508  15.8260  0.00  0.00     0.000 O
ATOM     25  HD  BGC C   2      14.575  10.194  16.0150  0.00  0.00     0.000 HD
ATOM     25   O  BGC C   2      14.701  10.362  18.5300  0.00  0.00     0.000 O
ATOM     27  HD  BGC C   2      15.195  11.048  18.7200  0.00  0.00     0.000 HD
ATOM     27   C  BGC C   2      14.729   5.560  19.7790  0.00  0.00     0.000 C
ATOM     28   O  BGC C   2      13.566   5.778  20.5950  0.00  0.00     0.000 O
ATOM     30  HD  BGC C   2      14.059   6.464  20.7840  0.00  0.00     0.000 HD
BRANCH 17 30
ATOM     30  O4  BGC C   3      12.932   6.932  15.7060  0.00  0.00     0.000 O
BRANCH 30 34
ATOM     31  C1  BGC C   3      12.150   4.643  12.4670  0.00  0.00     0.000 C
ATOM     32  C2  BGC C   3      12.001   3.940  13.8370  0.00  0.00     0.000 C
ATOM     33  C3  BGC C   3      11.966   4.929  14.9500  0.00  0.00     0.000 C
ATOM     34  C4  BGC C   3      13.172   5.861  14.8050  0.00  0.00     0.000 C
ATOM     35  C5  BGC C   3      13.346   6.441  13.3780  0.00  0.00     0.000 C
ATOM     36  O5  BGC C   3      13.333   5.404  12.4300  0.00  0.00     0.000 O
ATOM     37   O  BGC C   3      10.897   3.076  14.0330  0.00  0.00     0.000 O
ATOM     39  HD  BGC C   3      11.416   3.672  14.3870  0.00  0.00     0.000 HD
ATOM     39   O  BGC C   3      11.983   4.242  16.2360  0.00  0.00     0.000 O
ATOM     41  HD  BGC C   3      12.503   4.838  16.5900  0.00  0.00     0.000 HD
ATOM     41   C  BGC C   3      14.652   7.237  13.1490  0.00  0.00     0.000 C
ATOM     42   O  BGC C   3      15.893   6.453  13.2660  0.00  0.00     0.000 O
ATOM     44  HD  BGC C   3      16.413   7.049  13.6200  0.00  0.00     0.000 HD
BRANCH 31 44
ATOM     44  O4  BGC C   4      12.181   3.718  11.4330  0.00  0.00     0.000 O
BRANCH 44 48
ATOM     45  C1  BGC C   4      11.023   2.979   7.5760  0.00  0.00     0.000 C
ATOM     46  C2  BGC C   4      12.187   4.020   7.6310  0.00  0.00     0.000 C
ATOM     47  C3  BGC C   4      12.650   3.902   9.0890  0.00  0.00     0.000 C
ATOM     48  C4  BGC C   4      11.612   4.006  10.1900  0.00  0.00     0.000 C
ATOM     49  C5  BGC C   4      10.582   2.900   9.9130  0.00  0.00     0.000 C
ATOM     50  O5  BGC C   4      10.056   3.017   8.6370  0.00  0.00     0.000 O
ATOM     51   O  BGC C   4      13.437   3.928   6.7380  0.00  0.00     0.000 O
ATOM     53  HD  BGC C   4      14.036   4.508   6.9700  0.00  0.00     0.000 HD
ATOM     53   O  BGC C   4      13.445   5.174   9.2090  0.00  0.00     0.000 O
ATOM     55  HD  BGC C   4      14.044   5.754   9.4410  0.00  0.00     0.000 HD
ATOM     55   C  BGC C   4       9.404   3.000  10.8460  0.00  0.00     0.000 C
ATOM     56   O  BGC C   4       8.718   4.258  10.8460  0.00  0.00     0.000 O
ATOM     58  HD  BGC C   4       9.318   4.838  11.0780  0.00  0.00     0.000 HD
BRANCH 45 58
ATOM     58  O4  BGC C   5      10.281   3.080   6.3970  0.00  0.00     0.000 O
BRANCH 58 62
ATOM     59  C1  BGC C   5       7.834   1.833   5.0530  0.00  0.00     0.000 C
ATOM     60  C2  BGC C   5       8.342   0.843   5.9780  0.00  0.00     0.000 C
ATOM     61  C3  BGC C   5       9.859   0.680   5.9300  0.00  0.00     0.000 C
ATOM     62  C4  BGC C   5      10.480   1.989   5.4640  0.00  0.00     0.000 C
ATOM     63  C5  BGC C   5       9.671   2.475   4.2840  0.00  0.00     0.000 C
ATOM     64  O5  BGC C   5       8.391   1.889   4.0540  0.00  0.00     0.000 O
ATOM     65   O  BGC C   5      10.777   1.075   2.6560  0.00  0.00     0.000 O
ATOM     67  HD  BGC C   5      10.744   1.848   3.0440  0.00  0.00     0.000 HD
ATOM     67   O  BGC C   5      10.777   1.075   2.6560  0.00  0.00     0.000 O
ATOM     69  HD  BGC C   5      10.744   1.848   3.0440  0.00  0.00     0.000 HD
ENDBRANCH 58 62
ENDBRANCH 45 58
ENDBRANCH 44 48
ENDBRANCH 31 44
ENDBRANCH 30 34
ENDBRANCH 17 30
ENDBRANCH 16 20
ENDBRANCH 1 16
TORSDOF 8
ENDMDL
MODEL 69
REMARK VINA RESULT:      -1.9      9.327     13.645
ROOT
ATOM      1  C1  BGC C   1       9.267  14.511  16.3900  0.00  0.00     0.000 C
ATOM      2  C2  BGC C   1       8.196  14.697  17.4630  0.00  0.00     0.000 C
ATOM      3  C3  BGC C   1       8.291  16.096  18.0590  0.00  0.00     0.000 C
ATOM      4  C4  BGC C   1       9.705  16.442  18.4940  0.00  0.00     0.000 C
ATOM      5  C5  BGC C   1      10.701  16.067  17.4000  0.00  0.00     0.000 C
ATOM      6  O5  BGC C   1      10.520  14.784  16.8910  0.00  0.00     0.000 O
ATOM      7   O  BGC C   1       6.944  14.512  16.8480  0.00  0.00     0.000 O
ATOM      9  HD  BGC C   1       7.110  14.472  17.6970  0.00  0.00     0.000 HD
ATOM      9   O  BGC C   1       7.359  16.181  19.1460  0.00  0.00     0.000 O
ATOM     11  HD  BGC C   1       7.525  16.142  19.9950  0.00  0.00     0.000 HD
ATOM     11   O  BGC C   1       9.728  17.842  18.7490  0.00  0.00     0.000 O
ATOM     13  HD  BGC C   1       9.894  17.802  19.5980  0.00  0.00     0.000 HD
ATOM     13   O  BGC C   1      12.361  15.136  18.9850  0.00  0.00     0.000 O
ATOM     15  HD  BGC C   1      12.527  15.096  19.8340  0.00  0.00     0.000 HD
ATOM     15   C  BGC C   1      12.120  16.167  17.9880  0.00  0.00     0.000 C
ENDROOT
BRANCH 1 16
ATOM     16  O4  BGC C   2       9.270  13.163  15.9850  0.00  0.00     0.000 O
BRANCH 16 20
ATOM     17  C1  BGC C   2      10.073  11.036  12.5930  0.00  0.00     0.000 C
ATOM     18  C2  BGC C   2      11.270  11.357  13.4750  0.00  0.00     0.000 C
ATOM     19  C3  BGC C   2      10.816  11.815  14.8540  0.00  0.00     0.000 C
ATOM     20  C4  BGC C   2       9.817  12.913  14.7120  0.00  0.00     0.000 C
ATOM     21  C5  BGC C   2       8.701  12.518  13.7490  0.00  0.00     0.000 C
ATOM     22  O5  BGC C   2       9.222  12.142  12.5100  0.00  0.00     0.000 O
ATOM     23   O  BGC C   2      12.095  10.187  13.5800  0.00  0.00     0.000 O
ATOM     25  HD  BGC C   2      12.388  10.103  14.3910  0.00  0.00     0.000 HD
ATOM     25   O  BGC C   2      11.944  12.281  15.5850  0.00  0.00     0.000 O
ATOM     27  HD  BGC C   2      12.236  12.196  16.3960  0.00  0.00     0.000 HD
ATOM     27   C  BGC C   2       7.628  13.603  13.5240  0.00  0.00     0.000 C
ATOM     28   O  BGC C   2       8.221  14.844  13.1070  0.00  0.00     0.000 O
ATOM     30  HD  BGC C   2       8.513  14.759  13.9180  0.00  0.00     0.000 HD
BRANCH 17 30
ATOM     30  O4  BGC C   3      10.524  10.717  11.2940  0.00  0.00     0.000 O
BRANCH 30 34
ATOM     31  C1  BGC C   3       9.619   8.319   8.1680  0.00  0.00     0.000 C
ATOM     32  C2  BGC C   3       8.875   9.675   8.2110  0.00  0.00     0.000 C
ATOM     33  C3  BGC C   3       9.516  10.611   9.1760  0.00  0.00     0.000 C
ATOM     34  C4  BGC C   3       9.670   9.891  10.5180  0.00  0.00     0.000 C
ATOM     35  C5  BGC C   3      10.308   8.483  10.4020  0.00  0.00     0.000 C
ATOM     36  O5  BGC C   3       9.624   7.719   9.4400  0.00  0.00     0.000 O
ATOM     37   O  BGC C   3       8.715  10.392   7.0020  0.00  0.00     0.000 O
ATOM     39  HD  BGC C   3       8.868  10.441   7.8530  0.00  0.00     0.000 HD
ATOM     39   O  BGC C   3       8.712  11.819   9.3160  0.00  0.00     0.000 O
ATOM     41  HD  BGC C   3       8.865  11.868  10.1670  0.00  0.00     0.000 HD
ATOM     41   C  BGC C   3      10.311   7.655  11.7080  0.00  0.00     0.000 C
ATOM     42   O  BGC C   3       8.981   7.296  12.2270  0.00  0.00     0.000 O
ATOM     44  HD  BGC C   3       9.134   7.345  13.0780  0.00  0.00     0.000 HD
BRANCH 31 44
ATOM     44  O4  BGC C   4       9.019   7.450   7.2670  0.00  0.00     0.000 O
BRANCH 44 48
ATOM     45  C1  BGC C   4       9.719   4.624   4.3880  0.00  0.00     0.000 C
ATOM     46  C2  BGC C   4       9.928   4.039   5.8220  0.00  0.00     0.000 C
ATOM     47  C3  BGC C   4       9.324   5.140   6.7050  0.00  0.00     0.000 C
ATOM     48  C4  BGC C   4       9.783   6.569   6.4970  0.00  0.00     0.000 C
ATOM     49  C5  BGC C   4       9.487   6.905   5.0260  0.00  0.00     0.000 C
ATOM     50  O5  BGC C   4      10.093   5.994   4.1770  0.00  0.00     0.000 O
ATOM     51   O  BGC C   4       9.325   2.697   6.2750  0.00  0.00     0.000 O
ATOM     53  HD  BGC C   4       9.433   2.572   7.1250  0.00  0.00     0.000 HD
ATOM     53   O  BGC C   4       9.911   4.752   8.0340  0.00  0.00     0.000 O
ATOM     55  HD  BGC C   4      10.018   4.626   8.8840  0.00  0.00     0.000 HD
ATOM     55   C  BGC C   4      10.050   8.249   4.6460  0.00  0.00     0.000 C
ATOM     56   O  BGC C   4      11.455   8.419   4.8680  0.00  0.00     0.000 O
ATOM     58  HD  BGC C   4      11.562   8.293   5.7180  0.00  0.00     0.000 HD
BRANCH 45 58
ATOM     58  O4  BGC C   5      10.413   3.898   3.4170  0.00  0.00     0.000 O
BRANCH 58 62
ATOM     59  C1  BGC C   5      12.321   2.732   1.3310  0.00  0.00     0.000 C
ATOM     60  C2  BGC C   5      11.830   1.614   2.1060  0.00  0.00     0.000 C
ATOM     61  C3  BGC C   5      11.824   1.867   3.6110  0.00  0.00     0.000 C
ATOM     62  C4  BGC C   5      11.684   3.362   3.8590  0.00  0.00     0.000 C
ATOM     63  C5  BGC C   5      12.632   4.064   2.9140  0.00  0.00     0.000 C
ATOM     64  O5  BGC C   5      13.170   3.322   1.8220  0.00  0.00     0.000 O
ATOM     65   O  BGC C   5      14.594   3.761   4.2900  0.00  0.00     0.000 O
ATOM     67  HD  BGC C   5      13.935   4.278   4.0720  0.00  0.00     0.000 HD
ATOM     67   O  BGC C   5      14.594   3.761   4.2900  0.00  0.00     0.000 O
ATOM     69  HD  BGC C   5      13.935   4.278   4.0720  0.00  0.00     0.000 HD
ENDBRANCH 58 62
ENDBRANCH 45 58
ENDBRANCH 44 48
ENDBRANCH 31 44
ENDBRANCH 30 34
ENDBRANCH 17 30
ENDBRANCH 16 20
ENDBRANCH 1 16
TORSDOF 8
ENDMDL
MODEL 70
REMARK VINA RESULT:      -1.9      8.772     16.264
ROOT
ATOM      1  C1  BGC C   1      22.462   9.761  18.4280  0.00  0.00     0.000 C
ATOM      2  C2  BGC C   1      22.969   9.002  19.6540  0.00  0.00     0.000 C
ATOM      3  C3  BGC C   1      23.227   9.974  20.7990  0.00  0.00     0.000 C
ATOM      4  C4  BGC C   1      24.084  11.153  20.3710  0.00  0.00     0.000 C
ATOM      5  C5  BGC C   1      23.571  11.729  19.0540  0.00  0.00     0.000 C
ATOM      6  O5  BGC C   1      23.332  10.768  18.0760  0.00  0.00     0.000 O
ATOM      7   O  BGC C   1      21.977   8.072  20.0160  0.00  0.00     0.000 O
ATOM      9  HD  BGC C   1      22.810   8.053  20.2510  0.00  0.00     0.000 HD
ATOM      9   O  BGC C   1      23.823   9.241  21.8780  0.00  0.00     0.000 O
ATOM     11  HD  BGC C   1      24.656   9.222  22.1140  0.00  0.00     0.000 HD
ATOM     11   O  BGC C   1      24.009  12.118  21.4150  0.00  0.00     0.000 O
ATOM     13  HD  BGC C   1      24.842  12.099  21.6510  0.00  0.00     0.000 HD
ATOM     13   O  BGC C   1      25.838  12.040  18.1040  0.00  0.00     0.000 O
ATOM     15  HD  BGC C   1      26.671  12.021  18.3400  0.00  0.00     0.000 HD
ATOM     15   C  BGC C   1      24.622  12.720  18.5220  0.00  0.00     0.000 C
ENDROOT
BRANCH 1 16
ATOM     16  O4  BGC C   2      22.401   8.870  17.3400  0.00  0.00     0.000 O
BRANCH 16 20
ATOM     17  C1  BGC C   2      20.055   8.247  14.0560  0.00  0.00     0.000 C
ATOM     18  C2  BGC C   2      21.109   9.335  13.9230  0.00  0.00     0.000 C
ATOM     19  C3  BGC C   2      22.137   9.229  15.0400  0.00  0.00     0.000 C
ATOM     20  C4  BGC C   2      21.440   9.176  16.3580  0.00  0.00     0.000 C
ATOM     21  C5  BGC C   2      20.353   8.106  16.3600  0.00  0.00     0.000 C
ATOM     22  O5  BGC C   2      19.450   8.310  15.3150  0.00  0.00     0.000 O
ATOM     23   O  BGC C   2      21.745   9.210  12.6420  0.00  0.00     0.000 O
ATOM     25  HD  BGC C   2      22.596   9.348  12.7190  0.00  0.00     0.000 HD
ATOM     25   O  BGC C   2      22.995  10.363  14.9940  0.00  0.00     0.000 O
ATOM     27  HD  BGC C   2      23.846  10.502  15.0710  0.00  0.00     0.000 HD
ATOM     27   C  BGC C   2      19.562   7.991  17.6800  0.00  0.00     0.000 C
ATOM     28   O  BGC C   2      19.005   9.258  18.0650  0.00  0.00     0.000 O
ATOM     30  HD  BGC C   2      19.857   9.396  18.1410  0.00  0.00     0.000 HD
BRANCH 17 30
ATOM     30  O4  BGC C   3      19.063   8.437  13.0700  0.00  0.00     0.000 O
BRANCH 30 34
ATOM     31  C1  BGC C   3      16.705   6.351  10.5350  0.00  0.00     0.000 C
ATOM     32  C2  BGC C   3      16.205   6.439  11.9960  0.00  0.00     0.000 C
ATOM     33  C3  BGC C   3      16.936   7.494  12.7530  0.00  0.00     0.000 C
ATOM     34  C4  BGC C   3      18.438   7.262  12.5740  0.00  0.00     0.000 C
ATOM     35  C5  BGC C   3      18.868   7.055  11.0990  0.00  0.00     0.000 C
ATOM     36  O5  BGC C   3      18.080   6.056  10.5010  0.00  0.00     0.000 O
ATOM     37   O  BGC C   3      14.826   6.666  12.2220  0.00  0.00     0.000 O
ATOM     39  HD  BGC C   3      15.635   6.834  12.4810  0.00  0.00     0.000 HD
ATOM     39   O  BGC C   3      16.561   7.455  14.1610  0.00  0.00     0.000 O
ATOM     41  HD  BGC C   3      17.370   7.623  14.4200  0.00  0.00     0.000 HD
ATOM     41   C  BGC C   3      20.343   6.639  10.8980  0.00  0.00     0.000 C
ATOM     42   O  BGC C   3      20.707   5.328  11.4620  0.00  0.00     0.000 O
ATOM     44  HD  BGC C   3      21.516   5.496  11.7210  0.00  0.00     0.000 HD
BRANCH 31 44
ATOM     44  O4  BGC C   4      16.020   5.368   9.8330  0.00  0.00     0.000 O
BRANCH 44 48
ATOM     45  C1  BGC C   4      14.387   4.369   6.2140  0.00  0.00     0.000 C
ATOM     46  C2  BGC C   4      15.947   4.413   6.1410  0.00  0.00     0.000 C
ATOM     47  C3  BGC C   4      16.332   4.489   7.6250  0.00  0.00     0.000 C
ATOM     48  C4  BGC C   4      15.677   5.547   8.4900  0.00  0.00     0.000 C
ATOM     49  C5  BGC C   4      14.162   5.305   8.3900  0.00  0.00     0.000 C
ATOM     50  O5  BGC C   4      13.742   5.324   7.0710  0.00  0.00     0.000 O
ATOM     51   O  BGC C   4      16.788   3.295   5.5000  0.00  0.00     0.000 O
ATOM     53  HD  BGC C   4      17.634   3.412   5.6430  0.00  0.00     0.000 HD
ATOM     53   O  BGC C   4      17.759   4.947   7.4950  0.00  0.00     0.000 O
ATOM     55  HD  BGC C   4      18.605   5.064   7.6390  0.00  0.00     0.000 HD
ATOM     55   C  BGC C   4      13.385   6.396   9.0780  0.00  0.00     0.000 C
ATOM     56   O  BGC C   4      13.654   7.729   8.6260  0.00  0.00     0.000 O
ATOM     58  HD  BGC C   4      14.500   7.845   8.7690  0.00  0.00     0.000 HD
BRANCH 45 58
ATOM     58  O4  BGC C   5      13.796   4.540   4.9600  0.00  0.00     0.000 O
BRANCH 58 62
ATOM     59  C1  BGC C   5      13.025   4.309   2.0100  0.00  0.00     0.000 C
ATOM     60  C2  BGC C   5      11.828   4.713   2.7150  0.00  0.00     0.000 C
ATOM     61  C3  BGC C   5      11.586   3.937   4.0070  0.00  0.00     0.000 C
ATOM     62  C4  BGC C   5      12.924   3.458   4.5510  0.00  0.00     0.000 C
ATOM     63  C5  BGC C   5      13.704   2.890   3.3890  0.00  0.00     0.000 C
ATOM     64  O5  BGC C   5      13.263   3.190   2.0660  0.00  0.00     0.000 O
ATOM     65   O  BGC C   5      12.627   0.728   3.4240  0.00  0.00     0.000 O
ATOM     67  HD  BGC C   5      13.298   1.208   3.6870  0.00  0.00     0.000 HD
ATOM     67   O  BGC C   5      12.627   0.728   3.4240  0.00  0.00     0.000 O
ATOM     69  HD  BGC C   5      13.298   1.208   3.6870  0.00  0.00     0.000 HD
ENDBRANCH 58 62
ENDBRANCH 45 58
ENDBRANCH 44 48
ENDBRANCH 31 44
ENDBRANCH 30 34
ENDBRANCH 17 30
ENDBRANCH 16 20
ENDBRANCH 1 16
TORSDOF 8
ENDMDL
MODEL 71
REMARK VINA RESULT:      -1.8      6.246     15.653
ROOT
ATOM      1  C1  BGC C   1      25.821   5.760   2.6940  0.00  0.00     0.000 C
ATOM      2  C2  BGC C   1      27.126   5.982   3.4590  0.00  0.00     0.000 C
ATOM      3  C3  BGC C   1      28.316   5.800   2.5240  0.00  0.00     0.000 C
ATOM      4  C4  BGC C   1      28.241   4.499   1.7430  0.00  0.00     0.000 C
ATOM      5  C5  BGC C   1      26.844   4.315   1.1580  0.00  0.00     0.000 C
ATOM      6  O5  BGC C   1      25.817   4.532   2.0730  0.00  0.00     0.000 O
ATOM      7   O  BGC C   1      27.099   7.294   3.9670  0.00  0.00     0.000 O
ATOM      9  HD  BGC C   1      27.607   6.648   4.2400  0.00  0.00     0.000 HD
ATOM      9   O  BGC C   1      29.514   5.888   3.3080  0.00  0.00     0.000 O
ATOM     11  HD  BGC C   1      30.021   5.241   3.5800  0.00  0.00     0.000 HD
ATOM     11   O  BGC C   1      29.221   4.579   0.7140  0.00  0.00     0.000 O
ATOM     13  HD  BGC C   1      29.728   3.932   0.9870  0.00  0.00     0.000 HD
ATOM     13   O  BGC C   1      26.740   1.902   1.7100  0.00  0.00     0.000 O
ATOM     15  HD  BGC C   1      27.248   1.255   1.9830  0.00  0.00     0.000 HD
ATOM     15   C  BGC C   1      26.732   2.873   0.6280  0.00  0.00     0.000 C
ENDROOT
BRANCH 1 16
ATOM     16  O4  BGC C   2      24.755   5.759   3.6140  0.00  0.00     0.000 O
BRANCH 16 20
ATOM     17  C1  BGC C   2      20.774   6.669   3.6110  0.00  0.00     0.000 C
ATOM     18  C2  BGC C   2      21.133   5.255   3.1810  0.00  0.00     0.000 C
ATOM     19  C3  BGC C   2      22.568   4.922   3.5650  0.00  0.00     0.000 C
ATOM     20  C4  BGC C   2      23.480   5.991   3.0640  0.00  0.00     0.000 C
ATOM     21  C5  BGC C   2      22.989   7.373   3.4850  0.00  0.00     0.000 C
ATOM     22  O5  BGC C   2      21.676   7.586   3.0610  0.00  0.00     0.000 O
ATOM     23   O  BGC C   2      20.221   4.336   3.8010  0.00  0.00     0.000 O
ATOM     25  HD  BGC C   2      20.646   3.630   4.0660  0.00  0.00     0.000 HD
ATOM     25   O  BGC C   2      22.928   3.672   2.9890  0.00  0.00     0.000 O
ATOM     27  HD  BGC C   2      23.353   2.966   3.2540  0.00  0.00     0.000 HD
ATOM     27   C  BGC C   2      23.862   8.546   2.9940  0.00  0.00     0.000 C
ATOM     28   O  BGC C   2      24.041   8.501   1.5690  0.00  0.00     0.000 O
ATOM     30  HD  BGC C   2      24.466   7.794   1.8340  0.00  0.00     0.000 HD
BRANCH 17 30
ATOM     30  O4  BGC C   3      19.478   6.981   3.1480  0.00  0.00     0.000 O
BRANCH 30 34
ATOM     31  C1  BGC C   3      16.173   9.048   4.2180  0.00  0.00     0.000 C
ATOM     32  C2  BGC C   3      17.298   9.878   3.5540  0.00  0.00     0.000 C
ATOM     33  C3  BGC C   3      18.299   8.996   2.8930  0.00  0.00     0.000 C
ATOM     34  C4  BGC C   3      18.756   7.941   3.9040  0.00  0.00     0.000 C
ATOM     35  C5  BGC C   3      17.589   7.227   4.6320  0.00  0.00     0.000 C
ATOM     36  O5  BGC C   3      16.708   8.175   5.1820  0.00  0.00     0.000 O
ATOM     37   O  BGC C   3      16.936  10.859   2.6010  0.00  0.00     0.000 O
ATOM     39  HD  BGC C   3      17.508  10.248   2.8230  0.00  0.00     0.000 HD
ATOM     39   O  BGC C   3      19.427   9.786   2.4120  0.00  0.00     0.000 O
ATOM     41  HD  BGC C   3      19.999   9.175   2.6340  0.00  0.00     0.000 HD
ATOM     41   C  BGC C   3      18.011   6.289   5.7860  0.00  0.00     0.000 C
ATOM     42   O  BGC C   3      18.662   6.954   6.9280  0.00  0.00     0.000 O
ATOM     44  HD  BGC C   3      19.234   6.343   7.1500  0.00  0.00     0.000 HD
BRANCH 31 44
ATOM     44  O4  BGC C   4      15.241   9.874   4.8320  0.00  0.00     0.000 O
BRANCH 44 48
ATOM     45  C1  BGC C   4      11.255  10.438   5.5760  0.00  0.00     0.000 C
ATOM     46  C2  BGC C   4      11.829   9.255   6.4190  0.00  0.00     0.000 C
ATOM     47  C3  BGC C   4      13.341   9.430   6.2240  0.00  0.00     0.000 C
ATOM     48  C4  BGC C   4      13.879   9.563   4.8130  0.00  0.00     0.000 C
ATOM     49  C5  BGC C   4      13.163  10.774   4.1940  0.00  0.00     0.000 C
ATOM     50  O5  BGC C   4      11.787  10.623   4.2560  0.00  0.00     0.000 O
ATOM     51   O  BGC C   4      11.571   9.099   7.9290  0.00  0.00     0.000 O
ATOM     53  HD  BGC C   4      12.050   8.463   8.2690  0.00  0.00     0.000 HD
ATOM     53   O  BGC C   4      13.816   8.076   6.6750  0.00  0.00     0.000 O
ATOM     55  HD  BGC C   4      14.296   7.440   7.0160  0.00  0.00     0.000 HD
ATOM     55   C  BGC C   4      13.489  10.916   2.7300  0.00  0.00     0.000 C
ATOM     56   O  BGC C   4      13.209   9.769   1.9190  0.00  0.00     0.000 O
ATOM     58  HD  BGC C   4      13.689   9.133   2.2590  0.00  0.00     0.000 HD
BRANCH 45 58
ATOM     58  O4  BGC C   5       9.872  10.341   5.4060  0.00  0.00     0.000 O
BRANCH 58 62
ATOM     59  C1  BGC C   5       7.866  11.565   7.3640  0.00  0.00     0.000 C
ATOM     60  C2  BGC C   5       7.098  11.093   6.2330  0.00  0.00     0.000 C
ATOM     61  C3  BGC C   5       7.714  11.447   4.8820  0.00  0.00     0.000 C
ATOM     62  C4  BGC C   5       9.220  11.585   5.0480  0.00  0.00     0.000 C
ATOM     63  C5  BGC C   5       9.461  12.400   6.2970  0.00  0.00     0.000 C
ATOM     64  O5  BGC C   5       8.378  12.577   7.2080  0.00  0.00     0.000 O
ATOM     65   O  BGC C   5       9.126  14.546   5.2390  0.00  0.00     0.000 O
ATOM     67  HD  BGC C   5       9.692  13.938   5.4820  0.00  0.00     0.000 HD
ATOM     67   O  BGC C   5       9.126  14.546   5.2390  0.00  0.00     0.000 O
ATOM     69  HD  BGC C   5       9.692  13.938   5.4820  0.00  0.00     0.000 HD
ENDBRANCH 58 62
ENDBRANCH 45 58
ENDBRANCH 44 48
ENDBRANCH 31 44
ENDBRANCH 30 34
ENDBRANCH 17 30
ENDBRANCH 16 20
ENDBRANCH 1 16
TORSDOF 8
ENDMDL
MODEL 72
REMARK VINA RESULT:      -1.8     10.441     17.536
ROOT
ATOM      1  C1  BGC C   1      22.375  19.249  12.9020  0.00  0.00     0.000 C
ATOM      2  C2  BGC C   1      21.841  19.976  14.1360  0.00  0.00     0.000 C
ATOM      3  C3  BGC C   1      22.633  21.256  14.3720  0.00  0.00     0.000 C
ATOM      4  C4  BGC C   1      24.133  21.013  14.3660  0.00  0.00     0.000 C
ATOM      5  C5  BGC C   1      24.523  20.147  13.1720  0.00  0.00     0.000 C
ATOM      6  O5  BGC C   1      23.726  19.016  13.0140  0.00  0.00     0.000 O
ATOM      7   O  BGC C   1      20.486  20.276  13.8970  0.00  0.00     0.000 O
ATOM      9  HD  BGC C   1      20.880  20.255  14.6680  0.00  0.00     0.000 HD
ATOM      9   O  BGC C   1      22.188  21.833  15.6070  0.00  0.00     0.000 O
ATOM     11  HD  BGC C   1      22.581  21.812  16.3780  0.00  0.00     0.000 HD
ATOM     11   O  BGC C   1      24.757  22.291  14.2970  0.00  0.00     0.000 O
ATOM     13  HD  BGC C   1      25.150  22.269  15.0690  0.00  0.00     0.000 HD
ATOM     13   O  BGC C   1      26.116  18.764  14.4730  0.00  0.00     0.000 O
ATOM     15  HD  BGC C   1      26.509  18.743  15.2440  0.00  0.00     0.000 HD
ATOM     15   C  BGC C   1      25.983  19.696  13.3630  0.00  0.00     0.000 C
ENDROOT
BRANCH 1 16
ATOM     16  O4  BGC C   2      21.746  17.993  12.8120  0.00  0.00     0.000 O
BRANCH 16 20
ATOM     17  C1  BGC C   2      20.745  15.328   9.8840  0.00  0.00     0.000 C
ATOM     18  C2  BGC C   2      22.153  15.203  10.4440  0.00  0.00     0.000 C
ATOM     19  C3  BGC C   2      22.287  15.978  11.7470  0.00  0.00     0.000 C
ATOM     20  C4  BGC C   2      21.804  17.375  11.5480  0.00  0.00     0.000 C
ATOM     21  C5  BGC C   2      20.417  17.391  10.9120  0.00  0.00     0.000 C
ATOM     22  O5  BGC C   2      20.410  16.676   9.7130  0.00  0.00     0.000 O
ATOM     23   O  BGC C   2      22.445  13.813  10.6550  0.00  0.00     0.000 O
ATOM     25  HD  BGC C   2      22.877  13.710  11.3980  0.00  0.00     0.000 HD
ATOM     25   O  BGC C   2      23.653  15.993  12.1430  0.00  0.00     0.000 O
ATOM     27  HD  BGC C   2      24.085  15.889  12.8870  0.00  0.00     0.000 HD
ATOM     27   C  BGC C   2      19.842  18.798  10.6500  0.00  0.00     0.000 C
ATOM     28   O  BGC C   2      20.749  19.594   9.8710  0.00  0.00     0.000 O
ATOM     30  HD  BGC C   2      21.181  19.491  10.6150  0.00  0.00     0.000 HD
BRANCH 17 30
ATOM     30  O4  BGC C   3      20.684  14.688   8.6280  0.00  0.00     0.000 O
BRANCH 30 34
ATOM     31  C1  BGC C   3      18.167  12.484   6.3590  0.00  0.00     0.000 C
ATOM     32  C2  BGC C   3      18.014  14.019   6.2340  0.00  0.00     0.000 C
ATOM     33  C3  BGC C   3      19.185  14.727   6.8210  0.00  0.00     0.000 C
ATOM     34  C4  BGC C   3      19.413  14.192   8.2370  0.00  0.00     0.000 C
ATOM     35  C5  BGC C   3      19.433  12.644   8.3240  0.00  0.00     0.000 C
ATOM     36  O5  BGC C   3      18.288  12.110   7.7090  0.00  0.00     0.000 O
ATOM     37   O  BGC C   3      17.814  14.572   4.9470  0.00  0.00     0.000 O
ATOM     39  HD  BGC C   3      18.194  14.665   5.7190  0.00  0.00     0.000 HD
ATOM     39   O  BGC C   3      18.950  16.166   6.8340  0.00  0.00     0.000 O
ATOM     41  HD  BGC C   3      19.330  16.259   7.6060  0.00  0.00     0.000 HD
ATOM     41   C  BGC C   3      19.478  12.069   9.7590  0.00  0.00     0.000 C
ATOM     42   O  BGC C   3      18.298  12.362  10.5890  0.00  0.00     0.000 O
ATOM     44  HD  BGC C   3      18.678  12.455  11.3620  0.00  0.00     0.000 HD
BRANCH 31 44
ATOM     44  O4  BGC C   4      17.073  11.828   5.8100  0.00  0.00     0.000 O
BRANCH 44 48
ATOM     45  C1  BGC C   4      15.536   8.149   4.8800  0.00  0.00     0.000 C
ATOM     46  C2  BGC C   4      15.250   8.526   6.3690  0.00  0.00     0.000 C
ATOM     47  C3  BGC C   4      15.620  10.015   6.3970  0.00  0.00     0.000 C
ATOM     48  C4  BGC C   4      16.971  10.436   5.8530  0.00  0.00     0.000 C
ATOM     49  C5  BGC C   4      17.018   9.948   4.3970  0.00  0.00     0.000 C
ATOM     50  O5  BGC C   4      16.785   8.584   4.3210  0.00  0.00     0.000 O
ATOM     51   O  BGC C   4      13.861   8.381   7.0170  0.00  0.00     0.000 O
ATOM     53  HD  BGC C   4      13.839   8.739   7.8050  0.00  0.00     0.000 HD
ATOM     53   O  BGC C   4      15.738  10.221   7.8820  0.00  0.00     0.000 O
ATOM     55  HD  BGC C   4      15.716  10.579   8.6700  0.00  0.00     0.000 HD
ATOM     55   C  BGC C   4      18.381  10.160   3.7900  0.00  0.00     0.000 C
ATOM     56   O  BGC C   4      19.474   9.561   4.4960  0.00  0.00     0.000 O
ATOM     58  HD  BGC C   4      19.452   9.919   5.2840  0.00  0.00     0.000 HD
BRANCH 45 58
ATOM     58  O4  BGC C   5      15.499   6.769   4.6690  0.00  0.00     0.000 O
BRANCH 58 62
ATOM     59  C1  BGC C   5      15.110   3.819   3.9640  0.00  0.00     0.000 C
ATOM     60  C2  BGC C   5      16.507   4.115   3.7300  0.00  0.00     0.000 C
ATOM     61  C3  BGC C   5      16.740   5.429   2.9900  0.00  0.00     0.000 C
ATOM     62  C4  BGC C   5      15.579   6.370   3.2780  0.00  0.00     0.000 C
ATOM     63  C5  BGC C   5      14.306   5.567   3.1410  0.00  0.00     0.000 C
ATOM     64  O5  BGC C   5      14.402   4.144   3.1250  0.00  0.00     0.000 O
ATOM     65   O  BGC C   5      14.182   5.742   0.7350  0.00  0.00     0.000 O
ATOM     67  HD  BGC C   5      13.938   6.068   1.4990  0.00  0.00     0.000 HD
ATOM     67   O  BGC C   5      14.182   5.742   0.7350  0.00  0.00     0.000 O
ATOM     69  HD  BGC C   5      13.938   6.068   1.4990  0.00  0.00     0.000 HD
ENDBRANCH 58 62
ENDBRANCH 45 58
ENDBRANCH 44 48
ENDBRANCH 31 44
ENDBRANCH 30 34
ENDBRANCH 17 30
ENDBRANCH 16 20
ENDBRANCH 1 16
TORSDOF 8
ENDMDL
MODEL 73
REMARK VINA RESULT:      -1.8      7.975     20.536
ROOT
ATOM      1  C1  BGC C   1      35.155   6.786   8.8950  0.00  0.00     0.000 C
ATOM      2  C2  BGC C   1      35.823   8.148   9.0770  0.00  0.00     0.000 C
ATOM      3  C3  BGC C   1      37.296   8.062   8.6950  0.00  0.00     0.000 C
ATOM      4  C4  BGC C   1      38.000   6.903   9.3800  0.00  0.00     0.000 C
ATOM      5  C5  BGC C   1      37.162   5.633   9.2630  0.00  0.00     0.000 C
ATOM      6  O5  BGC C   1      35.823   5.811   9.6000  0.00  0.00     0.000 O
ATOM      7   O  BGC C   1      35.154   9.062   8.2410  0.00  0.00     0.000 O
ATOM      9  HD  BGC C   1      35.657   9.258   8.9180  0.00  0.00     0.000 HD
ATOM      9   O  BGC C   1      37.910   9.321   9.0050  0.00  0.00     0.000 O
ATOM     11  HD  BGC C   1      38.413   9.517   9.6820  0.00  0.00     0.000 HD
ATOM     11   O  BGC C   1      39.259   6.746   8.7330  0.00  0.00     0.000 O
ATOM     13  HD  BGC C   1      39.762   6.942   9.4100  0.00  0.00     0.000 HD
ATOM     13   O  BGC C   1      37.589   4.928  11.6000  0.00  0.00     0.000 O
ATOM     15  HD  BGC C   1      38.092   5.124  12.2770  0.00  0.00     0.000 HD
ATOM     15   C  BGC C   1      37.766   4.572  10.2010  0.00  0.00     0.000 C
ENDROOT
BRANCH 1 16
ATOM     16  O4  BGC C   2      33.849   6.851   9.4180  0.00  0.00     0.000 O
BRANCH 16 20
ATOM     17  C1  BGC C   2      30.191   5.210   8.6440  0.00  0.00     0.000 C
ATOM     18  C2  BGC C   2      31.138   4.360   9.4750  0.00  0.00     0.000 C
ATOM     19  C3  BGC C   2      32.296   5.197  10.0000  0.00  0.00     0.000 C
ATOM     20  C4  BGC C   2      32.930   5.937   8.8700  0.00  0.00     0.000 C
ATOM     21  C5  BGC C   2      31.885   6.694   8.0560  0.00  0.00     0.000 C
ATOM     22  O5  BGC C   2      30.886   5.831   7.6010  0.00  0.00     0.000 O
ATOM     23   O  BGC C   2      30.405   3.779  10.5640  0.00  0.00     0.000 O
ATOM     25  HD  BGC C   2      30.883   3.796  11.2860  0.00  0.00     0.000 HD
ATOM     25   O  BGC C   2      33.253   4.341  10.6120  0.00  0.00     0.000 O
ATOM     27  HD  BGC C   2      33.730   4.358  11.3340  0.00  0.00     0.000 HD
ATOM     27   C  BGC C   2      32.447   7.475   6.8500  0.00  0.00     0.000 C
ATOM     28   O  BGC C   2      33.218   6.621   5.9890  0.00  0.00     0.000 O
ATOM     30  HD  BGC C   2      33.695   6.639   6.7120  0.00  0.00     0.000 HD
BRANCH 17 30
ATOM     30  O4  BGC C   3      29.190   4.384   8.0880  0.00  0.00     0.000 O
BRANCH 30 34
ATOM     31  C1  BGC C   3      25.658   4.705   6.1480  0.00  0.00     0.000 C
ATOM     32  C2  BGC C   3      26.908   4.557   5.2470  0.00  0.00     0.000 C
ATOM     33  C3  BGC C   3      28.088   4.103   6.0340  0.00  0.00     0.000 C
ATOM     34  C4  BGC C   3      28.244   5.025   7.2450  0.00  0.00     0.000 C
ATOM     35  C5  BGC C   3      26.932   5.239   8.0420  0.00  0.00     0.000 C
ATOM     36  O5  BGC C   3      25.899   5.636   7.1750  0.00  0.00     0.000 O
ATOM     37   O  BGC C   3      26.825   3.706   4.1190  0.00  0.00     0.000 O
ATOM     39  HD  BGC C   3      27.319   3.993   4.7700  0.00  0.00     0.000 HD
ATOM     39   O  BGC C   3      29.285   4.121   5.2010  0.00  0.00     0.000 O
ATOM     41  HD  BGC C   3      29.779   4.408   5.8520  0.00  0.00     0.000 HD
ATOM     41   C  BGC C   3      27.009   6.304   9.1600  0.00  0.00     0.000 C
ATOM     42   O  BGC C   3      27.261   7.680   8.6990  0.00  0.00     0.000 O
ATOM     44  HD  BGC C   3      27.755   7.967   9.3490  0.00  0.00     0.000 HD
BRANCH 31 44
ATOM     44  O4  BGC C   4      24.560   5.127   5.4110  0.00  0.00     0.000 O
BRANCH 44 48
ATOM     45  C1  BGC C   4      20.508   4.757   4.9530  0.00  0.00     0.000 C
ATOM     46  C2  BGC C   4      20.863   5.646   6.1880  0.00  0.00     0.000 C
ATOM     47  C3  BGC C   4      22.362   5.896   5.9800  0.00  0.00     0.000 C
ATOM     48  C4  BGC C   4      23.268   4.705   5.7370  0.00  0.00     0.000 C
ATOM     49  C5  BGC C   4      22.714   3.993   4.4920  0.00  0.00     0.000 C
ATOM     50  O5  BGC C   4      21.382   3.655   4.6650  0.00  0.00     0.000 O
ATOM     51   O  BGC C   4      20.198   7.008   6.4580  0.00  0.00     0.000 O
ATOM     53  HD  BGC C   4      20.584   7.426   7.1110  0.00  0.00     0.000 HD
ATOM     53   O  BGC C   4      22.736   6.370   7.3580  0.00  0.00     0.000 O
ATOM     55  HD  BGC C   4      23.122   6.788   8.0110  0.00  0.00     0.000 HD
ATOM     55   C  BGC C   4      23.432   2.692   4.2390  0.00  0.00     0.000 C
ATOM     56   O  BGC C   4      23.427   1.760   5.3260  0.00  0.00     0.000 O
ATOM     58  HD  BGC C   4      23.813   2.177   5.9800  0.00  0.00     0.000 HD
BRANCH 45 58
ATOM     58  O4  BGC C   5      19.232   4.199   5.0540  0.00  0.00     0.000 O
BRANCH 58 62
ATOM     59  C1  BGC C   5      16.663   3.069   6.2710  0.00  0.00     0.000 C
ATOM     60  C2  BGC C   5      17.625   3.151   7.3480  0.00  0.00     0.000 C
ATOM     61  C3  BGC C   5      19.013   2.640   6.9710  0.00  0.00     0.000 C
ATOM     62  C4  BGC C   5      19.211   2.812   5.4720  0.00  0.00     0.000 C
ATOM     63  C5  BGC C   5      17.950   2.331   4.7940  0.00  0.00     0.000 C
ATOM     64  O5  BGC C   5      16.779   2.156   5.5900  0.00  0.00     0.000 O
ATOM     65   O  BGC C   5      18.534  -0.012   4.8600  0.00  0.00     0.000 O
ATOM     67  HD  BGC C   5      18.541   0.724   4.4050  0.00  0.00     0.000 HD
ATOM     67   O  BGC C   5      18.534  -0.012   4.8600  0.00  0.00     0.000 O
ATOM     69  HD  BGC C   5      18.541   0.724   4.4050  0.00  0.00     0.000 HD
ENDBRANCH 58 62
ENDBRANCH 45 58
ENDBRANCH 44 48
ENDBRANCH 31 44
ENDBRANCH 30 34
ENDBRANCH 17 30
ENDBRANCH 16 20
ENDBRANCH 1 16
TORSDOF 8
ENDMDL
MODEL 74
REMARK VINA RESULT:      -1.7      8.969     20.277
ROOT
ATOM      1  C1  BGC C   1      33.294  12.750   9.8210  0.00  0.00     0.000 C
ATOM      2  C2  BGC C   1      34.685  13.053   9.2640  0.00  0.00     0.000 C
ATOM      3  C3  BGC C   1      35.641  13.388  10.4020  0.00  0.00     0.000 C
ATOM      4  C4  BGC C   1      35.076  14.447  11.3340  0.00  0.00     0.000 C
ATOM      5  C5  BGC C   1      33.631  14.116  11.6960  0.00  0.00     0.000 C
ATOM      6  O5  BGC C   1      32.838  13.790  10.5990  0.00  0.00     0.000 O
ATOM      7   O  BGC C   1      35.125  11.904   8.5790  0.00  0.00     0.000 O
ATOM      9  HD  BGC C   1      35.437  12.707   8.4890  0.00  0.00     0.000 HD
ATOM      9   O  BGC C   1      36.892  13.791   9.8280  0.00  0.00     0.000 O
ATOM     11  HD  BGC C   1      37.204  14.594   9.7390  0.00  0.00     0.000 HD
ATOM     11   O  BGC C   1      35.904  14.460  12.4930  0.00  0.00     0.000 O
ATOM     13  HD  BGC C   1      36.216  15.263  12.4030  0.00  0.00     0.000 HD
ATOM     13   O  BGC C   1      32.856  16.459  11.4790  0.00  0.00     0.000 O
ATOM     15  HD  BGC C   1      33.168  17.262  11.3900  0.00  0.00     0.000 HD
ATOM     15   C  BGC C   1      33.019  15.342  12.3970  0.00  0.00     0.000 C
ENDROOT
BRANCH 1 16
ATOM     16  O4  BGC C   2      32.397  12.618   8.7440  0.00  0.00     0.000 O
BRANCH 16 20
ATOM     17  C1  BGC C   2      28.993  10.537   7.8730  0.00  0.00     0.000 C
ATOM     18  C2  BGC C   2      28.805  11.810   8.6830  0.00  0.00     0.000 C
ATOM     19  C3  BGC C   2      30.058  12.673   8.6310  0.00  0.00     0.000 C
ATOM     20  C4  BGC C   2      31.246  11.851   9.0050  0.00  0.00     0.000 C
ATOM     21  C5  BGC C   2      31.299  10.562   8.1900  0.00  0.00     0.000 C
ATOM     22  O5  BGC C   2      30.115   9.836   8.3280  0.00  0.00     0.000 O
ATOM     23   O  BGC C   2      27.679  12.530   8.1590  0.00  0.00     0.000 O
ATOM     25  HD  BGC C   2      27.849  13.379   8.1450  0.00  0.00     0.000 HD
ATOM     25   O  BGC C   2      29.917  13.757   9.5410  0.00  0.00     0.000 O
ATOM     27  HD  BGC C   2      30.087  14.606   9.5270  0.00  0.00     0.000 HD
ATOM     27   C  BGC C   2      32.487   9.636   8.5230  0.00  0.00     0.000 C
ATOM     28   O  BGC C   2      32.534   9.333   9.9260  0.00  0.00     0.000 O
ATOM     30  HD  BGC C   2      32.704  10.182   9.9120  0.00  0.00     0.000 HD
BRANCH 17 30
ATOM     30  O4  BGC C   3      27.857   9.714   8.0280  0.00  0.00     0.000 O
BRANCH 30 34
ATOM     31  C1  BGC C   3      25.524   7.171   5.9240  0.00  0.00     0.000 C
ATOM     32  C2  BGC C   3      26.792   6.550   6.5570  0.00  0.00     0.000 C
ATOM     33  C3  BGC C   3      27.384   7.459   7.5770  0.00  0.00     0.000 C
ATOM     34  C4  BGC C   3      27.561   8.842   6.9470  0.00  0.00     0.000 C
ATOM     35  C5  BGC C   3      26.297   9.364   6.2180  0.00  0.00     0.000 C
ATOM     36  O5  BGC C   3      25.830   8.398   5.3090  0.00  0.00     0.000 O
ATOM     37   O  BGC C   3      26.684   5.278   7.1670  0.00  0.00     0.000 O
ATOM     39  HD  BGC C   3      27.043   6.065   7.2030  0.00  0.00     0.000 HD
ATOM     39   O  BGC C   3      28.658   6.927   8.0460  0.00  0.00     0.000 O
ATOM     41  HD  BGC C   3      29.017   7.715   8.0820  0.00  0.00     0.000 HD
ATOM     41   C  BGC C   3      26.494  10.671   5.4160  0.00  0.00     0.000 C
ATOM     42   O  BGC C   3      27.429  10.577   4.2820  0.00  0.00     0.000 O
ATOM     44  HD  BGC C   3      27.788  11.364   4.3180  0.00  0.00     0.000 HD
BRANCH 31 44
ATOM     44  O4  BGC C   4      24.973   6.320   4.9740  0.00  0.00     0.000 O
BRANCH 44 48
ATOM     45  C1  BGC C   4      21.466   4.862   3.4480  0.00  0.00     0.000 C
ATOM     46  C2  BGC C   4      21.798   6.273   2.8640  0.00  0.00     0.000 C
ATOM     47  C3  BGC C   4      23.251   6.469   3.3140  0.00  0.00     0.000 C
ATOM     48  C4  BGC C   4      23.592   6.258   4.7760  0.00  0.00     0.000 C
ATOM     49  C5  BGC C   4      23.166   4.820   5.1120  0.00  0.00     0.000 C
ATOM     50  O5  BGC C   4      21.829   4.615   4.8140  0.00  0.00     0.000 O
ATOM     51   O  BGC C   4      21.730   6.594   1.3590  0.00  0.00     0.000 O
ATOM     53  HD  BGC C   4      22.054   7.378   1.1870  0.00  0.00     0.000 HD
ATOM     53   O  BGC C   4      23.383   7.954   3.1130  0.00  0.00     0.000 O
ATOM     55  HD  BGC C   4      23.707   8.738   2.9410  0.00  0.00     0.000 HD
ATOM     55   C  BGC C   4      23.301   4.538   6.5850  0.00  0.00     0.000 C
ATOM     56   O  BGC C   4      22.591   5.428   7.4540  0.00  0.00     0.000 O
ATOM     58  HD  BGC C   4      22.915   6.212   7.2820  0.00  0.00     0.000 HD
BRANCH 45 58
ATOM     58  O4  BGC C   5      20.103   4.566   3.3690  0.00  0.00     0.000 O
BRANCH 58 62
ATOM     59  C1  BGC C   5      17.045   4.516   3.3490  0.00  0.00     0.000 C
ATOM     60  C2  BGC C   5      17.429   5.853   3.7440  0.00  0.00     0.000 C
ATOM     61  C3  BGC C   5      18.549   5.889   4.7800  0.00  0.00     0.000 C
ATOM     62  C4  BGC C   5      19.398   4.634   4.6330  0.00  0.00     0.000 C
ATOM     63  C5  BGC C   5      18.450   3.466   4.4900  0.00  0.00     0.000 C
ATOM     64  O5  BGC C   5      17.083   3.737   4.1870  0.00  0.00     0.000 O
ATOM     65   O  BGC C   5      18.037   3.215   6.8570  0.00  0.00     0.000 O
ATOM     67  HD  BGC C   5      18.505   2.967   6.1720  0.00  0.00     0.000 HD
ATOM     67   O  BGC C   5      18.037   3.215   6.8570  0.00  0.00     0.000 O
ATOM     69  HD  BGC C   5      18.505   2.967   6.1720  0.00  0.00     0.000 HD
ENDBRANCH 58 62
ENDBRANCH 45 58
ENDBRANCH 44 48
ENDBRANCH 31 44
ENDBRANCH 30 34
ENDBRANCH 17 30
ENDBRANCH 16 20
ENDBRANCH 1 16
TORSDOF 8
ENDMDL
MODEL 75
REMARK VINA RESULT:      -1.7      8.729     12.893
ROOT
ATOM      1  C1  BGC C   1      17.879  10.080   2.8000  0.00  0.00     0.000 C
ATOM      2  C2  BGC C   1      16.448   9.558   2.6810  0.00  0.00     0.000 C
ATOM      3  C3  BGC C   1      15.793  10.113   1.4210  0.00  0.00     0.000 C
ATOM      4  C4  BGC C   1      15.939  11.621   1.3130  0.00  0.00     0.000 C
ATOM      5  C5  BGC C   1      17.379  12.034   1.6060  0.00  0.00     0.000 C
ATOM      6  O5  BGC C   1      17.907  11.456   2.7560  0.00  0.00     0.000 O
ATOM      7   O  BGC C   1      16.514   8.153   2.6190  0.00  0.00     0.000 O
ATOM      9  HD  BGC C   1      15.817   8.627   2.8200  0.00  0.00     0.000 HD
ATOM      9   O  BGC C   1      14.418   9.705   1.4180  0.00  0.00     0.000 O
ATOM     11  HD  BGC C   1      13.721  10.179   1.6190  0.00  0.00     0.000 HD
ATOM     11   O  BGC C   1      15.564  11.978  -0.0120  0.00  0.00     0.000 O
ATOM     13  HD  BGC C   1      14.866  12.451   0.1880  0.00  0.00     0.000 HD
ATOM     13   O  BGC C   1      16.724  13.996   2.9700  0.00  0.00     0.000 O
ATOM     15  HD  BGC C   1      16.027  14.469   3.1700  0.00  0.00     0.000 HD
ATOM     15   C  BGC C   1      17.416  13.565   1.7650  0.00  0.00     0.000 C
ENDROOT
BRANCH 1 16
ATOM     16  O4  BGC C   2      18.395   9.697   4.0530  0.00  0.00     0.000 O
BRANCH 16 20
ATOM     17  C1  BGC C   2      22.033   8.822   5.6870  0.00  0.00     0.000 C
ATOM     18  C2  BGC C   2      21.678  10.298   5.6090  0.00  0.00     0.000 C
ATOM     19  C3  BGC C   2      20.192  10.482   5.3340  0.00  0.00     0.000 C
ATOM     20  C4  BGC C   2      19.799   9.669   4.1470  0.00  0.00     0.000 C
ATOM     21  C5  BGC C   2      20.269   8.224   4.2920  0.00  0.00     0.000 C
ATOM     22  O5  BGC C   2      21.646   8.168   4.5130  0.00  0.00     0.000 O
ATOM     23   O  BGC C   2      22.041  10.929   6.8460  0.00  0.00     0.000 O
ATOM     25  HD  BGC C   2      21.431  11.497   7.0800  0.00  0.00     0.000 HD
ATOM     25   O  BGC C   2      19.930  11.858   5.0840  0.00  0.00     0.000 O
ATOM     27  HD  BGC C   2      19.320  12.426   5.3180  0.00  0.00     0.000 HD
ATOM     27   C  BGC C   2      19.924   7.310   3.0980  0.00  0.00     0.000 C
ATOM     28   O  BGC C   2      20.406   7.862   1.8620  0.00  0.00     0.000 O
ATOM     30  HD  BGC C   2      19.796   8.430   2.0970  0.00  0.00     0.000 HD
BRANCH 17 30
ATOM     30  O4  BGC C   3      23.431   8.687   5.8370  0.00  0.00     0.000 O
BRANCH 30 34
ATOM     31  C1  BGC C   3      26.184   6.370   7.6790  0.00  0.00     0.000 C
ATOM     32  C2  BGC C   3      25.629   5.820   6.3430  0.00  0.00     0.000 C
ATOM     33  C3  BGC C   3      24.905   6.877   5.5840  0.00  0.00     0.000 C
ATOM     34  C4  BGC C   3      23.879   7.524   6.5170  0.00  0.00     0.000 C
ATOM     35  C5  BGC C   3      24.461   7.944   7.8910  0.00  0.00     0.000 C
ATOM     36  O5  BGC C   3      25.139   6.863   8.4810  0.00  0.00     0.000 O
ATOM     37   O  BGC C   3      26.535   5.222   5.4350  0.00  0.00     0.000 O
ATOM     39  HD  BGC C   3      25.834   5.722   5.5290  0.00  0.00     0.000 HD
ATOM     39   O  BGC C   3      24.259   6.301   4.4100  0.00  0.00     0.000 O
ATOM     41  HD  BGC C   3      23.558   6.801   4.5040  0.00  0.00     0.000 HD
ATOM     41   C  BGC C   3      23.419   8.432   8.9240  0.00  0.00     0.000 C
ATOM     42   O  BGC C   3      22.440   7.419   9.3540  0.00  0.00     0.000 O
ATOM     44  HD  BGC C   3      21.739   7.919   9.4480  0.00  0.00     0.000 HD
BRANCH 31 44
ATOM     44  O4  BGC C   4      26.860   5.382   8.3820  0.00  0.00     0.000 O
BRANCH 44 48
ATOM     45  C1  BGC C   4      30.103   4.592  10.7520  0.00  0.00     0.000 C
ATOM     46  C2  BGC C   4      29.033   5.437  11.5150  0.00  0.00     0.000 C
ATOM     47  C3  BGC C   4      27.823   5.341  10.5770  0.00  0.00     0.000 C
ATOM     48  C4  BGC C   4      28.014   5.677   9.1110  0.00  0.00     0.000 C
ATOM     49  C5  BGC C   4      29.111   4.732   8.5940  0.00  0.00     0.000 C
ATOM     50  O5  BGC C   4      30.266   4.850   9.3490  0.00  0.00     0.000 O
ATOM     51   O  BGC C   4      28.549   5.091  12.9350  0.00  0.00     0.000 O
ATOM     53  HD  BGC C   4      27.875   5.583  13.1690  0.00  0.00     0.000 HD
ATOM     53   O  BGC C   4      26.993   6.475  11.1120  0.00  0.00     0.000 O
ATOM     55  HD  BGC C   4      26.320   6.966  11.3460  0.00  0.00     0.000 HD
ATOM     55   C  BGC C   4      29.513   5.077   7.1830  0.00  0.00     0.000 C
ATOM     56   O  BGC C   4      29.952   6.425   6.9760  0.00  0.00     0.000 O
ATOM     58  HD  BGC C   4      29.278   6.916   7.2100  0.00  0.00     0.000 HD
BRANCH 45 58
ATOM     58  O4  BGC C   5      31.378   4.734  11.3040  0.00  0.00     0.000 O
BRANCH 58 62
ATOM     59  C1  BGC C   5      31.602   3.090  13.8730  0.00  0.00     0.000 C
ATOM     60  C2  BGC C   5      32.901   3.690  13.6570  0.00  0.00     0.000 C
ATOM     61  C3  BGC C   5      33.387   3.596  12.2130  0.00  0.00     0.000 C
ATOM     62  C4  BGC C   5      32.179   3.526  11.2900  0.00  0.00     0.000 C
ATOM     63  C5  BGC C   5      31.209   2.537  11.8940  0.00  0.00     0.000 C
ATOM     64  O5  BGC C   5      31.397   2.149  13.2530  0.00  0.00     0.000 O
ATOM     65   O  BGC C   5      32.310   0.573  11.0190  0.00  0.00     0.000 O
ATOM     67  HD  BGC C   5      31.691   1.168  10.9060  0.00  0.00     0.000 HD
ATOM     67   O  BGC C   5      32.310   0.573  11.0190  0.00  0.00     0.000 O
ATOM     69  HD  BGC C   5      31.691   1.168  10.9060  0.00  0.00     0.000 HD
ENDBRANCH 58 62
ENDBRANCH 45 58
ENDBRANCH 44 48
ENDBRANCH 31 44
ENDBRANCH 30 34
ENDBRANCH 17 30
ENDBRANCH 16 20
ENDBRANCH 1 16
TORSDOF 8
ENDMDL
MODEL 76
REMARK VINA RESULT:      -1.7     10.822     13.760
ROOT
ATOM      1  C1  BGC C   1       8.565   3.117   6.8440  0.00  0.00     0.000 C
ATOM      2  C2  BGC C   1       7.407   3.025   5.8520  0.00  0.00     0.000 C
ATOM      3  C3  BGC C   1       7.611   1.837   4.9190  0.00  0.00     0.000 C
ATOM      4  C4  BGC C   1       8.997   1.827   4.2950  0.00  0.00     0.000 C
ATOM      5  C5  BGC C   1      10.058   2.083   5.3620  0.00  0.00     0.000 C
ATOM      6  O5  BGC C   1       9.774   3.167   6.1880  0.00  0.00     0.000 O
ATOM      7   O  BGC C   1       6.224   2.865   6.5970  0.00  0.00     0.000 O
ATOM      9  HD  BGC C   1       6.281   3.128   5.7740  0.00  0.00     0.000 HD
ATOM      9   O  BGC C   1       6.576   1.867   3.9270  0.00  0.00     0.000 O
ATOM     11  HD  BGC C   1       6.633   2.130   3.1040  0.00  0.00     0.000 HD
ATOM     11   O  BGC C   1       9.170   0.547   3.6980  0.00  0.00     0.000 O
ATOM     13  HD  BGC C   1       9.227   0.810   2.8750  0.00  0.00     0.000 HD
ATOM     13   O  BGC C   1      11.383   3.607   3.9260  0.00  0.00     0.000 O
ATOM     15  HD  BGC C   1      11.440   3.870   3.1030  0.00  0.00     0.000 HD
ATOM     15   C  BGC C   1      11.398   2.346   4.6510  0.00  0.00     0.000 C
ENDROOT
BRANCH 1 16
ATOM     16  O4  BGC C   2       8.441   4.316   7.5710  0.00  0.00     0.000 O
BRANCH 16 20
ATOM     17  C1  BGC C   2       9.292   5.690  11.3210  0.00  0.00     0.000 C
ATOM     18  C2  BGC C   2      10.455   5.669  10.3420  0.00  0.00     0.000 C
ATOM     19  C3  BGC C   2       9.955   5.496   8.9140  0.00  0.00     0.000 C
ATOM     20  C4  BGC C   2       9.042   4.318   8.8440  0.00  0.00     0.000 C
ATOM     21  C5  BGC C   2       7.960   4.399   9.9160  0.00  0.00     0.000 C
ATOM     22  O5  BGC C   2       8.524   4.529  11.1860  0.00  0.00     0.000 O
ATOM     23   O  BGC C   2      11.191   6.895  10.4700  0.00  0.00     0.000 O
ATOM     25  HD  BGC C   2      11.430   7.181   9.6880  0.00  0.00     0.000 HD
ATOM     25   O  BGC C   2      11.067   5.296   8.0510  0.00  0.00     0.000 O
ATOM     27  HD  BGC C   2      11.306   5.582   7.2690  0.00  0.00     0.000 HD
ATOM     27   C  BGC C   2       6.978   3.209   9.9330  0.00  0.00     0.000 C
ATOM     28   O  BGC C   2       7.677   1.958  10.0330  0.00  0.00     0.000 O
ATOM     30  HD  BGC C   2       7.916   2.244   9.2520  0.00  0.00     0.000 HD
BRANCH 17 30
ATOM     30  O4  BGC C   3       9.795   5.746  12.6390  0.00  0.00     0.000 O
BRANCH 30 34
ATOM     31  C1  BGC C   3       8.978   7.389  16.2410  0.00  0.00     0.000 C
ATOM     32  C2  BGC C   3       8.237   6.068  15.9220  0.00  0.00     0.000 C
ATOM     33  C3  BGC C   3       8.852   5.373  14.7570  0.00  0.00     0.000 C
ATOM     34  C4  BGC C   3       8.961   6.372  13.6030  0.00  0.00     0.000 C
ATOM     35  C5  BGC C   3       9.598   7.727  14.0070  0.00  0.00     0.000 C
ATOM     36  O5  BGC C   3       8.941   8.253  15.1330  0.00  0.00     0.000 O
ATOM     37   O  BGC C   3       8.117   5.100  16.9490  0.00  0.00     0.000 O
ATOM     39  HD  BGC C   3       8.244   5.242  16.1040  0.00  0.00     0.000 HD
ATOM     39   O  BGC C   3       8.048   4.217  14.3780  0.00  0.00     0.000 O
ATOM     41  HD  BGC C   3       8.175   4.359  13.5330  0.00  0.00     0.000 HD
ATOM     41   C  BGC C   3       9.558   8.822  12.9160  0.00  0.00     0.000 C
ATOM     42   O  BGC C   3       8.210   9.272  12.5280  0.00  0.00     0.000 O
ATOM     44  HD  BGC C   3       8.337   9.413  11.6830  0.00  0.00     0.000 HD
BRANCH 31 44
ATOM     44  O4  BGC C   4       8.402   8.032  17.3290  0.00  0.00     0.000 O
BRANCH 44 48
ATOM     45  C1  BGC C   4       9.167  10.217  20.7050  0.00  0.00     0.000 C
ATOM     46  C2  BGC C   4       9.435  11.053  19.4140  0.00  0.00     0.000 C
ATOM     47  C3  BGC C   4       8.801  10.174  18.3280  0.00  0.00     0.000 C
ATOM     48  C4  BGC C   4       9.189   8.709  18.2640  0.00  0.00     0.000 C
ATOM     49  C5  BGC C   4       8.843   8.115  19.6390  0.00  0.00     0.000 C
ATOM     50  O5  BGC C   4       9.471   8.815  20.6560  0.00  0.00     0.000 O
ATOM     51   O  BGC C   4       8.907  12.486  19.2180  0.00  0.00     0.000 O
ATOM     53  HD  BGC C   4       9.040  12.766  18.4100  0.00  0.00     0.000 HD
ATOM     53   O  BGC C   4       9.436  10.779  17.1060  0.00  0.00     0.000 O
ATOM     55  HD  BGC C   4       9.569  11.058  16.2970  0.00  0.00     0.000 HD
ATOM     55   C  BGC C   4       9.334   6.696  19.7620  0.00  0.00     0.000 C
ATOM     56   O  BGC C   4      10.734   6.502  19.5310  0.00  0.00     0.000 O
ATOM     58  HD  BGC C   4      10.867   6.781  18.7220  0.00  0.00     0.000 HD
BRANCH 45 58
ATOM     58  O4  BGC C   5       9.871  10.708  21.8070  0.00  0.00     0.000 O
BRANCH 58 62
ATOM     59  C1  BGC C   5      11.752  11.393  24.1200  0.00  0.00     0.000 C
ATOM     60  C2  BGC C   5      11.378  12.651  23.5110  0.00  0.00     0.000 C
ATOM     61  C3  BGC C   5      11.427  12.632  21.9850  0.00  0.00     0.000 C
ATOM     62  C4  BGC C   5      11.196  11.208  21.5020  0.00  0.00     0.000 C
ATOM     63  C5  BGC C   5      12.046  10.300  22.3600  0.00  0.00     0.000 C
ATOM     64  O5  BGC C   5      12.581  10.822  23.5740  0.00  0.00     0.000 O
ATOM     65   O  BGC C   5      14.089  10.660  21.1220  0.00  0.00     0.000 O
ATOM     67  HD  BGC C   5      13.385  10.167  21.2320  0.00  0.00     0.000 HD
ATOM     67   O  BGC C   5      14.089  10.660  21.1220  0.00  0.00     0.000 O
ATOM     69  HD  BGC C   5      13.385  10.167  21.2320  0.00  0.00     0.000 HD
ENDBRANCH 58 62
ENDBRANCH 45 58
ENDBRANCH 44 48
ENDBRANCH 31 44
ENDBRANCH 30 34
ENDBRANCH 17 30
ENDBRANCH 16 20
ENDBRANCH 1 16
TORSDOF 8
ENDMDL
MODEL 77
REMARK VINA RESULT:      -1.6     11.275     16.020
ROOT
ATOM      1  C1  BGC C   1      16.207   5.954  22.5170  0.00  0.00     0.000 C
ATOM      2  C2  BGC C   1      17.476   6.657  22.9980  0.00  0.00     0.000 C
ATOM      3  C3  BGC C   1      17.820   6.203  24.4120  0.00  0.00     0.000 C
ATOM      4  C4  BGC C   1      16.631   6.304  25.3530  0.00  0.00     0.000 C
ATOM      5  C5  BGC C   1      15.387   5.709  24.6990  0.00  0.00     0.000 C
ATOM      6  O5  BGC C   1      15.169   6.154  23.3980  0.00  0.00     0.000 O
ATOM      7   O  BGC C   1      18.513   6.313  22.1090  0.00  0.00     0.000 O
ATOM      9  HD  BGC C   1      18.506   6.984  22.6560  0.00  0.00     0.000 HD
ATOM      9   O  BGC C   1      18.935   6.980  24.8700  0.00  0.00     0.000 O
ATOM     11  HD  BGC C   1      18.928   7.651  25.4170  0.00  0.00     0.000 HD
ATOM     11   O  BGC C   1      16.979   5.591  26.5340  0.00  0.00     0.000 O
ATOM     13  HD  BGC C   1      16.973   6.262  27.0810  0.00  0.00     0.000 HD
ATOM     13   O  BGC C   1      13.890   7.513  25.4990  0.00  0.00     0.000 O
ATOM     15  HD  BGC C   1      13.883   8.184  26.0460  0.00  0.00     0.000 HD
ATOM     15   C  BGC C   1      14.167   6.086  25.5580  0.00  0.00     0.000 C
ENDROOT
BRANCH 1 16
ATOM     16  O4  BGC C   2      15.818   6.520  21.2870  0.00  0.00     0.000 O
BRANCH 16 20
ATOM     17  C1  BGC C   2      14.033   5.313  17.8190  0.00  0.00     0.000 C
ATOM     18  C2  BGC C   2      13.098   5.599  18.9840  0.00  0.00     0.000 C
ATOM     19  C3  BGC C   2      13.818   6.375  20.0770  0.00  0.00     0.000 C
ATOM     20  C4  BGC C   2      15.085   5.673  20.4350  0.00  0.00     0.000 C
ATOM     21  C5  BGC C   2      15.913   5.366  19.1910  0.00  0.00     0.000 C
ATOM     22  O5  BGC C   2      15.169   4.630  18.2660  0.00  0.00     0.000 O
ATOM     23   O  BGC C   2      11.969   6.343  18.5000  0.00  0.00     0.000 O
ATOM     25  HD  BGC C   2      11.756   6.961  19.0680  0.00  0.00     0.000 HD
ATOM     25   O  BGC C   2      12.976   6.463  21.2200  0.00  0.00     0.000 O
ATOM     27  HD  BGC C   2      12.763   7.081  21.7880  0.00  0.00     0.000 HD
ATOM     27   C  BGC C   2      17.236   4.621  19.4620  0.00  0.00     0.000 C
ATOM     28   O  BGC C   2      17.011   3.417  20.2130  0.00  0.00     0.000 O
ATOM     30  HD  BGC C   2      16.798   4.035  20.7810  0.00  0.00     0.000 HD
BRANCH 17 30
ATOM     30  O4  BGC C   3      13.365   4.505  16.8730  0.00  0.00     0.000 O
BRANCH 30 34
ATOM     31  C1  BGC C   3      13.132   3.839  12.8940  0.00  0.00     0.000 C
ATOM     32  C2  BGC C   3      14.364   3.230  13.6050  0.00  0.00     0.000 C
ATOM     33  C3  BGC C   3      14.185   3.226  15.0830  0.00  0.00     0.000 C
ATOM     34  C4  BGC C   3      13.789   4.637  15.5250  0.00  0.00     0.000 C
ATOM     35  C5  BGC C   3      12.631   5.250  14.6970  0.00  0.00     0.000 C
ATOM     36  O5  BGC C   3      12.919   5.161  13.3240  0.00  0.00     0.000 O
ATOM     37   O  BGC C   3      14.768   1.921  13.2450  0.00  0.00     0.000 O
ATOM     39  HD  BGC C   3      14.671   2.494  13.8880  0.00  0.00     0.000 HD
ATOM     39   O  BGC C   3      15.414   2.794  15.7380  0.00  0.00     0.000 O
ATOM     41  HD  BGC C   3      15.318   3.367  16.3800  0.00  0.00     0.000 HD
ATOM     41   C  BGC C   3      12.328   6.736  14.9930  0.00  0.00     0.000 C
ATOM     42   O  BGC C   3      13.412   7.676  14.6610  0.00  0.00     0.000 O
ATOM     44  HD  BGC C   3      13.316   8.249  15.3030  0.00  0.00     0.000 HD
BRANCH 31 44
ATOM     44  O4  BGC C   4      13.302   3.839  11.5150  0.00  0.00     0.000 O
BRANCH 44 48
ATOM     45  C1  BGC C   4      11.472   3.092   7.9300  0.00  0.00     0.000 C
ATOM     46  C2  BGC C   4      11.016   4.462   8.5270  0.00  0.00     0.000 C
ATOM     47  C3  BGC C   4      12.029   4.668   9.6610  0.00  0.00     0.000 C
ATOM     48  C4  BGC C   4      12.239   3.545  10.6580  0.00  0.00     0.000 C
ATOM     49  C5  BGC C   4      12.666   2.318   9.8370  0.00  0.00     0.000 C
ATOM     50  O5  BGC C   4      11.733   2.026   8.8560  0.00  0.00     0.000 O
ATOM     51   O  BGC C   4      10.972   5.761   7.7030  0.00  0.00     0.000 O
ATOM     53  HD  BGC C   4      10.812   6.450   8.2030  0.00  0.00     0.000 HD
ATOM     53   O  BGC C   4      11.319   5.735  10.4480  0.00  0.00     0.000 O
ATOM     55  HD  BGC C   4      11.160   6.423  10.9490  0.00  0.00     0.000 HD
ATOM     55   C  BGC C   4      12.747   1.083  10.6980  0.00  0.00     0.000 C
ATOM     56   O  BGC C   4      11.553   0.748  11.4140  0.00  0.00     0.000 O
ATOM     58  HD  BGC C   4      11.393   1.436  11.9150  0.00  0.00     0.000 HD
BRANCH 45 58
ATOM     58  O4  BGC C   5      10.542   2.576   7.0250  0.00  0.00     0.000 O
BRANCH 58 62
ATOM     59  C1  BGC C   5       9.059   1.879   4.4430  0.00  0.00     0.000 C
ATOM     60  C2  BGC C   5       8.808   0.793   5.3650  0.00  0.00     0.000 C
ATOM     61  C3  BGC C   5      10.053   0.321   6.1110  0.00  0.00     0.000 C
ATOM     62  C4  BGC C   5      11.034   1.481   6.2140  0.00  0.00     0.000 C
ATOM     63  C5  BGC C   5      11.094   2.140   4.8560  0.00  0.00     0.000 C
ATOM     64  O5  BGC C   5      10.071   1.834   3.9100  0.00  0.00     0.000 O
ATOM     65   O  BGC C   5      12.660   0.565   3.9050  0.00  0.00     0.000 O
ATOM     67  HD  BGC C   5      12.549   1.323   4.3090  0.00  0.00     0.000 HD
ATOM     67   O  BGC C   5      12.660   0.565   3.9050  0.00  0.00     0.000 O
ATOM     69  HD  BGC C   5      12.549   1.323   4.3090  0.00  0.00     0.000 HD
ENDBRANCH 58 62
ENDBRANCH 45 58
ENDBRANCH 44 48
ENDBRANCH 31 44
ENDBRANCH 30 34
ENDBRANCH 17 30
ENDBRANCH 16 20
ENDBRANCH 1 16
TORSDOF 8
ENDMDL
MODEL 78
REMARK VINA RESULT:      -1.6     10.560     12.778
ROOT
ATOM      1  C1  BGC C   1      16.656  16.829   6.6260  0.00  0.00     0.000 C
ATOM      2  C2  BGC C   1      16.772  18.332   6.3710  0.00  0.00     0.000 C
ATOM      3  C3  BGC C   1      16.117  19.106   7.5090  0.00  0.00     0.000 C
ATOM      4  C4  BGC C   1      14.712  18.610   7.8070  0.00  0.00     0.000 C
ATOM      5  C5  BGC C   1      14.695  17.086   7.8840  0.00  0.00     0.000 C
ATOM      6  O5  BGC C   1      15.344  16.463   6.8220  0.00  0.00     0.000 O
ATOM      7   O  BGC C   1      18.143  18.642   6.2940  0.00  0.00     0.000 O
ATOM      9  HD  BGC C   1      17.489  19.126   5.9980  0.00  0.00     0.000 HD
ATOM      9   O  BGC C   1      16.133  20.498   7.1660  0.00  0.00     0.000 O
ATOM     11  HD  BGC C   1      15.479  20.983   6.8700  0.00  0.00     0.000 HD
ATOM     11   O  BGC C   1      14.326  19.190   9.0490  0.00  0.00     0.000 O
ATOM     13  HD  BGC C   1      13.672  19.674   8.7520  0.00  0.00     0.000 HD
ATOM     13   O  BGC C   1      12.570  16.873   6.6280  0.00  0.00     0.000 O
ATOM     15  HD  BGC C   1      11.916  17.357   6.3320  0.00  0.00     0.000 HD
ATOM     15   C  BGC C   1      13.227  16.624   7.9020  0.00  0.00     0.000 C
ENDROOT
BRANCH 1 16
ATOM     16  O4  BGC C   2      17.109  16.143   5.4830  0.00  0.00     0.000 O
BRANCH 16 20
ATOM     17  C1  BGC C   2      18.848  12.545   4.6440  0.00  0.00     0.000 C
ATOM     18  C2  BGC C   2      17.328  12.564   4.6450  0.00  0.00     0.000 C
ATOM     19  C3  BGC C   2      16.806  13.993   4.6040  0.00  0.00     0.000 C
ATOM     20  C4  BGC C   2      17.453  14.793   5.6840  0.00  0.00     0.000 C
ATOM     21  C5  BGC C   2      18.971  14.644   5.6410  0.00  0.00     0.000 C
ATOM     22  O5  BGC C   2      19.343  13.301   5.7120  0.00  0.00     0.000 O
ATOM     23   O  BGC C   2      16.854  11.823   3.5100  0.00  0.00     0.000 O
ATOM     25  HD  BGC C   2      16.177  12.228   3.1530  0.00  0.00     0.000 HD
ATOM     25   O  BGC C   2      15.396  13.981   4.7920  0.00  0.00     0.000 O
ATOM     27  HD  BGC C   2      14.718  14.385   4.4350  0.00  0.00     0.000 HD
ATOM     27   C  BGC C   2      19.727  15.423   6.7370  0.00  0.00     0.000 C
ATOM     28   O  BGC C   2      19.237  15.089   8.0460  0.00  0.00     0.000 O
ATOM     30  HD  BGC C   2      18.559  15.493   7.6890  0.00  0.00     0.000 HD
BRANCH 17 30
ATOM     30  O4  BGC C   3      19.298  11.214   4.7880  0.00  0.00     0.000 O
BRANCH 30 34
ATOM     31  C1  BGC C   3      22.506   8.880   4.0160  0.00  0.00     0.000 C
ATOM     32  C2  BGC C   3      22.584   9.721   5.3130  0.00  0.00     0.000 C
ATOM     33  C3  BGC C   3      21.248  10.263   5.6850  0.00  0.00     0.000 C
ATOM     34  C4  BGC C   3      20.658  10.973   4.4630  0.00  0.00     0.000 C
ATOM     35  C5  BGC C   3      20.718  10.132   3.1620  0.00  0.00     0.000 C
ATOM     36  O5  BGC C   3      22.026   9.662   2.9500  0.00  0.00     0.000 O
ATOM     37   O  BGC C   3      23.109   9.112   6.4770  0.00  0.00     0.000 O
ATOM     39  HD  BGC C   3      22.517   9.654   6.1530  0.00  0.00     0.000 HD
ATOM     39   O  BGC C   3      21.372  11.176   6.8150  0.00  0.00     0.000 O
ATOM     41  HD  BGC C   3      20.780  11.718   6.4900  0.00  0.00     0.000 HD
ATOM     41   C  BGC C   3      20.300  10.883   1.8770  0.00  0.00     0.000 C
ATOM     42   O  BGC C   3      21.169  12.011   1.4990  0.00  0.00     0.000 O
ATOM     44  HD  BGC C   3      20.576  12.553   1.1740  0.00  0.00     0.000 HD
BRANCH 31 44
ATOM     44  O4  BGC C   4      23.753   8.375   3.6730  0.00  0.00     0.000 O
BRANCH 44 48
ATOM     45  C1  BGC C   4      25.695   5.023   2.3500  0.00  0.00     0.000 C
ATOM     46  C2  BGC C   4      25.249   5.930   1.1580  0.00  0.00     0.000 C
ATOM     47  C3  BGC C   4      24.846   7.224   1.8780  0.00  0.00     0.000 C
ATOM     48  C4  BGC C   4      23.881   7.135   3.0430  0.00  0.00     0.000 C
ATOM     49  C5  BGC C   4      24.530   6.189   4.0660  0.00  0.00     0.000 C
ATOM     50  O5  BGC C   4      24.827   4.964   3.4920  0.00  0.00     0.000 O
ATOM     51   O  BGC C   4      26.189   6.315   0.0010  0.00  0.00     0.000 O
ATOM     53  HD  BGC C   4      25.830   6.912  -0.5130  0.00  0.00     0.000 HD
ATOM     53   O  BGC C   4      24.050   7.886   0.7860  0.00  0.00     0.000 O
ATOM     55  HD  BGC C   4      23.692   8.483   0.2720  0.00  0.00     0.000 HD
ATOM     55   C  BGC C   4      23.592   5.885   5.2050  0.00  0.00     0.000 C
ATOM     56   O  BGC C   4      22.322   5.336   4.8330  0.00  0.00     0.000 O
ATOM     58  HD  BGC C   4      21.964   5.934   4.3180  0.00  0.00     0.000 HD
BRANCH 45 58
ATOM     58  O4  BGC C   5      25.883   3.695   1.9600  0.00  0.00     0.000 O
BRANCH 58 62
ATOM     59  C1  BGC C   5      25.912   0.860   0.8130  0.00  0.00     0.000 C
ATOM     60  C2  BGC C   5      24.891   1.584   0.0880  0.00  0.00     0.000 C
ATOM     61  C3  BGC C   5      23.987   2.429   0.9810  0.00  0.00     0.000 C
ATOM     62  C4  BGC C   5      24.758   2.823   2.2320  0.00  0.00     0.000 C
ATOM     63  C5  BGC C   5      25.473   1.586   2.7260  0.00  0.00     0.000 C
ATOM     64  O5  BGC C   5      25.589   0.473   1.8420  0.00  0.00     0.000 O
ATOM     65   O  BGC C   5      23.564   0.665   3.8850  0.00  0.00     0.000 O
ATOM     67  HD  BGC C   5      24.282   1.147   3.9380  0.00  0.00     0.000 HD
ATOM     67   O  BGC C   5      23.564   0.665   3.8850  0.00  0.00     0.000 O
ATOM     69  HD  BGC C   5      24.282   1.147   3.9380  0.00  0.00     0.000 HD
ENDBRANCH 58 62
ENDBRANCH 45 58
ENDBRANCH 44 48
ENDBRANCH 31 44
ENDBRANCH 30 34
ENDBRANCH 17 30
ENDBRANCH 16 20
ENDBRANCH 1 16
TORSDOF 8
ENDMDL
MODEL 79
REMARK VINA RESULT:      -1.6     11.699     23.009
ROOT
ATOM      1  C1  BGC C   1      36.390  12.616  12.6920  0.00  0.00     0.000 C
ATOM      2  C2  BGC C   1      37.871  12.489  12.3380  0.00  0.00     0.000 C
ATOM      3  C3  BGC C   1      38.718  12.558  13.6030  0.00  0.00     0.000 C
ATOM      4  C4  BGC C   1      38.363  13.756  14.4680  0.00  0.00     0.000 C
ATOM      5  C5  BGC C   1      36.849  13.867  14.6210  0.00  0.00     0.000 C
ATOM      6  O5  BGC C   1      36.153  13.760  13.4190  0.00  0.00     0.000 O
ATOM      7   O  BGC C   1      38.047  11.247  11.6980  0.00  0.00     0.000 O
ATOM      9  HD  BGC C   1      38.588  11.922  11.6680  0.00  0.00     0.000 HD
ATOM      9   O  BGC C   1      40.098  12.567  13.2130  0.00  0.00     0.000 O
ATOM     11  HD  BGC C   1      40.639  13.242  13.1830  0.00  0.00     0.000 HD
ATOM     11   O  BGC C   1      38.992  13.554  15.7280  0.00  0.00     0.000 O
ATOM     13  HD  BGC C   1      39.533  14.229  15.6980  0.00  0.00     0.000 HD
ATOM     13   O  BGC C   1      36.826  16.329  14.3420  0.00  0.00     0.000 O
ATOM     15  HD  BGC C   1      37.367  17.004  14.3110  0.00  0.00     0.000 HD
ATOM     15   C  BGC C   1      36.530  15.234  15.2530  0.00  0.00     0.000 C
ENDROOT
BRANCH 1 16
ATOM     16  O4  BGC C   2      35.649  12.726  11.5000  0.00  0.00     0.000 O
BRANCH 16 20
ATOM     17  C1  BGC C   2      31.960  11.650  10.1170  0.00  0.00     0.000 C
ATOM     18  C2  BGC C   2      32.020  12.943  10.9160  0.00  0.00     0.000 C
ATOM     19  C3  BGC C   2      33.457  13.423  11.0590  0.00  0.00     0.000 C
ATOM     20  C4  BGC C   2      34.305  12.313  11.5810  0.00  0.00     0.000 C
ATOM     21  C5  BGC C   2      34.114  11.043  10.7570  0.00  0.00     0.000 C
ATOM     22  O5  BGC C   2      32.768  10.676  10.7120  0.00  0.00     0.000 O
ATOM     23   O  BGC C   2      31.222  13.935  10.2520  0.00  0.00     0.000 O
ATOM     25  HD  BGC C   2      31.621  14.703  10.2790  0.00  0.00     0.000 HD
ATOM     25   O  BGC C   2      33.494  14.523  11.9600  0.00  0.00     0.000 O
ATOM     27  HD  BGC C   2      33.893  15.291  11.9860  0.00  0.00     0.000 HD
ATOM     27   C  BGC C   2      34.940   9.832  11.2360  0.00  0.00     0.000 C
ATOM     28   O  BGC C   2      34.702   9.557  12.6260  0.00  0.00     0.000 O
ATOM     30  HD  BGC C   2      35.101  10.325  12.6530  0.00  0.00     0.000 HD
BRANCH 17 30
ATOM     30  O4  BGC C   3      30.630  11.178  10.0940  0.00  0.00     0.000 O
BRANCH 30 34
ATOM     31  C1  BGC C   3      28.031   9.279   7.6490  0.00  0.00     0.000 C
ATOM     32  C2  BGC C   3      28.948   8.363   8.4950  0.00  0.00     0.000 C
ATOM     33  C3  BGC C   3      29.606   9.126   9.5920  0.00  0.00     0.000 C
ATOM     34  C4  BGC C   3      30.273  10.363   8.9870  0.00  0.00     0.000 C
ATOM     35  C5  BGC C   3      29.346  11.177   8.0480  0.00  0.00     0.000 C
ATOM     36  O5  BGC C   3      28.773  10.331   7.0830  0.00  0.00     0.000 O
ATOM     37   O  BGC C   3      28.382   7.211   9.0900  0.00  0.00     0.000 O
ATOM     39  HD  BGC C   3      28.941   7.866   9.1790  0.00  0.00     0.000 HD
ATOM     39   O  BGC C   3      30.580   8.284  10.2770  0.00  0.00     0.000 O
ATOM     41  HD  BGC C   3      31.140   8.939  10.3650  0.00  0.00     0.000 HD
ATOM     41   C  BGC C   3      30.038  12.326   7.2790  0.00  0.00     0.000 C
ATOM     42   O  BGC C   3      31.075  11.905   6.3210  0.00  0.00     0.000 O
ATOM     44  HD  BGC C   3      31.634  12.560   6.4100  0.00  0.00     0.000 HD
BRANCH 31 44
ATOM     44  O4  BGC C   4      27.418   8.564   6.6280  0.00  0.00     0.000 O
BRANCH 44 48
ATOM     45  C1  BGC C   4      23.942   8.051   4.5270  0.00  0.00     0.000 C
ATOM     46  C2  BGC C   4      24.603   9.430   4.2070  0.00  0.00     0.000 C
ATOM     47  C3  BGC C   4      25.993   9.271   4.8360  0.00  0.00     0.000 C
ATOM     48  C4  BGC C   4      26.089   8.807   6.2760  0.00  0.00     0.000 C
ATOM     49  C5  BGC C   4      25.365   7.452   6.3380  0.00  0.00     0.000 C
ATOM     50  O5  BGC C   4      24.066   7.560   5.8710  0.00  0.00     0.000 O
ATOM     51   O  BGC C   4      24.798   9.952   2.7720  0.00  0.00     0.000 O
ATOM     53  HD  BGC C   4      25.281  10.671   2.7590  0.00  0.00     0.000 HD
ATOM     53   O  BGC C   4      26.420  10.712   4.8820  0.00  0.00     0.000 O
ATOM     55  HD  BGC C   4      26.902  11.431   4.8690  0.00  0.00     0.000 HD
ATOM     55   C  BGC C   4      25.246   6.958   7.7560  0.00  0.00     0.000 C
ATOM     56   O  BGC C   4      24.599   7.851   8.6710  0.00  0.00     0.000 O
ATOM     58  HD  BGC C   4      25.082   8.570   8.6580  0.00  0.00     0.000 HD
BRANCH 45 58
ATOM     58  O4  BGC C   5      22.572   8.048   4.2580  0.00  0.00     0.000 O
BRANCH 58 62
ATOM     59  C1  BGC C   5      21.161   8.097   1.5450  0.00  0.00     0.000 C
ATOM     60  C2  BGC C   5      20.140   7.823   2.5320  0.00  0.00     0.000 C
ATOM     61  C3  BGC C   5      20.553   6.781   3.5690  0.00  0.00     0.000 C
ATOM     62  C4  BGC C   5      22.068   6.803   3.7130  0.00  0.00     0.000 C
ATOM     63  C5  BGC C   5      22.651   6.848   2.3200  0.00  0.00     0.000 C
ATOM     64  O5  BGC C   5      21.788   7.190   1.2360  0.00  0.00     0.000 O
ATOM     65   O  BGC C   5      22.469   4.473   1.9180  0.00  0.00     0.000 O
ATOM     67  HD  BGC C   5      22.969   5.127   2.1890  0.00  0.00     0.000 HD
ATOM     67   O  BGC C   5      22.469   4.473   1.9180  0.00  0.00     0.000 O
ATOM     69  HD  BGC C   5      22.969   5.127   2.1890  0.00  0.00     0.000 HD
ENDBRANCH 58 62
ENDBRANCH 45 58
ENDBRANCH 44 48
ENDBRANCH 31 44
ENDBRANCH 30 34
ENDBRANCH 17 30
ENDBRANCH 16 20
ENDBRANCH 1 16
TORSDOF 8
ENDMDL
MODEL 80
REMARK VINA RESULT:      -1.6      9.499     11.289
ROOT
ATOM      1  C1  BGC C   1      13.572   6.690  17.4190  0.00  0.00     0.000 C
ATOM      2  C2  BGC C   1      13.997   6.624  18.8850  0.00  0.00     0.000 C
ATOM      3  C3  BGC C   1      12.959   5.856  19.6960  0.00  0.00     0.000 C
ATOM      4  C4  BGC C   1      11.549   6.368  19.4570  0.00  0.00     0.000 C
ATOM      5  C5  BGC C   1      11.296   6.541  17.9610  0.00  0.00     0.000 C
ATOM      6  O5  BGC C   1      12.310   7.224  17.2950  0.00  0.00     0.000 O
ATOM      7   O  BGC C   1      15.241   5.967  18.9350  0.00  0.00     0.000 O
ATOM      9  HD  BGC C   1      14.900   6.470  19.5520  0.00  0.00     0.000 HD
ATOM      9   O  BGC C   1      13.330   5.932  21.0790  0.00  0.00     0.000 O
ATOM     11  HD  BGC C   1      12.990   6.435  21.6960  0.00  0.00     0.000 HD
ATOM     11   O  BGC C   1      10.661   5.408  20.0180  0.00  0.00     0.000 O
ATOM     13  HD  BGC C   1      10.321   5.911  20.6350  0.00  0.00     0.000 HD
ATOM     13   O  BGC C   1      10.107   8.697  18.2340  0.00  0.00     0.000 O
ATOM     15  HD  BGC C   1       9.767   9.201  18.8500  0.00  0.00     0.000 HD
ATOM     15   C  BGC C   1       9.980   7.319  17.7840  0.00  0.00     0.000 C
ENDROOT
BRANCH 1 16
ATOM     16  O4  BGC C   2      14.452   7.549  16.7330  0.00  0.00     0.000 O
BRANCH 16 20
ATOM     17  C1  BGC C   2      16.010   7.912  12.9760  0.00  0.00     0.000 C
ATOM     18  C2  BGC C   2      14.627   8.510  13.1830  0.00  0.00     0.000 C
ATOM     19  C3  BGC C   2      14.312   8.642  14.6660  0.00  0.00     0.000 C
ATOM     20  C4  BGC C   2      14.549   7.335  15.3450  0.00  0.00     0.000 C
ATOM     21  C5  BGC C   2      15.933   6.786  15.0120  0.00  0.00     0.000 C
ATOM     22  O5  BGC C   2      16.108   6.680  13.6310  0.00  0.00     0.000 O
ATOM     23   O  BGC C   2      14.577   9.794  12.5430  0.00  0.00     0.000 O
ATOM     25  HD  BGC C   2      14.144  10.356  13.0390  0.00  0.00     0.000 HD
ATOM     25   O  BGC C   2      12.952   9.027  14.8220  0.00  0.00     0.000 O
ATOM     27  HD  BGC C   2      12.519   9.589  15.3190  0.00  0.00     0.000 HD
ATOM     27   C  BGC C   2      16.260   5.423  15.6560  0.00  0.00     0.000 C
ATOM     28   O  BGC C   2      15.255   4.445  15.3440  0.00  0.00     0.000 O
ATOM     30  HD  BGC C   2      14.822   5.007  15.8400  0.00  0.00     0.000 HD
BRANCH 17 30
ATOM     30  O4  BGC C   3      16.228   7.707  11.5970  0.00  0.00     0.000 O
BRANCH 30 34
ATOM     31  C1  BGC C   3      19.226   7.353   8.9090  0.00  0.00     0.000 C
ATOM     32  C2  BGC C   3      18.863   6.063   9.6840  0.00  0.00     0.000 C
ATOM     33  C3  BGC C   3      17.551   6.201  10.3750  0.00  0.00     0.000 C
ATOM     34  C4  BGC C   3      17.573   7.490  11.1990  0.00  0.00     0.000 C
ATOM     35  C5  BGC C   3      18.064   8.730  10.4080  0.00  0.00     0.000 C
ATOM     36  O5  BGC C   3      19.293   8.451   9.7850  0.00  0.00     0.000 O
ATOM     37   O  BGC C   3      18.814   4.842   8.9700  0.00  0.00     0.000 O
ATOM     39  HD  BGC C   3      18.459   5.325   9.5940  0.00  0.00     0.000 HD
ATOM     39   O  BGC C   3      17.303   5.040  11.2210  0.00  0.00     0.000 O
ATOM     41  HD  BGC C   3      16.948   5.523  11.8450  0.00  0.00     0.000 HD
ATOM     41   C  BGC C   3      18.272  10.007  11.2530  0.00  0.00     0.000 C
ATOM     42   O  BGC C   3      19.327   9.917  12.2760  0.00  0.00     0.000 O
ATOM     44  HD  BGC C   3      18.972  10.401  12.9010  0.00  0.00     0.000 HD
BRANCH 31 44
ATOM     44  O4  BGC C   4      20.449   7.219   8.2650  0.00  0.00     0.000 O
BRANCH 44 48
ATOM     45  C1  BGC C   4      22.468   7.861   4.7620  0.00  0.00     0.000 C
ATOM     46  C2  BGC C   4      22.105   9.208   5.4640  0.00  0.00     0.000 C
ATOM     47  C3  BGC C   4      21.657   8.732   6.8530  0.00  0.00     0.000 C
ATOM     48  C4  BGC C   4      20.615   7.635   6.9420  0.00  0.00     0.000 C
ATOM     49  C5  BGC C   4      21.192   6.434   6.1760  0.00  0.00     0.000 C
ATOM     50  O5  BGC C   4      21.525   6.784   4.8780  0.00  0.00     0.000 O
ATOM     51   O  BGC C   4      23.120  10.347   5.6680  0.00  0.00     0.000 O
ATOM     53  HD  BGC C   4      22.799  10.972   6.1730  0.00  0.00     0.000 HD
ATOM     53   O  BGC C   4      20.938   9.966   7.3260  0.00  0.00     0.000 O
ATOM     55  HD  BGC C   4      20.616  10.591   7.8310  0.00  0.00     0.000 HD
ATOM     55   C  BGC C   4      20.179   5.326   6.0490  0.00  0.00     0.000 C
ATOM     56   O  BGC C   4      18.936   5.689   5.4370  0.00  0.00     0.000 O
ATOM     58  HD  BGC C   4      18.615   6.315   5.9420  0.00  0.00     0.000 HD
BRANCH 45 58
ATOM     58  O4  BGC C   5      22.678   8.021   3.3900  0.00  0.00     0.000 O
BRANCH 58 62
ATOM     59  C1  BGC C   5      23.982   7.668   0.6470  0.00  0.00     0.000 C
ATOM     60  C2  BGC C   5      22.598   8.012   0.4010  0.00  0.00     0.000 C
ATOM     61  C3  BGC C   5      21.612   7.254   1.2850  0.00  0.00     0.000 C
ATOM     62  C4  BGC C   5      22.306   6.875   2.5860  0.00  0.00     0.000 C
ATOM     63  C5  BGC C   5      23.668   6.330   2.2240  0.00  0.00     0.000 C
ATOM     64  O5  BGC C   5      24.166   6.569   0.9090  0.00  0.00     0.000 O
ATOM     65   O  BGC C   5      22.891   4.104   1.6940  0.00  0.00     0.000 O
ATOM     67  HD  BGC C   5      23.221   4.633   2.2950  0.00  0.00     0.000 HD
ATOM     67   O  BGC C   5      22.891   4.104   1.6940  0.00  0.00     0.000 O
ATOM     69  HD  BGC C   5      23.221   4.633   2.2950  0.00  0.00     0.000 HD
ENDBRANCH 58 62
ENDBRANCH 45 58
ENDBRANCH 44 48
ENDBRANCH 31 44
ENDBRANCH 30 34
ENDBRANCH 17 30
ENDBRANCH 16 20
ENDBRANCH 1 16
TORSDOF 8
ENDMDL
MODEL 81
REMARK VINA RESULT:      -1.5     11.044     19.521
ROOT
ATOM      1  C1  BGC C   1      27.747  14.444  18.0860  0.00  0.00     0.000 C
ATOM      2  C2  BGC C   1      28.951  15.386  18.0590  0.00  0.00     0.000 C
ATOM      3  C3  BGC C   1      29.584  15.464  19.4430  0.00  0.00     0.000 C
ATOM      4  C4  BGC C   1      28.560  15.758  20.5270  0.00  0.00     0.000 C
ATOM      5  C5  BGC C   1      27.337  14.861  20.3560  0.00  0.00     0.000 C
ATOM      6  O5  BGC C   1      26.846  14.824  19.0540  0.00  0.00     0.000 O
ATOM      7   O  BGC C   1      29.872  14.868  17.1290  0.00  0.00     0.000 O
ATOM      9  HD  BGC C   1      29.848  15.679  17.4310  0.00  0.00     0.000 HD
ATOM      9   O  BGC C   1      30.621  16.453  19.4020  0.00  0.00     0.000 O
ATOM     11  HD  BGC C   1      30.597  17.264  19.7040  0.00  0.00     0.000 HD
ATOM     11   O  BGC C   1      29.202  15.515  21.7750  0.00  0.00     0.000 O
ATOM     13  HD  BGC C   1      29.177  16.327  22.0770  0.00  0.00     0.000 HD
ATOM     13   O  BGC C   1      25.722  16.675  20.8460  0.00  0.00     0.000 O
ATOM     15  HD  BGC C   1      25.698  17.486  21.1480  0.00  0.00     0.000 HD
ATOM     15   C  BGC C   1      26.226  15.383  21.2850  0.00  0.00     0.000 C
ENDROOT
BRANCH 1 16
ATOM     16  O4  BGC C   2      27.082  14.528  16.8480  0.00  0.00     0.000 O
BRANCH 16 20
ATOM     17  C1  BGC C   2      24.945  12.081  14.3740  0.00  0.00     0.000 C
ATOM     18  C2  BGC C   2      24.190  12.641  15.5690  0.00  0.00     0.000 C
ATOM     19  C3  BGC C   2      24.954  13.799  16.1950  0.00  0.00     0.000 C
ATOM     20  C4  BGC C   2      26.359  13.381  16.4700  0.00  0.00     0.000 C
ATOM     21  C5  BGC C   2      26.999  12.763  15.2300  0.00  0.00     0.000 C
ATOM     22  O5  BGC C   2      26.235  11.697  14.7530  0.00  0.00     0.000 O
ATOM     23   O  BGC C   2      22.891  13.073  15.1360  0.00  0.00     0.000 O
ATOM     25  HD  BGC C   2      22.682  13.819  15.5220  0.00  0.00     0.000 HD
ATOM     25   O  BGC C   2      24.317  14.176  17.4110  0.00  0.00     0.000 O
ATOM     27  HD  BGC C   2      24.108  14.922  17.7970  0.00  0.00     0.000 HD
ATOM     27   C  BGC C   2      28.451  12.281  15.4250  0.00  0.00     0.000 C
ATOM     28   O  BGC C   2      28.555  11.375  16.5350  0.00  0.00     0.000 O
ATOM     30  HD  BGC C   2      28.345  12.121  16.9210  0.00  0.00     0.000 HD
BRANCH 17 30
ATOM     30  O4  BGC C   3      24.264  10.947  13.8830  0.00  0.00     0.000 O
BRANCH 30 34
ATOM     31  C1  BGC C   3      23.269   9.154  10.3990  0.00  0.00     0.000 C
ATOM     32  C2  BGC C   3      24.675   8.815  10.9510  0.00  0.00     0.000 C
ATOM     33  C3  BGC C   3      24.810   9.232  12.3740  0.00  0.00     0.000 C
ATOM     34  C4  BGC C   3      24.382  10.697  12.4900  0.00  0.00     0.000 C
ATOM     35  C5  BGC C   3      23.024  11.008  11.8110  0.00  0.00     0.000 C
ATOM     36  O5  BGC C   3      23.026  10.536  10.4870  0.00  0.00     0.000 O
ATOM     37   O  BGC C   3      25.118   7.472  10.8820  0.00  0.00     0.000 O
ATOM     39  HD  BGC C   3      25.103   8.203  11.3470  0.00  0.00     0.000 HD
ATOM     39   O  BGC C   3      26.184   9.047  12.8250  0.00  0.00     0.000 O
ATOM     41  HD  BGC C   3      26.169   9.778  13.2900  0.00  0.00     0.000 HD
ATOM     41   C  BGC C   3      22.649  12.507  11.7500  0.00  0.00     0.000 C
ATOM     42   O  BGC C   3      23.545  13.344  10.9350  0.00  0.00     0.000 O
ATOM     44  HD  BGC C   3      23.531  14.075  11.4000  0.00  0.00     0.000 HD
BRANCH 31 44
ATOM     44  O4  BGC C   4      23.147   8.762   9.0730  0.00  0.00     0.000 O
BRANCH 44 48
ATOM     45  C1  BGC C   4      20.606   7.194   6.2720  0.00  0.00     0.000 C
ATOM     46  C2  BGC C   4      20.131   8.606   6.7450  0.00  0.00     0.000 C
ATOM     47  C3  BGC C   4      21.356   9.110   7.5190  0.00  0.00     0.000 C
ATOM     48  C4  BGC C   4      21.955   8.218   8.5880  0.00  0.00     0.000 C
ATOM     49  C5  BGC C   4      22.328   6.902   7.8880  0.00  0.00     0.000 C
ATOM     50  O5  BGC C   4      21.229   6.349   7.2510  0.00  0.00     0.000 O
ATOM     51   O  BGC C   4      19.708   9.718   5.7680  0.00  0.00     0.000 O
ATOM     53  HD  BGC C   4      19.586  10.471   6.1780  0.00  0.00     0.000 HD
ATOM     53   O  BGC C   4      20.725  10.238   8.2880  0.00  0.00     0.000 O
ATOM     55  HD  BGC C   4      20.603  10.991   8.6980  0.00  0.00     0.000 HD
ATOM     55   C  BGC C   4      22.785   5.863   8.8790  0.00  0.00     0.000 C
ATOM     56   O  BGC C   4      21.862   5.563   9.9330  0.00  0.00     0.000 O
ATOM     58  HD  BGC C   4      21.740   6.315  10.3430  0.00  0.00     0.000 HD
BRANCH 45 58
ATOM     58  O4  BGC C   5      19.559   6.436   5.7430  0.00  0.00     0.000 O
BRANCH 58 62
ATOM     59  C1  BGC C   5      18.601   7.632   3.0960  0.00  0.00     0.000 C
ATOM     60  C2  BGC C   5      17.821   6.433   3.3090  0.00  0.00     0.000 C
ATOM     61  C3  BGC C   5      18.650   5.237   3.7700  0.00  0.00     0.000 C
ATOM     62  C4  BGC C   5      19.879   5.745   4.5100  0.00  0.00     0.000 C
ATOM     63  C5  BGC C   5      20.458   6.876   3.6930  0.00  0.00     0.000 C
ATOM     64  O5  BGC C   5      19.650   7.456   2.6720  0.00  0.00     0.000 O
ATOM     65   O  BGC C   5      21.659   5.455   2.1530  0.00  0.00     0.000 O
ATOM     67  HD  BGC C   5      21.687   5.919   2.8830  0.00  0.00     0.000 HD
ATOM     67   O  BGC C   5      21.659   5.455   2.1530  0.00  0.00     0.000 O
ATOM     69  HD  BGC C   5      21.687   5.919   2.8830  0.00  0.00     0.000 HD
ENDBRANCH 58 62
ENDBRANCH 45 58
ENDBRANCH 44 48
ENDBRANCH 31 44
ENDBRANCH 30 34
ENDBRANCH 17 30
ENDBRANCH 16 20
ENDBRANCH 1 16
TORSDOF 8
ENDMDL
MODEL 82
REMARK VINA RESULT:      -1.5     12.206     20.284
ROOT
ATOM      1  C1  BGC C   1      25.900  19.462  15.7610  0.00  0.00     0.000 C
ATOM      2  C2  BGC C   1      25.679  19.327  17.2670  0.00  0.00     0.000 C
ATOM      3  C3  BGC C   1      25.679  20.704  17.9200  0.00  0.00     0.000 C
ATOM      4  C4  BGC C   1      26.889  21.531  17.5180  0.00  0.00     0.000 C
ATOM      5  C5  BGC C   1      27.099  21.461  16.0080  0.00  0.00     0.000 C
ATOM      6  O5  BGC C   1      27.050  20.169  15.4930  0.00  0.00     0.000 O
ATOM      7   O  BGC C   1      24.435  18.697  17.4560  0.00  0.00     0.000 O
ATOM      9  HD  BGC C   1      25.073  18.759  18.0380  0.00  0.00     0.000 HD
ATOM      9   O  BGC C   1      25.601  20.523  19.3400  0.00  0.00     0.000 O
ATOM     11  HD  BGC C   1      26.239  20.586  19.9220  0.00  0.00     0.000 HD
ATOM     11   O  BGC C   1      26.633  22.867  17.9380  0.00  0.00     0.000 O
ATOM     13  HD  BGC C   1      27.272  22.929  18.5200  0.00  0.00     0.000 HD
ATOM     13   O  BGC C   1      29.559  21.231  16.1840  0.00  0.00     0.000 O
ATOM     15  HD  BGC C   1      30.197  21.294  16.7660  0.00  0.00     0.000 HD
ATOM     15   C  BGC C   1      28.477  22.067  15.6870  0.00  0.00     0.000 C
ENDROOT
BRANCH 1 16
ATOM     16  O4  BGC C   2      26.071  18.176  15.2140  0.00  0.00     0.000 O
BRANCH 16 20
ATOM     17  C1  BGC C   2      25.473  16.316  11.6280  0.00  0.00     0.000 C
ATOM     18  C2  BGC C   2      26.792  17.056  11.7810  0.00  0.00     0.000 C
ATOM     19  C3  BGC C   2      27.060  17.386  13.2430  0.00  0.00     0.000 C
ATOM     20  C4  BGC C   2      25.872  18.077  13.8240  0.00  0.00     0.000 C
ATOM     21  C5  BGC C   2      24.593  17.292  13.5490  0.00  0.00     0.000 C
ATOM     22  O5  BGC C   2      24.430  17.067  12.1810  0.00  0.00     0.000 O
ATOM     23   O  BGC C   2      27.847  16.238  11.2510  0.00  0.00     0.000 O
ATOM     25  HD  BGC C   2      28.546  16.288  11.7590  0.00  0.00     0.000 HD
ATOM     25   O  BGC C   2      28.199  18.233  13.3300  0.00  0.00     0.000 O
ATOM     27  HD  BGC C   2      28.899  18.283  13.8380  0.00  0.00     0.000 HD
ATOM     27   C  BGC C   2      23.305  17.942  14.0980  0.00  0.00     0.000 C
ATOM     28   O  BGC C   2      23.164  19.293  13.6300  0.00  0.00     0.000 O
ATOM     30  HD  BGC C   2      23.863  19.343  14.1380  0.00  0.00     0.000 HD
BRANCH 17 30
ATOM     30  O4  BGC C   3      25.206  16.119  10.2560  0.00  0.00     0.000 O
BRANCH 30 34
ATOM     31  C1  BGC C   3      23.592  13.371   7.7690  0.00  0.00     0.000 C
ATOM     32  C2  BGC C   3      22.608  14.422   8.3380  0.00  0.00     0.000 C
ATOM     33  C3  BGC C   3      23.337  15.570   8.9440  0.00  0.00     0.000 C
ATOM     34  C4  BGC C   3      24.370  15.019   9.9310  0.00  0.00     0.000 C
ATOM     35  C5  BGC C   3      25.247  13.881   9.3480  0.00  0.00     0.000 C
ATOM     36  O5  BGC C   3      24.433  12.883   8.7850  0.00  0.00     0.000 O
ATOM     37   O  BGC C   3      21.640  14.976   7.4670  0.00  0.00     0.000 O
ATOM     39  HD  BGC C   3      22.187  15.123   8.1220  0.00  0.00     0.000 HD
ATOM     39   O  BGC C   3      22.400  16.467   9.6100  0.00  0.00     0.000 O
ATOM     41  HD  BGC C   3      22.947  16.613  10.2650  0.00  0.00     0.000 HD
ATOM     41   C  BGC C   3      26.172  13.178  10.3680  0.00  0.00     0.000 C
ATOM     42   O  BGC C   3      25.481  12.449  11.4440  0.00  0.00     0.000 O
ATOM     44  HD  BGC C   3      26.028  12.595  12.0990  0.00  0.00     0.000 HD
BRANCH 31 44
ATOM     44  O4  BGC C   4      22.908  12.304   7.2030  0.00  0.00     0.000 O
BRANCH 44 48
ATOM     45  C1  BGC C   4      22.904   9.584   4.1430  0.00  0.00     0.000 C
ATOM     46  C2  BGC C   4      24.018   9.261   5.1900  0.00  0.00     0.000 C
ATOM     47  C3  BGC C   4      23.636  10.183   6.3550  0.00  0.00     0.000 C
ATOM     48  C4  BGC C   4      23.399  11.653   6.0680  0.00  0.00     0.000 C
ATOM     49  C5  BGC C   4      22.282  11.709   5.0140  0.00  0.00     0.000 C
ATOM     50  O5  BGC C   4      22.619  10.969   3.8930  0.00  0.00     0.000 O
ATOM     51   O  BGC C   4      24.241   7.852   5.7670  0.00  0.00     0.000 O
ATOM     53  HD  BGC C   4      24.814   7.862   6.4160  0.00  0.00     0.000 HD
ATOM     53   O  BGC C   4      24.923  10.160   7.1320  0.00  0.00     0.000 O
ATOM     55  HD  BGC C   4      25.496  10.170   7.7820  0.00  0.00     0.000 HD
ATOM     55   C  BGC C   4      22.065  13.116   4.5190  0.00  0.00     0.000 C
ATOM     56   O  BGC C   4      23.220  13.769   3.9810  0.00  0.00     0.000 O
ATOM     58  HD  BGC C   4      23.793  13.779   4.6300  0.00  0.00     0.000 HD
BRANCH 45 58
ATOM     58  O4  BGC C   5      23.182   9.033   2.8900  0.00  0.00     0.000 O
BRANCH 58 62
ATOM     59  C1  BGC C   5      23.195   8.067  -0.0120  0.00  0.00     0.000 C
ATOM     60  C2  BGC C   5      21.901   8.674   0.2110  0.00  0.00     0.000 C
ATOM     61  C3  BGC C   5      21.252   8.267   1.5320  0.00  0.00     0.000 C
ATOM     62  C4  BGC C   5      22.345   7.907   2.5280  0.00  0.00     0.000 C
ATOM     63  C5  BGC C   5      23.343   7.035   1.8020  0.00  0.00     0.000 C
ATOM     64  O5  BGC C   5      23.297   6.995   0.3770  0.00  0.00     0.000 O
ATOM     65   O  BGC C   5      22.085   4.988   2.0550  0.00  0.00     0.000 O
ATOM     67  HD  BGC C   5      22.707   5.500   2.3710  0.00  0.00     0.000 HD
ATOM     67   O  BGC C   5      22.085   4.988   2.0550  0.00  0.00     0.000 O
ATOM     69  HD  BGC C   5      22.707   5.500   2.3710  0.00  0.00     0.000 HD
ENDBRANCH 58 62
ENDBRANCH 45 58
ENDBRANCH 44 48
ENDBRANCH 31 44
ENDBRANCH 30 34
ENDBRANCH 17 30
ENDBRANCH 16 20
ENDBRANCH 1 16
TORSDOF 8
ENDMDL
MODEL 83
REMARK VINA RESULT:      -1.4     10.602     15.479
ROOT
ATOM      1  C1  BGC C   1      17.729   5.891  21.9160  0.00  0.00     0.000 C
ATOM      2  C2  BGC C   1      16.717   5.055  22.6980  0.00  0.00     0.000 C
ATOM      3  C3  BGC C   1      16.572   5.600  24.1140  0.00  0.00     0.000 C
ATOM      4  C4  BGC C   1      17.916   5.792  24.7970  0.00  0.00     0.000 C
ATOM      5  C5  BGC C   1      18.889   6.500  23.8590  0.00  0.00     0.000 C
ATOM      6  O5  BGC C   1      18.933   5.956  22.5790  0.00  0.00     0.000 O
ATOM      7   O  BGC C   1      15.488   5.131  22.0160  0.00  0.00     0.000 O
ATOM      9  HD  BGC C   1      15.716   4.533  22.6000  0.00  0.00     0.000 HD
ATOM      9   O  BGC C   1      15.718   4.712  24.8480  0.00  0.00     0.000 O
ATOM     11  HD  BGC C   1      15.946   4.114  25.4310  0.00  0.00     0.000 HD
ATOM     11   O  BGC C   1      17.676   6.566  25.9670  0.00  0.00     0.000 O
ATOM     13  HD  BGC C   1      17.904   5.968  26.5510  0.00  0.00     0.000 HD
ATOM     13   O  BGC C   1      20.805   5.054  24.4720  0.00  0.00     0.000 O
ATOM     15  HD  BGC C   1      21.033   4.456  25.0550  0.00  0.00     0.000 HD
ATOM     15   C  BGC C   1      20.297   6.417  24.4770  0.00  0.00     0.000 C
ENDROOT
BRANCH 1 16
ATOM     16  O4  BGC C   2      17.972   5.262  20.6800  0.00  0.00     0.000 O
BRANCH 16 20
ATOM     17  C1  BGC C   2      18.868   6.348  16.8460  0.00  0.00     0.000 C
ATOM     18  C2  BGC C   2      20.036   6.322  17.8200  0.00  0.00     0.000 C
ATOM     19  C3  BGC C   2      19.664   5.568  19.0890  0.00  0.00     0.000 C
ATOM     20  C4  BGC C   2      18.389   6.114  19.6390  0.00  0.00     0.000 C
ATOM     21  C5  BGC C   2      17.308   6.169  18.5640  0.00  0.00     0.000 C
ATOM     22  O5  BGC C   2      17.740   6.904  17.4590  0.00  0.00     0.000 O
ATOM     23   O  BGC C   2      21.160   5.701  17.1780  0.00  0.00     0.000 O
ATOM     25  HD  BGC C   2      21.572   5.182  17.7360  0.00  0.00     0.000 HD
ATOM     25   O  BGC C   2      20.706   5.720  20.0450  0.00  0.00     0.000 O
ATOM     27  HD  BGC C   2      21.117   5.201  20.6030  0.00  0.00     0.000 HD
ATOM     27   C  BGC C   2      15.955   6.740  19.0380  0.00  0.00     0.000 C
ATOM     28   O  BGC C   2      16.118   8.035  19.6380  0.00  0.00     0.000 O
ATOM     30  HD  BGC C   2      16.530   7.516  20.1960  0.00  0.00     0.000 HD
BRANCH 17 30
ATOM     30  O4  BGC C   3      19.210   7.142  15.7300  0.00  0.00     0.000 O
BRANCH 30 34
ATOM     31  C1  BGC C   3      18.746   7.252  11.7160  0.00  0.00     0.000 C
ATOM     32  C2  BGC C   3      17.607   7.897  12.5410  0.00  0.00     0.000 C
ATOM     33  C3  BGC C   3      18.023   8.117  13.9540  0.00  0.00     0.000 C
ATOM     34  C4  BGC C   3      18.583   6.802  14.5030  0.00  0.00     0.000 C
ATOM     35  C5  BGC C   3      19.631   6.134  13.5760  0.00  0.00     0.000 C
ATOM     36  O5  BGC C   3      19.119   6.016  12.2730  0.00  0.00     0.000 O
ATOM     37   O  BGC C   3      17.059   9.121  12.0890  0.00  0.00     0.000 O
ATOM     39  HD  BGC C   3      17.298   8.649  12.7740  0.00  0.00     0.000 HD
ATOM     39   O  BGC C   3      16.889   8.577  14.7480  0.00  0.00     0.000 O
ATOM     41  HD  BGC C   3      17.129   8.105  15.4330  0.00  0.00     0.000 HD
ATOM     41   C  BGC C   3      20.082   4.720  14.0080  0.00  0.00     0.000 C
ATOM     42   O  BGC C   3      19.028   3.693  13.9910  0.00  0.00     0.000 O
ATOM     44  HD  BGC C   3      19.267   3.221  14.6770  0.00  0.00     0.000 HD
BRANCH 31 44
ATOM     44  O4  BGC C   4      18.355   7.050  10.3990  0.00  0.00     0.000 O
BRANCH 44 48
ATOM     45  C1  BGC C   4      19.614   7.177   6.5060  0.00  0.00     0.000 C
ATOM     46  C2  BGC C   4      20.561   6.296   7.3820  0.00  0.00     0.000 C
ATOM     47  C3  BGC C   4      19.747   6.141   8.6730  0.00  0.00     0.000 C
ATOM     48  C4  BGC C   4      19.197   7.388   9.3370  0.00  0.00     0.000 C
ATOM     49  C5  BGC C   4      18.317   8.081   8.2850  0.00  0.00     0.000 C
ATOM     50  O5  BGC C   4      19.033   8.335   7.1270  0.00  0.00     0.000 O
ATOM     51   O  BGC C   4      21.030   4.893   6.9570  0.00  0.00     0.000 O
ATOM     53  HD  BGC C   4      21.451   4.491   7.5980  0.00  0.00     0.000 HD
ATOM     53   O  BGC C   4      20.831   5.673   9.6040  0.00  0.00     0.000 O
ATOM     55  HD  BGC C   4      21.253   5.271  10.2460  0.00  0.00     0.000 HD
ATOM     55   C  BGC C   4      17.840   9.426   8.7680  0.00  0.00     0.000 C
ATOM     56   O  BGC C   4      18.867  10.342   9.1640  0.00  0.00     0.000 O
ATOM     58  HD  BGC C   4      19.288   9.941   9.8050  0.00  0.00     0.000 HD
BRANCH 45 58
ATOM     58  O4  BGC C   5      20.250   7.655   5.3580  0.00  0.00     0.000 O
BRANCH 58 62
ATOM     59  C1  BGC C   5      20.436   5.197   3.5470  0.00  0.00     0.000 C
ATOM     60  C2  BGC C   5      21.057   6.286   2.8240  0.00  0.00     0.000 C
ATOM     61  C3  BGC C   5      20.263   7.589   2.8780  0.00  0.00     0.000 C
ATOM     62  C4  BGC C   5      19.440   7.612   4.1580  0.00  0.00     0.000 C
ATOM     63  C5  BGC C   5      18.794   6.253   4.3010  0.00  0.00     0.000 C
ATOM     64  O5  BGC C   5      19.292   5.181   3.5030  0.00  0.00     0.000 O
ATOM     65   O  BGC C   5      16.953   6.716   2.8060  0.00  0.00     0.000 O
ATOM     67  HD  BGC C   5      17.239   6.707   3.6240  0.00  0.00     0.000 HD
ATOM     67   O  BGC C   5      16.953   6.716   2.8060  0.00  0.00     0.000 O
ATOM     69  HD  BGC C   5      17.239   6.707   3.6240  0.00  0.00     0.000 HD
ENDBRANCH 58 62
ENDBRANCH 45 58
ENDBRANCH 44 48
ENDBRANCH 31 44
ENDBRANCH 30 34
ENDBRANCH 17 30
ENDBRANCH 16 20
ENDBRANCH 1 16
TORSDOF 8
ENDMDL
MODEL 84
REMARK VINA RESULT:      -1.4     11.357     14.973
ROOT
ATOM      1  C1  BGC C   1      13.655  20.999  12.2950  0.00  0.00     0.000 C
ATOM      2  C2  BGC C   1      14.225  22.321  12.8070  0.00  0.00     0.000 C
ATOM      3  C3  BGC C   1      13.275  22.940  13.8250  0.00  0.00     0.000 C
ATOM      4  C4  BGC C   1      11.847  23.010  13.3120  0.00  0.00     0.000 C
ATOM      5  C5  BGC C   1      11.445  21.678  12.6840  0.00  0.00     0.000 C
ATOM      6  O5  BGC C   1      12.386  21.171  11.7920  0.00  0.00     0.000 O
ATOM      7   O  BGC C   1      15.469  22.042  13.4040  0.00  0.00     0.000 O
ATOM      9  HD  BGC C   1      15.191  22.816  13.1330  0.00  0.00     0.000 HD
ATOM      9   O  BGC C   1      13.783  24.234  14.1780  0.00  0.00     0.000 O
ATOM     11  HD  BGC C   1      13.505  25.008  13.9070  0.00  0.00     0.000 HD
ATOM     11   O  BGC C   1      11.022  23.318  14.4300  0.00  0.00     0.000 O
ATOM     13  HD  BGC C   1      10.744  24.093  14.1580  0.00  0.00     0.000 HD
ATOM     13   O  BGC C   1      10.285  22.731  10.7660  0.00  0.00     0.000 O
ATOM     15  HD  BGC C   1      10.007  23.505  10.4940  0.00  0.00     0.000 HD
ATOM     15   C  BGC C   1      10.116  21.882  11.9340  0.00  0.00     0.000 C
ENDROOT
BRANCH 1 16
ATOM     16  O4  BGC C   2      14.460  20.541  11.2340  0.00  0.00     0.000 O
BRANCH 16 20
ATOM     17  C1  BGC C   2      15.632  16.963   9.6540  0.00  0.00     0.000 C
ATOM     18  C2  BGC C   2      14.283  17.486   9.1880  0.00  0.00     0.000 C
ATOM     19  C3  BGC C   2      14.121  18.957   9.5430  0.00  0.00     0.000 C
ATOM     20  C4  BGC C   2      14.414  19.155  10.9920  0.00  0.00     0.000 C
ATOM     21  C5  BGC C   2      15.753  18.529  11.3720  0.00  0.00     0.000 C
ATOM     22  O5  BGC C   2      15.786  17.177  11.0280  0.00  0.00     0.000 O
ATOM     23   O  BGC C   2      14.178  17.298   7.7680  0.00  0.00     0.000 O
ATOM     25  HD  BGC C   2      13.802  17.988   7.4040  0.00  0.00     0.000 HD
ATOM     25   O  BGC C   2      12.787  19.362   9.2620  0.00  0.00     0.000 O
ATOM     27  HD  BGC C   2      12.411  20.052   8.8980  0.00  0.00     0.000 HD
ATOM     27   C  BGC C   2      16.132  18.668  12.8610  0.00  0.00     0.000 C
ATOM     28   O  BGC C   2      15.092  18.161  13.7130  0.00  0.00     0.000 O
ATOM     30  HD  BGC C   2      14.716  18.851  13.3490  0.00  0.00     0.000 HD
BRANCH 17 30
ATOM     30  O4  BGC C   3      15.707  15.576   9.4030  0.00  0.00     0.000 O
BRANCH 30 34
ATOM     31  C1  BGC C   3      18.355  12.715   8.3340  0.00  0.00     0.000 C
ATOM     32  C2  BGC C   3      18.334  13.083   9.8370  0.00  0.00     0.000 C
ATOM     33  C3  BGC C   3      17.117  13.869  10.1830  0.00  0.00     0.000 C
ATOM     34  C4  BGC C   3      17.008  15.043   9.2070  0.00  0.00     0.000 C
ATOM     35  C5  BGC C   3      17.160  14.635   7.7190  0.00  0.00     0.000 C
ATOM     36  O5  BGC C   3      18.331  13.877   7.5430  0.00  0.00     0.000 O
ATOM     37   O  BGC C   3      18.419  12.036  10.7860  0.00  0.00     0.000 O
ATOM     39  HD  BGC C   3      18.063  12.800  10.5870  0.00  0.00     0.000 HD
ATOM     39   O  BGC C   3      17.194  14.336  11.5620  0.00  0.00     0.000 O
ATOM     41  HD  BGC C   3      16.838  15.100  11.3630  0.00  0.00     0.000 HD
ATOM     41   C  BGC C   3      17.237  15.814   6.7210  0.00  0.00     0.000 C
ATOM     42   O  BGC C   3      18.412  16.689   6.8740  0.00  0.00     0.000 O
ATOM     44  HD  BGC C   3      18.056  17.453   6.6740  0.00  0.00     0.000 HD
BRANCH 31 44
ATOM     44  O4  BGC C   4      19.490  11.981   8.0160  0.00  0.00     0.000 O
BRANCH 44 48
ATOM     45  C1  BGC C   4      20.926   8.833   5.8290  0.00  0.00     0.000 C
ATOM     46  C2  BGC C   4      20.610  10.062   4.9180  0.00  0.00     0.000 C
ATOM     47  C3  BGC C   4      20.399  11.177   5.9500  0.00  0.00     0.000 C
ATOM     48  C4  BGC C   4      19.436  10.933   7.0940  0.00  0.00     0.000 C
ATOM     49  C5  BGC C   4      19.947   9.681   7.8250  0.00  0.00     0.000 C
ATOM     50  O5  BGC C   4      20.063   8.610   6.9540  0.00  0.00     0.000 O
ATOM     51   O  BGC C   4      21.590  10.591   3.8550  0.00  0.00     0.000 O
ATOM     53  HD  BGC C   4      21.319  11.342   3.5190  0.00  0.00     0.000 HD
ATOM     53   O  BGC C   4      19.702  12.194   5.0890  0.00  0.00     0.000 O
ATOM     55  HD  BGC C   4      19.430  12.945   4.7520  0.00  0.00     0.000 HD
ATOM     55   C  BGC C   4      18.980   9.234   8.8900  0.00  0.00     0.000 C
ATOM     56   O  BGC C   4      17.643   8.976   8.4440  0.00  0.00     0.000 O
ATOM     58  HD  BGC C   4      17.372   9.726   8.1080  0.00  0.00     0.000 HD
BRANCH 45 58
ATOM     58  O4  BGC C   5      20.920   7.632   5.1160  0.00  0.00     0.000 O
BRANCH 58 62
ATOM     59  C1  BGC C   5      20.434   4.985   3.6630  0.00  0.00     0.000 C
ATOM     60  C2  BGC C   5      21.240   5.796   2.7760  0.00  0.00     0.000 C
ATOM     61  C3  BGC C   5      20.766   7.244   2.6700  0.00  0.00     0.000 C
ATOM     62  C4  BGC C   5      20.049   7.624   3.9580  0.00  0.00     0.000 C
ATOM     63  C5  BGC C   5      19.123   6.483   4.3090  0.00  0.00     0.000 C
ATOM     64  O5  BGC C   5      19.315   5.229   3.6560  0.00  0.00     0.000 O
ATOM     65   O  BGC C   5      17.346   7.163   2.8200  0.00  0.00     0.000 O
ATOM     67  HD  BGC C   5      17.673   7.194   3.6210  0.00  0.00     0.000 HD
ATOM     67   O  BGC C   5      17.346   7.163   2.8200  0.00  0.00     0.000 O
ATOM     69  HD  BGC C   5      17.673   7.194   3.6210  0.00  0.00     0.000 HD
ENDBRANCH 58 62
ENDBRANCH 45 58
ENDBRANCH 44 48
ENDBRANCH 31 44
ENDBRANCH 30 34
ENDBRANCH 17 30
ENDBRANCH 16 20
ENDBRANCH 1 16
TORSDOF 8
ENDMDL
MODEL 85
REMARK VINA RESULT:      -1.4     11.056     15.025
ROOT
ATOM      1  C1  BGC C   1      15.838   4.919  22.4400  0.00  0.00     0.000 C
ATOM      2  C2  BGC C   1      16.731   5.672  23.4250  0.00  0.00     0.000 C
ATOM      3  C3  BGC C   1      16.572   5.089  24.8240  0.00  0.00     0.000 C
ATOM      4  C4  BGC C   1      15.114   4.970  25.2360  0.00  0.00     0.000 C
ATOM      5  C5  BGC C   1      14.297   4.345  24.1100  0.00  0.00     0.000 C
ATOM      6  O5  BGC C   1      14.528   4.918  22.8620  0.00  0.00     0.000 O
ATOM      7   O  BGC C   1      18.060   5.532  22.9840  0.00  0.00     0.000 O
ATOM      9  HD  BGC C   1      17.761   6.131  23.5340  0.00  0.00     0.000 HD
ATOM      9   O  BGC C   1      17.322   5.905  25.7340  0.00  0.00     0.000 O
ATOM     11  HD  BGC C   1      17.024   6.504  26.2830  0.00  0.00     0.000 HD
ATOM     11   O  BGC C   1      15.082   4.157  26.4040  0.00  0.00     0.000 O
ATOM     13  HD  BGC C   1      14.783   4.756  26.9540  0.00  0.00     0.000 HD
ATOM     13   O  BGC C   1      12.388   5.897  24.3980  0.00  0.00     0.000 O
ATOM     15  HD  BGC C   1      12.089   6.496  24.9470  0.00  0.00     0.000 HD
ATOM     15   C  BGC C   1      12.805   4.505  24.4540  0.00  0.00     0.000 C
ENDROOT
BRANCH 1 16
ATOM     16  O4  BGC C   2      15.871   5.587  21.2010  0.00  0.00     0.000 O
BRANCH 16 20
ATOM     17  C1  BGC C   2      14.632   4.875  17.3750  0.00  0.00     0.000 C
ATOM     18  C2  BGC C   2      13.616   5.542  18.2900  0.00  0.00     0.000 C
ATOM     19  C3  BGC C   2      14.290   6.080  19.5440  0.00  0.00     0.000 C
ATOM     20  C4  BGC C   2      15.104   5.001  20.1760  0.00  0.00     0.000 C
ATOM     21  C5  BGC C   2      16.033   4.347  19.1580  0.00  0.00     0.000 C
ATOM     22  O5  BGC C   2      15.313   3.865  18.0630  0.00  0.00     0.000 O
ATOM     23   O  BGC C   2      12.973   6.604  17.5700  0.00  0.00     0.000 O
ATOM     25  HD  BGC C   2      12.867   7.291  18.0870  0.00  0.00     0.000 HD
ATOM     25   O  BGC C   2      13.293   6.528  20.4540  0.00  0.00     0.000 O
ATOM     27  HD  BGC C   2      13.188   7.215  20.9710  0.00  0.00     0.000 HD
ATOM     27   C  BGC C   2      16.903   3.203  19.7180  0.00  0.00     0.000 C
ATOM     28   O  BGC C   2      16.096   2.203  20.3610  0.00  0.00     0.000 O
ATOM     30  HD  BGC C   2      15.990   2.890  20.8780  0.00  0.00     0.000 HD
BRANCH 17 30
ATOM     30  O4  BGC C   3      13.961   4.297  16.2760  0.00  0.00     0.000 O
BRANCH 30 34
ATOM     31  C1  BGC C   3      14.431   3.627  12.3180  0.00  0.00     0.000 C
ATOM     32  C2  BGC C   3      15.062   2.571  13.2570  0.00  0.00     0.000 C
ATOM     33  C3  BGC C   3      14.548   2.711  14.6480  0.00  0.00     0.000 C
ATOM     34  C4  BGC C   3      14.712   4.170  15.0780  0.00  0.00     0.000 C
ATOM     35  C5  BGC C   3      14.174   5.192  14.0440  0.00  0.00     0.000 C
ATOM     36  O5  BGC C   3      14.717   4.926  12.7740  0.00  0.00     0.000 O
ATOM     37   O  BGC C   3      14.930   1.204  12.9160  0.00  0.00     0.000 O
ATOM     39  HD  BGC C   3      14.940   1.789  13.5540  0.00  0.00     0.000 HD
ATOM     39   O  BGC C   3      15.268   1.814  15.5440  0.00  0.00     0.000 O
ATOM     41  HD  BGC C   3      15.278   2.399  16.1820  0.00  0.00     0.000 HD
ATOM     41   C  BGC C   3      14.486   6.672  14.3600  0.00  0.00     0.000 C
ATOM     42   O  BGC C   3      15.916   7.027  14.3570  0.00  0.00     0.000 O
ATOM     44  HD  BGC C   3      15.926   7.611  14.9960  0.00  0.00     0.000 HD
BRANCH 31 44
ATOM     44  O4  BGC C   4      14.911   3.492  11.0220  0.00  0.00     0.000 O
BRANCH 44 48
ATOM     45  C1  BGC C   4      13.922   3.686   7.0550  0.00  0.00     0.000 C
ATOM     46  C2  BGC C   4      13.948   5.106   7.7040  0.00  0.00     0.000 C
ATOM     47  C3  BGC C   4      14.626   4.827   9.0520  0.00  0.00     0.000 C
ATOM     48  C4  BGC C   4      14.082   3.709   9.9200  0.00  0.00     0.000 C
ATOM     49  C5  BGC C   4      14.147   2.433   9.0650  0.00  0.00     0.000 C
ATOM     50  O5  BGC C   4      13.464   2.598   7.8720  0.00  0.00     0.000 O
ATOM     51   O  BGC C   4      14.666   6.307   7.0630  0.00  0.00     0.000 O
ATOM     53  HD  BGC C   4      14.688   6.987   7.5990  0.00  0.00     0.000 HD
ATOM     53   O  BGC C   4      14.255   6.083   9.7910  0.00  0.00     0.000 O
ATOM     55  HD  BGC C   4      14.277   6.763  10.3270  0.00  0.00     0.000 HD
ATOM     55   C  BGC C   4      13.479   1.274   9.7580  0.00  0.00     0.000 C
ATOM     56   O  BGC C   4      12.115   1.483  10.1410  0.00  0.00     0.000 O
ATOM     58  HD  BGC C   4      12.137   2.163  10.6780  0.00  0.00     0.000 HD
BRANCH 45 58
ATOM     58  O4  BGC C   5      13.126   3.645   5.9070  0.00  0.00     0.000 O
BRANCH 58 62
ATOM     59  C1  BGC C   5      11.852   1.861   3.7760  0.00  0.00     0.000 C
ATOM     60  C2  BGC C   5      12.965   1.115   4.3220  0.00  0.00     0.000 C
ATOM     61  C3  BGC C   5      14.237   1.943   4.4850  0.00  0.00     0.000 C
ATOM     62  C4  BGC C   5      13.853   3.403   4.6780  0.00  0.00     0.000 C
ATOM     63  C5  BGC C   5      12.791   3.727   3.6530  0.00  0.00     0.000 C
ATOM     64  O5  BGC C   5      12.137   2.645   2.9920  0.00  0.00     0.000 O
ATOM     65   O  BGC C   5      14.336   4.108   1.8350  0.00  0.00     0.000 O
ATOM     67  HD  BGC C   5      13.873   4.456   2.4790  0.00  0.00     0.000 HD
ATOM     67   O  BGC C   5      14.336   4.108   1.8350  0.00  0.00     0.000 O
ATOM     69  HD  BGC C   5      13.873   4.456   2.4790  0.00  0.00     0.000 HD
ENDBRANCH 58 62
ENDBRANCH 45 58
ENDBRANCH 44 48
ENDBRANCH 31 44
ENDBRANCH 30 34
ENDBRANCH 17 30
ENDBRANCH 16 20
ENDBRANCH 1 16
TORSDOF 8
ENDMDL
MODEL 86
REMARK VINA RESULT:      -1.4      9.558     13.208
ROOT
ATOM      1  C1  BGC C   1      18.218  12.855   1.6890  0.00  0.00     0.000 C
ATOM      2  C2  BGC C   1      18.259  14.014   0.6940  0.00  0.00     0.000 C
ATOM      3  C3  BGC C   1      17.160  15.019   1.0180  0.00  0.00     0.000 C
ATOM      4  C4  BGC C   1      15.802  14.354   1.1770  0.00  0.00     0.000 C
ATOM      5  C5  BGC C   1      15.920  13.120   2.0670  0.00  0.00     0.000 C
ATOM      6  O5  BGC C   1      16.971  12.275   1.7190  0.00  0.00     0.000 O
ATOM      7   O  BGC C   1      19.524  14.622   0.8050  0.00  0.00     0.000 O
ATOM      9  HD  BGC C   1      18.974  14.698   0.1410  0.00  0.00     0.000 HD
ATOM      9   O  BGC C   1      17.151  16.016  -0.0120  0.00  0.00     0.000 O
ATOM     11  HD  BGC C   1      16.601  16.092  -0.6770  0.00  0.00     0.000 HD
ATOM     11   O  BGC C   1      14.935  15.323   1.7580  0.00  0.00     0.000 O
ATOM     13  HD  BGC C   1      14.385  15.399   1.0930  0.00  0.00     0.000 HD
ATOM     13   O  BGC C   1      14.427  11.741   0.6500  0.00  0.00     0.000 O
ATOM     15  HD  BGC C   1      13.877  11.817  -0.0150  0.00  0.00     0.000 HD
ATOM     15   C  BGC C   1      14.602  12.330   1.9680  0.00  0.00     0.000 C
ENDROOT
BRANCH 1 16
ATOM     16  O4  BGC C   2      19.123  11.864   1.2630  0.00  0.00     0.000 O
BRANCH 16 20
ATOM     17  C1  BGC C   2      21.780   9.232   2.9040  0.00  0.00     0.000 C
ATOM     18  C2  BGC C   2      20.314   8.984   3.2240  0.00  0.00     0.000 C
ATOM     19  C3  BGC C   2      19.415   9.778   2.2870  0.00  0.00     0.000 C
ATOM     20  C4  BGC C   2      19.832  11.210   2.2880  0.00  0.00     0.000 C
ATOM     21  C5  BGC C   2      21.331  11.344   2.0340  0.00  0.00     0.000 C
ATOM     22  O5  BGC C   2      22.062  10.601   2.9620  0.00  0.00     0.000 O
ATOM     23   O  BGC C   2      20.046   7.578   3.1060  0.00  0.00     0.000 O
ATOM     25  HD  BGC C   2      19.277   7.453   2.7280  0.00  0.00     0.000 HD
ATOM     25   O  BGC C   2      18.067   9.668   2.7290  0.00  0.00     0.000 O
ATOM     27  HD  BGC C   2      17.298   9.543   2.3510  0.00  0.00     0.000 HD
ATOM     27   C  BGC C   2      21.859  12.794   2.0370  0.00  0.00     0.000 C
ATOM     28   O  BGC C   2      21.503  13.475   3.2510  0.00  0.00     0.000 O
ATOM     30  HD  BGC C   2      20.733  13.350   2.8730  0.00  0.00     0.000 HD
BRANCH 17 30
ATOM     30  O4  BGC C   3      22.583   8.566   3.8540  0.00  0.00     0.000 O
BRANCH 30 34
ATOM     31  C1  BGC C   3      26.078   6.562   4.1820  0.00  0.00     0.000 C
ATOM     32  C2  BGC C   3      26.192   8.104   4.1270  0.00  0.00     0.000 C
ATOM     33  C3  BGC C   3      24.870   8.750   4.3570  0.00  0.00     0.000 C
ATOM     34  C4  BGC C   3      23.853   8.121   3.4010  0.00  0.00     0.000 C
ATOM     35  C5  BGC C   3      23.867   6.571   3.4050  0.00  0.00     0.000 C
ATOM     36  O5  BGC C   3      25.177   6.099   3.2070  0.00  0.00     0.000 O
ATOM     37   O  BGC C   3      27.107   8.742   4.9980  0.00  0.00     0.000 O
ATOM     39  HD  BGC C   3      26.329   8.778   4.6190  0.00  0.00     0.000 HD
ATOM     39   O  BGC C   3      24.969  10.190   4.1460  0.00  0.00     0.000 O
ATOM     41  HD  BGC C   3      24.191  10.226   3.7670  0.00  0.00     0.000 HD
ATOM     41   C  BGC C   3      22.986   5.905   2.3240  0.00  0.00     0.000 C
ATOM     42   O  BGC C   3      23.393   6.166   0.9330  0.00  0.00     0.000 O
ATOM     44  HD  BGC C   3      22.616   6.202   0.5530  0.00  0.00     0.000 HD
BRANCH 31 44
ATOM     44  O4  BGC C   4      27.313   5.963   3.9700  0.00  0.00     0.000 O
BRANCH 44 48
ATOM     45  C1  BGC C   4      29.826   2.975   5.1980  0.00  0.00     0.000 C
ATOM     46  C2  BGC C   4      28.467   2.400   4.6850  0.00  0.00     0.000 C
ATOM     47  C3  BGC C   4      27.840   3.625   4.0080  0.00  0.00     0.000 C
ATOM     48  C4  BGC C   4      27.760   4.923   4.7880  0.00  0.00     0.000 C
ATOM     49  C5  BGC C   4      29.203   5.271   5.1880  0.00  0.00     0.000 C
ATOM     50  O5  BGC C   4      29.788   4.231   5.8920  0.00  0.00     0.000 O
ATOM     51   O  BGC C   4      28.375   1.225   3.6950  0.00  0.00     0.000 O
ATOM     53  HD  BGC C   4      27.563   1.104   3.4210  0.00  0.00     0.000 HD
ATOM     53   O  BGC C   4      26.412   3.162   3.9130  0.00  0.00     0.000 O
ATOM     55  HD  BGC C   4      25.599   3.041   3.6390  0.00  0.00     0.000 HD
ATOM     55   C  BGC C   4      29.244   6.459   6.1130  0.00  0.00     0.000 C
ATOM     56   O  BGC C   4      28.466   6.341   7.3100  0.00  0.00     0.000 O
ATOM     58  HD  BGC C   4      27.653   6.220   7.0350  0.00  0.00     0.000 HD
BRANCH 45 58
ATOM     58  O4  BGC C   5      30.476   2.094   6.0660  0.00  0.00     0.000 O
BRANCH 58 62
ATOM     59  C1  BGC C   5      31.365   0.050   8.1600  0.00  0.00     0.000 C
ATOM     60  C2  BGC C   5      29.924   0.138   8.2600  0.00  0.00     0.000 C
ATOM     61  C3  BGC C   5      29.394   1.569   8.2360  0.00  0.00     0.000 C
ATOM     62  C4  BGC C   5      30.374   2.445   7.4680  0.00  0.00     0.000 C
ATOM     63  C5  BGC C   5      31.763   2.093   7.9500  0.00  0.00     0.000 C
ATOM     64  O5  BGC C   5      31.936   0.887   8.6910  0.00  0.00     0.000 O
ATOM     65   O  BGC C   5      31.678   3.480   9.9260  0.00  0.00     0.000 O
ATOM     67  HD  BGC C   5      31.910   3.416   9.0940  0.00  0.00     0.000 HD
ATOM     67   O  BGC C   5      31.678   3.480   9.9260  0.00  0.00     0.000 O
ATOM     69  HD  BGC C   5      31.910   3.416   9.0940  0.00  0.00     0.000 HD
ENDBRANCH 58 62
ENDBRANCH 45 58
ENDBRANCH 44 48
ENDBRANCH 31 44
ENDBRANCH 30 34
ENDBRANCH 17 30
ENDBRANCH 16 20
ENDBRANCH 1 16
TORSDOF 8
ENDMDL
MODEL 87
REMARK VINA RESULT:      -1.4     12.410     15.714
ROOT
ATOM      1  C1  BGC C   1       8.711  19.547  16.0990  0.00  0.00     0.000 C
ATOM      2  C2  BGC C   1       9.580  20.290  17.1130  0.00  0.00     0.000 C
ATOM      3  C3  BGC C   1       8.778  20.576  18.3780  0.00  0.00     0.000 C
ATOM      4  C4  BGC C   1       7.440  21.228  18.0750  0.00  0.00     0.000 C
ATOM      5  C5  BGC C   1       6.736  20.489  16.9400  0.00  0.00     0.000 C
ATOM      6  O5  BGC C   1       7.552  20.242  15.8400  0.00  0.00     0.000 O
ATOM      7   O  BGC C   1      10.683  19.467  17.4090  0.00  0.00     0.000 O
ATOM      9  HD  BGC C   1      10.626  20.320  17.5490  0.00  0.00     0.000 HD
ATOM      9   O  BGC C   1       9.586  21.384  19.2440  0.00  0.00     0.000 O
ATOM     11  HD  BGC C   1       9.529  22.237  19.3840  0.00  0.00     0.000 HD
ATOM     11   O  BGC C   1       6.674  21.173  19.2740  0.00  0.00     0.000 O
ATOM     13  HD  BGC C   1       6.617  22.026  19.4140  0.00  0.00     0.000 HD
ATOM     13   O  BGC C   1       5.971  22.566  15.8270  0.00  0.00     0.000 O
ATOM     15  HD  BGC C   1       5.914  23.419  15.9680  0.00  0.00     0.000 HD
ATOM     15   C  BGC C   1       5.539  21.342  16.4820  0.00  0.00     0.000 C
ENDROOT
BRANCH 1 16
ATOM     16  O4  BGC C   2       9.417  19.454  14.8840  0.00  0.00     0.000 O
BRANCH 16 20
ATOM     17  C1  BGC C   2       9.782  16.829  11.7780  0.00  0.00     0.000 C
ATOM     18  C2  BGC C   2       8.558  17.731  11.7460  0.00  0.00     0.000 C
ATOM     19  C3  BGC C   2       8.714  18.887  12.7230  0.00  0.00     0.000 C
ATOM     20  C4  BGC C   2       9.078  18.358  14.0690  0.00  0.00     0.000 C
ATOM     21  C5  BGC C   2      10.267  17.405  13.9800  0.00  0.00     0.000 C
ATOM     22  O5  BGC C   2      10.011  16.370  13.0790  0.00  0.00     0.000 O
ATOM     23   O  BGC C   2       8.381  18.224  10.4090  0.00  0.00     0.000 O
ATOM     25  HD  BGC C   2       8.147  19.058  10.4290  0.00  0.00     0.000 HD
ATOM     25   O  BGC C   2       7.486  19.601  12.8030  0.00  0.00     0.000 O
ATOM     27  HD  BGC C   2       7.252  20.434  12.8220  0.00  0.00     0.000 HD
ATOM     27   C  BGC C   2      10.705  16.791  15.3260  0.00  0.00     0.000 C
ATOM     28   O  BGC C   2       9.604  16.143  15.9850  0.00  0.00     0.000 O
ATOM     30  HD  BGC C   2       9.371  16.977  16.0040  0.00  0.00     0.000 HD
BRANCH 17 30
ATOM     30  O4  BGC C   3       9.560  15.714  10.9410  0.00  0.00     0.000 O
BRANCH 30 34
ATOM     31  C1  BGC C   3      11.502  13.342   8.3060  0.00  0.00     0.000 C
ATOM     32  C2  BGC C   3      11.646  12.949   9.7960  0.00  0.00     0.000 C
ATOM     33  C3  BGC C   3      10.638  13.650  10.6380  0.00  0.00     0.000 C
ATOM     34  C4  BGC C   3      10.711  15.148  10.3330  0.00  0.00     0.000 C
ATOM     35  C5  BGC C   3      10.689  15.479   8.8190  0.00  0.00     0.000 C
ATOM     36  O5  BGC C   3      11.668  14.729   8.1440  0.00  0.00     0.000 O
ATOM     37   O  BGC C   3      11.573  11.578  10.1390  0.00  0.00     0.000 O
ATOM     39  HD  BGC C   3      11.369  12.388  10.3650  0.00  0.00     0.000 HD
ATOM     39   O  BGC C   3      10.891  13.387  12.0500  0.00  0.00     0.000 O
ATOM     41  HD  BGC C   3      10.686  14.198  12.2760  0.00  0.00     0.000 HD
ATOM     41   C  BGC C   3      10.945  16.963   8.4680  0.00  0.00     0.000 C
ATOM     42   O  BGC C   3      12.280  17.471   8.8260  0.00  0.00     0.000 O
ATOM     44  HD  BGC C   3      12.076  18.282   9.0520  0.00  0.00     0.000 HD
BRANCH 31 44
ATOM     44  O4  BGC C   4      12.443  12.685   7.5240  0.00  0.00     0.000 O
BRANCH 44 48
ATOM     45  C1  BGC C   4      13.101  10.848   3.9250  0.00  0.00     0.000 C
ATOM     46  C2  BGC C   4      12.933  12.392   3.7540  0.00  0.00     0.000 C
ATOM     47  C3  BGC C   4      13.014  12.884   5.2050  0.00  0.00     0.000 C
ATOM     48  C4  BGC C   4      12.124  12.229   6.2430  0.00  0.00     0.000 C
ATOM     49  C5  BGC C   4      12.463  10.731   6.2150  0.00  0.00     0.000 C
ATOM     50  O5  BGC C   4      12.311  10.210   4.9400  0.00  0.00     0.000 O
ATOM     51   O  BGC C   4      13.897  13.252   2.9170  0.00  0.00     0.000 O
ATOM     53  HD  BGC C   4      13.737  14.097   3.0170  0.00  0.00     0.000 HD
ATOM     53   O  BGC C   4      12.438  14.264   5.0400  0.00  0.00     0.000 O
ATOM     55  HD  BGC C   4      12.278  15.109   5.1400  0.00  0.00     0.000 HD
ATOM     55   C  BGC C   4      11.527   9.939   7.0890  0.00  0.00     0.000 C
ATOM     56   O  BGC C   4      10.132  10.086   6.7960  0.00  0.00     0.000 O
ATOM     58  HD  BGC C   4       9.972  10.931   6.8960  0.00  0.00     0.000 HD
BRANCH 45 58
ATOM     58  O4  BGC C   5      12.819  10.153   2.7470  0.00  0.00     0.000 O
BRANCH 58 62
ATOM     59  C1  BGC C   5      14.744  10.515   0.3980  0.00  0.00     0.000 C
ATOM     60  C2  BGC C   5      13.792   9.503  -0.0050  0.00  0.00     0.000 C
ATOM     61  C3  BGC C   5      13.514   8.459   1.0730  0.00  0.00     0.000 C
ATOM     62  C4  BGC C   5      13.750   9.086   2.4390  0.00  0.00     0.000 C
ATOM     63  C5  BGC C   5      15.048   9.857   2.3610  0.00  0.00     0.000 C
ATOM     64  O5  BGC C   5      15.590  10.139   1.0720  0.00  0.00     0.000 O
ATOM     65   O  BGC C   5      16.474   7.939   2.7120  0.00  0.00     0.000 O
ATOM     67  HD  BGC C   5      16.056   8.607   3.0710  0.00  0.00     0.000 HD
ATOM     67   O  BGC C   5      16.474   7.939   2.7120  0.00  0.00     0.000 O
ATOM     69  HD  BGC C   5      16.056   8.607   3.0710  0.00  0.00     0.000 HD
ENDBRANCH 58 62
ENDBRANCH 45 58
ENDBRANCH 44 48
ENDBRANCH 31 44
ENDBRANCH 30 34
ENDBRANCH 17 30
ENDBRANCH 16 20
ENDBRANCH 1 16
TORSDOF 8
ENDMDL
MODEL 88
REMARK VINA RESULT:      -1.4     12.446     25.516
ROOT
ATOM      1  C1  BGC C   1      42.007   7.660   5.4390  0.00  0.00     0.000 C
ATOM      2  C2  BGC C   1      43.016   8.310   4.4930  0.00  0.00     0.000 C
ATOM      3  C3  BGC C   1      44.436   7.962   4.9250  0.00  0.00     0.000 C
ATOM      4  C4  BGC C   1      44.670   8.233   6.4020  0.00  0.00     0.000 C
ATOM      5  C5  BGC C   1      43.518   7.672   7.2310  0.00  0.00     0.000 C
ATOM      6  O5  BGC C   1      42.259   8.012   6.7450  0.00  0.00     0.000 O
ATOM      7   O  BGC C   1      42.763   7.814   3.2000  0.00  0.00     0.000 O
ATOM      9  HD  BGC C   1      43.207   8.531   3.3980  0.00  0.00     0.000 HD
ATOM      9   O  BGC C   1      45.345   8.696   4.0940  0.00  0.00     0.000 O
ATOM     11  HD  BGC C   1      45.789   9.413   4.2920  0.00  0.00     0.000 HD
ATOM     11   O  BGC C   1      45.901   7.607   6.7450  0.00  0.00     0.000 O
ATOM     13  HD  BGC C   1      46.345   8.323   6.9430  0.00  0.00     0.000 HD
ATOM     13   O  BGC C   1      43.404   9.643   8.7270  0.00  0.00     0.000 O
ATOM     15  HD  BGC C   1      43.848  10.360   8.9250  0.00  0.00     0.000 HD
ATOM     15   C  BGC C   1      43.654   8.211   8.6660  0.00  0.00     0.000 C
ENDROOT
BRANCH 1 16
ATOM     16  O4  BGC C   2      40.721   8.138   5.1240  0.00  0.00     0.000 O
BRANCH 16 20
ATOM     17  C1  BGC C   2      36.872   6.777   5.2310  0.00  0.00     0.000 C
ATOM     18  C2  BGC C   2      37.422   7.320   6.5410  0.00  0.00     0.000 C
ATOM     19  C3  BGC C   2      38.697   8.117   6.3020  0.00  0.00     0.000 C
ATOM     20  C4  BGC C   2      39.654   7.301   5.5000  0.00  0.00     0.000 C
ATOM     21  C5  BGC C   2      38.982   6.742   4.2490  0.00  0.00     0.000 C
ATOM     22  O5  BGC C   2      37.843   6.007   4.5810  0.00  0.00     0.000 O
ATOM     23   O  BGC C   2      36.422   8.145   7.1570  0.00  0.00     0.000 O
ATOM     25  HD  BGC C   2      36.790   8.848   7.5040  0.00  0.00     0.000 HD
ATOM     25   O  BGC C   2      39.281   8.450   7.5560  0.00  0.00     0.000 O
ATOM     27  HD  BGC C   2      39.649   9.154   7.9020  0.00  0.00     0.000 HD
ATOM     27   C  BGC C   2      39.893   5.865   3.3640  0.00  0.00     0.000 C
ATOM     28   O  BGC C   2      40.486   4.799   4.1230  0.00  0.00     0.000 O
ATOM     30  HD  BGC C   2      40.853   5.502   4.4690  0.00  0.00     0.000 HD
BRANCH 17 30
ATOM     30  O4  BGC C   3      35.754   5.958   5.5000  0.00  0.00     0.000 O
BRANCH 30 34
ATOM     31  C1  BGC C   3      32.132   5.012   3.9770  0.00  0.00     0.000 C
ATOM     32  C2  BGC C   3      33.327   4.206   3.4140  0.00  0.00     0.000 C
ATOM     33  C3  BGC C   3      34.538   4.374   4.2650  0.00  0.00     0.000 C
ATOM     34  C4  BGC C   3      34.779   5.871   4.4710  0.00  0.00     0.000 C
ATOM     35  C5  BGC C   3      33.517   6.653   4.9150  0.00  0.00     0.000 C
ATOM     36  O5  BGC C   3      32.448   6.380   4.0430  0.00  0.00     0.000 O
ATOM     37   O  BGC C   3      33.166   2.814   3.2160  0.00  0.00     0.000 O
ATOM     39  HD  BGC C   3      33.700   3.449   3.4640  0.00  0.00     0.000 HD
ATOM     39   O  BGC C   3      35.689   3.737   3.6360  0.00  0.00     0.000 O
ATOM     41  HD  BGC C   3      36.223   4.371   3.8840  0.00  0.00     0.000 HD
ATOM     41   C  BGC C   3      33.677   8.190   4.9550  0.00  0.00     0.000 C
ATOM     42   O  BGC C   3      33.935   8.828   3.6530  0.00  0.00     0.000 O
ATOM     44  HD  BGC C   3      34.470   9.463   3.9010  0.00  0.00     0.000 HD
BRANCH 31 44
ATOM     44  O4  BGC C   4      31.005   4.851   3.1810  0.00  0.00     0.000 O
BRANCH 44 48
ATOM     45  C1  BGC C   4      26.934   4.417   3.2030  0.00  0.00     0.000 C
ATOM     46  C2  BGC C   4      27.353   5.874   3.5830  0.00  0.00     0.000 C
ATOM     47  C3  BGC C   4      28.842   5.883   3.2110  0.00  0.00     0.000 C
ATOM     48  C4  BGC C   4      29.729   4.776   3.7450  0.00  0.00     0.000 C
ATOM     49  C5  BGC C   4      29.111   3.457   3.2530  0.00  0.00     0.000 C
ATOM     50  O5  BGC C   4      27.787   3.351   3.6470  0.00  0.00     0.000 O
ATOM     51   O  BGC C   4      26.709   7.122   2.9530  0.00  0.00     0.000 O
ATOM     53  HD  BGC C   4      27.129   7.844   3.1800  0.00  0.00     0.000 HD
ATOM     53   O  BGC C   4      29.285   7.108   3.9630  0.00  0.00     0.000 O
ATOM     55  HD  BGC C   4      29.705   7.831   4.1900  0.00  0.00     0.000 HD
ATOM     55   C  BGC C   4      29.809   2.266   3.8550  0.00  0.00     0.000 C
ATOM     56   O  BGC C   4      29.853   2.231   5.2860  0.00  0.00     0.000 O
ATOM     58  HD  BGC C   4      30.273   2.954   5.5140  0.00  0.00     0.000 HD
BRANCH 45 58
ATOM     58  O4  BGC C   5      25.661   4.094   3.6790  0.00  0.00     0.000 O
BRANCH 58 62
ATOM     59  C1  BGC C   5      22.626   4.413   3.4960  0.00  0.00     0.000 C
ATOM     60  C2  BGC C   5      22.865   3.189   4.2280  0.00  0.00     0.000 C
ATOM     61  C3  BGC C   5      23.944   2.305   3.6090  0.00  0.00     0.000 C
ATOM     62  C4  BGC C   5      24.916   3.183   2.8340  0.00  0.00     0.000 C
ATOM     63  C5  BGC C   5      24.092   4.158   2.0250  0.00  0.00     0.000 C
ATOM     64  O5  BGC C   5      22.714   4.319   2.3590  0.00  0.00     0.000 O
ATOM     65   O  BGC C   5      23.635   2.626   0.2140  0.00  0.00     0.000 O
ATOM     67  HD  BGC C   5      24.146   3.254   0.5210  0.00  0.00     0.000 HD
ATOM     67   O  BGC C   5      23.635   2.626   0.2140  0.00  0.00     0.000 O
ATOM     69  HD  BGC C   5      24.146   3.254   0.5210  0.00  0.00     0.000 HD
ENDBRANCH 58 62
ENDBRANCH 45 58
ENDBRANCH 44 48
ENDBRANCH 31 44
ENDBRANCH 30 34
ENDBRANCH 17 30
ENDBRANCH 16 20
ENDBRANCH 1 16
TORSDOF 8
ENDMDL
MODEL 89
REMARK VINA RESULT:      -1.4     12.168     24.782
ROOT
ATOM      1  C1  BGC C   1      40.462   9.266   4.1940  0.00  0.00     0.000 C
ATOM      2  C2  BGC C   1      41.672   9.631   3.3350  0.00  0.00     0.000 C
ATOM      3  C3  BGC C   1      42.940   9.046   3.9460  0.00  0.00     0.000 C
ATOM      4  C4  BGC C   1      43.073   9.379   5.4230  0.00  0.00     0.000 C
ATOM      5  C5  BGC C   1      41.754   9.120   6.1440  0.00  0.00     0.000 C
ATOM      6  O5  BGC C   1      40.645   9.662   5.4990  0.00  0.00     0.000 O
ATOM      7   O  BGC C   1      41.457   9.096   2.0510  0.00  0.00     0.000 O
ATOM      9  HD  BGC C   1      42.014   9.725   2.2590  0.00  0.00     0.000 HD
ATOM      9   O  BGC C   1      44.060   9.521   3.1860  0.00  0.00     0.000 O
ATOM     11  HD  BGC C   1      44.618  10.150   3.3940  0.00  0.00     0.000 HD
ATOM     11   O  BGC C   1      44.110   8.552   5.9400  0.00  0.00     0.000 O
ATOM     13  HD  BGC C   1      44.668   9.181   6.1470  0.00  0.00     0.000 HD
ATOM     13   O  BGC C   1      41.891  11.185   7.5050  0.00  0.00     0.000 O
ATOM     15  HD  BGC C   1      42.449  11.814   7.7130  0.00  0.00     0.000 HD
ATOM     15   C  BGC C   1      41.849   9.732   7.5530  0.00  0.00     0.000 C
ENDROOT
BRANCH 1 16
ATOM     16  O4  BGC C   2      39.338   9.962   3.7060  0.00  0.00     0.000 O
BRANCH 16 20
ATOM     17  C1  BGC C   2      35.321   9.344   3.3120  0.00  0.00     0.000 C
ATOM     18  C2  BGC C   2      35.795   9.778   4.6900  0.00  0.00     0.000 C
ATOM     19  C3  BGC C   2      37.215  10.322   4.6270  0.00  0.00     0.000 C
ATOM     20  C4  BGC C   2      38.096   9.340   3.9310  0.00  0.00     0.000 C
ATOM     21  C5  BGC C   2      37.493   8.912   2.5960  0.00  0.00     0.000 C
ATOM     22  O5  BGC C   2      36.205   8.405   2.7700  0.00  0.00     0.000 O
ATOM     23   O  BGC C   2      34.896  10.777   5.1960  0.00  0.00     0.000 O
ATOM     25  HD  BGC C   2      35.342  11.400   5.5990  0.00  0.00     0.000 HD
ATOM     25   O  BGC C   2      37.690  10.544   5.9490  0.00  0.00     0.000 O
ATOM     27  HD  BGC C   2      38.136  11.167   6.3520  0.00  0.00     0.000 HD
ATOM     27   C  BGC C   2      38.328   7.879   1.8120  0.00  0.00     0.000 C
ATOM     28   O  BGC C   2      38.614   6.723   2.6150  0.00  0.00     0.000 O
ATOM     30  HD  BGC C   2      39.059   7.346   3.0180  0.00  0.00     0.000 HD
BRANCH 17 30
ATOM     30  O4  BGC C   3      34.046   8.749   3.4240  0.00  0.00     0.000 O
BRANCH 30 34
ATOM     31  C1  BGC C   3      30.525   8.550   1.4490  0.00  0.00     0.000 C
ATOM     32  C2  BGC C   3      31.570   7.475   1.0660  0.00  0.00     0.000 C
ATOM     33  C3  BGC C   3      32.671   7.413   2.0680  0.00  0.00     0.000 C
ATOM     34  C4  BGC C   3      33.214   8.829   2.2760  0.00  0.00     0.000 C
ATOM     35  C5  BGC C   3      32.112   9.890   2.5330  0.00  0.00     0.000 C
ATOM     36  O5  BGC C   3      31.128   9.817   1.5320  0.00  0.00     0.000 O
ATOM     37   O  BGC C   3      31.127   6.145   0.8740  0.00  0.00     0.000 O
ATOM     39  HD  BGC C   3      31.755   6.658   1.1790  0.00  0.00     0.000 HD
ATOM     39   O  BGC C   3      33.719   6.510   1.6090  0.00  0.00     0.000 O
ATOM     41  HD  BGC C   3      34.347   7.023   1.9150  0.00  0.00     0.000 HD
ATOM     41   C  BGC C   3      32.607  11.354   2.5660  0.00  0.00     0.000 C
ATOM     42   O  BGC C   3      33.163  11.857   1.2990  0.00  0.00     0.000 O
ATOM     44  HD  BGC C   3      33.790  12.370   1.6040  0.00  0.00     0.000 HD
BRANCH 31 44
ATOM     44  O4  BGC C   4      29.500   8.603   0.5130  0.00  0.00     0.000 O
BRANCH 44 48
ATOM     45  C1  BGC C   4      25.479   9.203   0.0270  0.00  0.00     0.000 C
ATOM     46  C2  BGC C   4      26.138  10.376   0.8220  0.00  0.00     0.000 C
ATOM     47  C3  BGC C   4      27.633  10.103   0.6110  0.00  0.00     0.000 C
ATOM     48  C4  BGC C   4      28.165   8.716   0.9110  0.00  0.00     0.000 C
ATOM     49  C5  BGC C   4      27.362   7.748   0.0280  0.00  0.00     0.000 C
ATOM     50  O5  BGC C   4      26.002   7.884   0.2500  0.00  0.00     0.000 O
ATOM     51   O  BGC C   4      25.885  11.858   0.4900  0.00  0.00     0.000 O
ATOM     53  HD  BGC C   4      26.410  12.378   0.9410  0.00  0.00     0.000 HD
ATOM     53   O  BGC C   4      28.206  10.964   1.7020  0.00  0.00     0.000 O
ATOM     55  HD  BGC C   4      28.731  11.485   2.1540  0.00  0.00     0.000 HD
ATOM     55   C  BGC C   4      27.683   6.312   0.3530  0.00  0.00     0.000 C
ATOM     56   O  BGC C   4      27.494   5.929   1.7200  0.00  0.00     0.000 O
ATOM     58  HD  BGC C   4      28.019   6.450   2.1720  0.00  0.00     0.000 HD
BRANCH 45 58
ATOM     58  O4  BGC C   5      24.108   9.103   0.2750  0.00  0.00     0.000 O
BRANCH 58 62
ATOM     59  C1  BGC C   5      21.280   9.116   1.4390  0.00  0.00     0.000 C
ATOM     60  C2  BGC C   5      22.169   9.482   2.5200  0.00  0.00     0.000 C
ATOM     61  C3  BGC C   5      23.419   8.611   2.6070  0.00  0.00     0.000 C
ATOM     62  C4  BGC C   5      23.741   8.069   1.2210  0.00  0.00     0.000 C
ATOM     63  C5  BGC C   5      22.443   7.582   0.6180  0.00  0.00     0.000 C
ATOM     64  O5  BGC C   5      21.219   7.993   1.2250  0.00  0.00     0.000 O
ATOM     65   O  BGC C   5      22.460   5.441   1.7370  0.00  0.00     0.000 O
ATOM     67  HD  BGC C   5      22.666   5.889   1.0250  0.00  0.00     0.000 HD
ATOM     67   O  BGC C   5      22.460   5.441   1.7370  0.00  0.00     0.000 O
ATOM     69  HD  BGC C   5      22.666   5.889   1.0250  0.00  0.00     0.000 HD
ENDBRANCH 58 62
ENDBRANCH 45 58
ENDBRANCH 44 48
ENDBRANCH 31 44
ENDBRANCH 30 34
ENDBRANCH 17 30
ENDBRANCH 16 20
ENDBRANCH 1 16
TORSDOF 8
ENDMDL
MODEL 90
REMARK VINA RESULT:      -1.3     10.466     16.344
ROOT
ATOM      1  C1  BGC C   1      19.566   9.665  20.9620  0.00  0.00     0.000 C
ATOM      2  C2  BGC C   1      18.872  10.556  21.9920  0.00  0.00     0.000 C
ATOM      3  C3  BGC C   1      19.905  11.388  22.7420  0.00  0.00     0.000 C
ATOM      4  C4  BGC C   1      21.043  10.540  23.2860  0.00  0.00     0.000 C
ATOM      5  C5  BGC C   1      21.548   9.583  22.2100  0.00  0.00     0.000 C
ATOM      6  O5  BGC C   1      20.535   8.888  21.5550  0.00  0.00     0.000 O
ATOM      7   O  BGC C   1      17.981  11.394  21.2950  0.00  0.00     0.000 O
ATOM      9  HD  BGC C   1      17.962  11.215  22.1420  0.00  0.00     0.000 HD
ATOM      9   O  BGC C   1      19.228  12.107  23.7820  0.00  0.00     0.000 O
ATOM     11  HD  BGC C   1      19.209  11.928  24.6290  0.00  0.00     0.000 HD
ATOM     11   O  BGC C   1      22.068  11.439  23.6930  0.00  0.00     0.000 O
ATOM     13  HD  BGC C   1      22.049  11.260  24.5400  0.00  0.00     0.000 HD
ATOM     13   O  BGC C   1      21.765   7.669  23.7680  0.00  0.00     0.000 O
ATOM     15  HD  BGC C   1      21.746   7.490  24.6150  0.00  0.00     0.000 HD
ATOM     15   C  BGC C   1      22.489   8.563  22.8780  0.00  0.00     0.000 C
ENDROOT
BRANCH 1 16
ATOM     16  O4  BGC C   2      18.612   8.786  20.4130  0.00  0.00     0.000 O
BRANCH 16 20
ATOM     17  C1  BGC C   2      17.957   6.875  16.8640  0.00  0.00     0.000 C
ATOM     18  C2  BGC C   2      18.906   6.180  17.8270  0.00  0.00     0.000 C
ATOM     19  C3  BGC C   2      18.790   6.776  19.2230  0.00  0.00     0.000 C
ATOM     20  C4  BGC C   2      18.933   8.259  19.1470  0.00  0.00     0.000 C
ATOM     21  C5  BGC C   2      17.993   8.848  18.0990  0.00  0.00     0.000 C
ATOM     22  O5  BGC C   2      18.200   8.253  16.8540  0.00  0.00     0.000 O
ATOM     23   O  BGC C   2      18.597   4.779  17.8530  0.00  0.00     0.000 O
ATOM     25  HD  BGC C   2      18.647   4.478  18.6630  0.00  0.00     0.000 HD
ATOM     25   O  BGC C   2      19.814   6.235  20.0490  0.00  0.00     0.000 O
ATOM     27  HD  BGC C   2      19.864   5.934  20.8600  0.00  0.00     0.000 HD
ATOM     27   C  BGC C   2      18.085  10.379  17.9360  0.00  0.00     0.000 C
ATOM     28   O  BGC C   2      19.436  10.794  17.6740  0.00  0.00     0.000 O
ATOM     30  HD  BGC C   2      19.486  10.493  18.4840  0.00  0.00     0.000 HD
BRANCH 17 30
ATOM     30  O4  BGC C   3      18.165   6.372  15.5610  0.00  0.00     0.000 O
BRANCH 30 34
ATOM     31  C1  BGC C   3      16.092   5.347  12.2460  0.00  0.00     0.000 C
ATOM     32  C2  BGC C   3      16.518   6.831  12.3390  0.00  0.00     0.000 C
ATOM     33  C3  BGC C   3      17.551   7.031  13.3930  0.00  0.00     0.000 C
ATOM     34  C4  BGC C   3      17.043   6.400  14.6920  0.00  0.00     0.000 C
ATOM     35  C5  BGC C   3      16.512   4.954  14.5180  0.00  0.00     0.000 C
ATOM     36  O5  BGC C   3      15.570   4.906  13.4750  0.00  0.00     0.000 O
ATOM     37   O  BGC C   3      17.009   7.464  11.1710  0.00  0.00     0.000 O
ATOM     39  HD  BGC C   3      17.082   7.382  12.0300  0.00  0.00     0.000 HD
ATOM     39   O  BGC C   3      17.823   8.452  13.5700  0.00  0.00     0.000 O
ATOM     41  HD  BGC C   3      17.896   8.370  14.4290  0.00  0.00     0.000 HD
ATOM     41   C  BGC C   3      15.825   4.353  15.7660  0.00  0.00     0.000 C
ATOM     42   O  BGC C   3      14.592   5.035  16.1930  0.00  0.00     0.000 O
ATOM     44  HD  BGC C   3      14.665   4.953  17.0520  0.00  0.00     0.000 HD
BRANCH 31 44
ATOM     44  O4  BGC C   4      15.130   5.165  11.2610  0.00  0.00     0.000 O
BRANCH 44 48
ATOM     45  C1  BGC C   4      13.815   2.632   8.3260  0.00  0.00     0.000 C
ATOM     46  C2  BGC C   4      13.903   1.906   9.7070  0.00  0.00     0.000 C
ATOM     47  C3  BGC C   4      14.100   3.082  10.6720  0.00  0.00     0.000 C
ATOM     48  C4  BGC C   4      15.199   4.085  10.3780  0.00  0.00     0.000 C
ATOM     49  C5  BGC C   4      14.902   4.646   8.9780  0.00  0.00     0.000 C
ATOM     50  O5  BGC C   4      14.810   3.628   8.0430  0.00  0.00     0.000 O
ATOM     51   O  BGC C   4      12.767   1.031  10.2670  0.00  0.00     0.000 O
ATOM     53  HD  BGC C   4      12.920   0.798  11.0860  0.00  0.00     0.000 HD
ATOM     53   O  BGC C   4      14.593   2.339  11.8830  0.00  0.00     0.000 O
ATOM     55  HD  BGC C   4      14.746   2.106  12.7030  0.00  0.00     0.000 HD
ATOM     55   C  BGC C   4      16.017   5.538   8.4960  0.00  0.00     0.000 C
ATOM     56   O  BGC C   4      17.320   4.943   8.4710  0.00  0.00     0.000 O
ATOM     58  HD  BGC C   4      17.473   4.709   9.2910  0.00  0.00     0.000 HD
BRANCH 45 58
ATOM     58  O4  BGC C   5      13.874   1.737   7.2550  0.00  0.00     0.000 O
BRANCH 58 62
ATOM     59  C1  BGC C   5      13.891   0.045   4.7080  0.00  0.00     0.000 C
ATOM     60  C2  BGC C   5      15.233  -0.012   5.2450  0.00  0.00     0.000 C
ATOM     61  C3  BGC C   5      15.768   1.343   5.7020  0.00  0.00     0.000 C
ATOM     62  C4  BGC C   5      14.595   2.228   6.0990  0.00  0.00     0.000 C
ATOM     63  C5  BGC C   5      13.541   2.084   5.0260  0.00  0.00     0.000 C
ATOM     64  O5  BGC C   5      13.650   0.993   4.1130  0.00  0.00     0.000 O
ATOM     65   O  BGC C   5      14.548   3.664   3.5010  0.00  0.00     0.000 O
ATOM     67  HD  BGC C   5      13.973   3.534   4.1350  0.00  0.00     0.000 HD
ATOM     67   O  BGC C   5      14.548   3.664   3.5010  0.00  0.00     0.000 O
ATOM     69  HD  BGC C   5      13.973   3.534   4.1350  0.00  0.00     0.000 HD
ENDBRANCH 58 62
ENDBRANCH 45 58
ENDBRANCH 44 48
ENDBRANCH 31 44
ENDBRANCH 30 34
ENDBRANCH 17 30
ENDBRANCH 16 20
ENDBRANCH 1 16
TORSDOF 8
ENDMDL
MODEL 91
REMARK VINA RESULT:      -1.3     12.519     16.902
ROOT
ATOM      1  C1  BGC C   1      14.367  21.937  14.0350  0.00  0.00     0.000 C
ATOM      2  C2  BGC C   1      15.457  23.001  14.1620  0.00  0.00     0.000 C
ATOM      3  C3  BGC C   1      15.438  23.603  15.5630  0.00  0.00     0.000 C
ATOM      4  C4  BGC C   1      14.047  24.053  15.9770  0.00  0.00     0.000 C
ATOM      5  C5  BGC C   1      13.024  22.966  15.6570  0.00  0.00     0.000 C
ATOM      6  O5  BGC C   1      13.135  22.451  14.3690  0.00  0.00     0.000 O
ATOM      7   O  BGC C   1      16.692  22.372  13.9170  0.00  0.00     0.000 O
ATOM      9  HD  BGC C   1      16.532  23.223  13.8820  0.00  0.00     0.000 HD
ATOM      9   O  BGC C   1      16.383  24.681  15.5960  0.00  0.00     0.000 O
ATOM     11  HD  BGC C   1      16.223  25.531  15.5610  0.00  0.00     0.000 HD
ATOM     11   O  BGC C   1      14.098  24.313  17.3750  0.00  0.00     0.000 O
ATOM     13  HD  BGC C   1      13.938  25.163  17.3410  0.00  0.00     0.000 HD
ATOM     13   O  BGC C   1      11.334  24.565  14.8040  0.00  0.00     0.000 O
ATOM     15  HD  BGC C   1      11.174  25.415  14.7700  0.00  0.00     0.000 HD
ATOM     15   C  BGC C   1      11.617  23.569  15.8260  0.00  0.00     0.000 C
ENDROOT
BRANCH 1 16
ATOM     16  O4  BGC C   2      14.292  21.528  12.6900  0.00  0.00     0.000 O
BRANCH 16 20
ATOM     17  C1  BGC C   2      13.480  18.124  10.5850  0.00  0.00     0.000 C
ATOM     18  C2  BGC C   2      12.274  18.865  11.1410  0.00  0.00     0.000 C
ATOM     19  C3  BGC C   2      12.659  20.273  11.5750  0.00  0.00     0.000 C
ATOM     20  C4  BGC C   2      13.841  20.210  12.4820  0.00  0.00     0.000 C
ATOM     21  C5  BGC C   2      14.963  19.382  11.8640  0.00  0.00     0.000 C
ATOM     22  O5  BGC C   2      14.513  18.104  11.5280  0.00  0.00     0.000 O
ATOM     23   O  BGC C   2      11.253  18.912  10.1330  0.00  0.00     0.000 O
ATOM     25  HD  BGC C   2      10.871  19.689  10.1330  0.00  0.00     0.000 HD
ATOM     25   O  BGC C   2      11.561  20.869  12.2550  0.00  0.00     0.000 O
ATOM     27  HD  BGC C   2      11.178  21.645  12.2560  0.00  0.00     0.000 HD
ATOM     27   C  BGC C   2      16.224  19.245  12.7420  0.00  0.00     0.000 C
ATOM     28   O  BGC C   2      15.898  18.736  14.0450  0.00  0.00     0.000 O
ATOM     30  HD  BGC C   2      15.516  19.513  14.0460  0.00  0.00     0.000 HD
BRANCH 17 30
ATOM     30  O4  BGC C   3      13.113  16.793  10.2910  0.00  0.00     0.000 O
BRANCH 30 34
ATOM     31  C1  BGC C   3      13.830  13.824   7.6440  0.00  0.00     0.000 C
ATOM     32  C2  BGC C   3      14.953  14.089   8.6750  0.00  0.00     0.000 C
ATOM     33  C3  BGC C   3      14.464  14.937   9.7970  0.00  0.00     0.000 C
ATOM     34  C4  BGC C   3      13.793  16.180   9.2070  0.00  0.00     0.000 C
ATOM     35  C5  BGC C   3      12.766  15.864   8.0890  0.00  0.00     0.000 C
ATOM     36  O5  BGC C   3      13.351  15.035   7.1150  0.00  0.00     0.000 O
ATOM     37   O  BGC C   3      15.600  12.977   9.2650  0.00  0.00     0.000 O
ATOM     39  HD  BGC C   3      15.291  13.777   9.3850  0.00  0.00     0.000 HD
ATOM     39   O  BGC C   3      15.572  15.304  10.6720  0.00  0.00     0.000 O
ATOM     41  HD  BGC C   3      15.263  16.103  10.7920  0.00  0.00     0.000 HD
ATOM     41   C  BGC C   3      12.205  17.098   7.3460  0.00  0.00     0.000 C
ATOM     42   O  BGC C   3      13.196  17.872   6.5780  0.00  0.00     0.000 O
ATOM     44  HD  BGC C   3      12.886  18.671   6.6980  0.00  0.00     0.000 HD
BRANCH 31 44
ATOM     44  O4  BGC C   4      14.290  13.031   6.6000  0.00  0.00     0.000 O
BRANCH 44 48
ATOM     45  C1  BGC C   4      13.333   9.966   4.0600  0.00  0.00     0.000 C
ATOM     46  C2  BGC C   4      12.469  11.236   3.7710  0.00  0.00     0.000 C
ATOM     47  C3  BGC C   4      13.195  12.308   4.5950  0.00  0.00     0.000 C
ATOM     48  C4  BGC C   4      13.490  12.024   6.0540  0.00  0.00     0.000 C
ATOM     49  C5  BGC C   4      14.331  10.737   6.0780  0.00  0.00     0.000 C
ATOM     50  O5  BGC C   4      13.676   9.703   5.4300  0.00  0.00     0.000 O
ATOM     51   O  BGC C   4      12.259  11.801   2.3550  0.00  0.00     0.000 O
ATOM     53  HD  BGC C   4      11.857  12.568   2.3750  0.00  0.00     0.000 HD
ATOM     53   O  BGC C   4      12.127  13.367   4.6320  0.00  0.00     0.000 O
ATOM     55  HD  BGC C   4      11.725  14.134   4.6530  0.00  0.00     0.000 HD
ATOM     55   C  BGC C   4      14.554  10.254   7.4880  0.00  0.00     0.000 C
ATOM     56   O  BGC C   4      13.369  10.027   8.2600  0.00  0.00     0.000 O
ATOM     58  HD  BGC C   4      12.967  10.794   8.2810  0.00  0.00     0.000 HD
BRANCH 45 58
ATOM     58  O4  BGC C   5      12.721   8.797   3.6030  0.00  0.00     0.000 O
BRANCH 58 62
ATOM     59  C1  BGC C   5      12.302   6.720   1.3980  0.00  0.00     0.000 C
ATOM     60  C2  BGC C   5      11.886   6.094   2.6340  0.00  0.00     0.000 C
ATOM     61  C3  BGC C   5      12.850   6.327   3.7940  0.00  0.00     0.000 C
ATOM     62  C4  BGC C   5      13.589   7.638   3.5650  0.00  0.00     0.000 C
ATOM     63  C5  BGC C   5      14.027   7.659   2.1190  0.00  0.00     0.000 C
ATOM     64  O5  BGC C   5      13.433   6.727   1.2180  0.00  0.00     0.000 O
ATOM     65   O  BGC C   5      16.003   6.311   2.4570  0.00  0.00     0.000 O
ATOM     67  HD  BGC C   5      15.669   7.108   2.4070  0.00  0.00     0.000 HD
ATOM     67   O  BGC C   5      16.003   6.311   2.4570  0.00  0.00     0.000 O
ATOM     69  HD  BGC C   5      15.669   7.108   2.4070  0.00  0.00     0.000 HD
ENDBRANCH 58 62
ENDBRANCH 45 58
ENDBRANCH 44 48
ENDBRANCH 31 44
ENDBRANCH 30 34
ENDBRANCH 17 30
ENDBRANCH 16 20
ENDBRANCH 1 16
TORSDOF 8
ENDMDL
MODEL 92
REMARK VINA RESULT:      -1.3     11.680     19.636
ROOT
ATOM      1  C1  BGC C   1      26.981  13.299  20.1720  0.00  0.00     0.000 C
ATOM      2  C2  BGC C   1      28.282  14.034  20.4900  0.00  0.00     0.000 C
ATOM      3  C3  BGC C   1      28.508  14.066  21.9970  0.00  0.00     0.000 C
ATOM      4  C4  BGC C   1      27.286  14.562  22.7520  0.00  0.00     0.000 C
ATOM      5  C5  BGC C   1      26.029  13.867  22.2370  0.00  0.00     0.000 C
ATOM      6  O5  BGC C   1      25.921  13.856  20.8490  0.00  0.00     0.000 O
ATOM      7   O  BGC C   1      29.327  13.339  19.8530  0.00  0.00     0.000 O
ATOM      9  HD  BGC C   1      29.353  14.155  20.1410  0.00  0.00     0.000 HD
ATOM      9   O  BGC C   1      29.664  14.874  22.2560  0.00  0.00     0.000 O
ATOM     11  HD  BGC C   1      29.690  15.691  22.5440  0.00  0.00     0.000 HD
ATOM     11   O  BGC C   1      27.506  14.271  24.1280  0.00  0.00     0.000 O
ATOM     13  HD  BGC C   1      27.532  15.087  24.4160  0.00  0.00     0.000 HD
ATOM     13   O  BGC C   1      24.663  15.933  22.2650  0.00  0.00     0.000 O
ATOM     15  HD  BGC C   1      24.689  16.749  22.5540  0.00  0.00     0.000 HD
ATOM     15   C  BGC C   1      24.805  14.596  22.8200  0.00  0.00     0.000 C
ENDROOT
BRANCH 1 16
ATOM     16  O4  BGC C   2      26.710  13.438  18.7970  0.00  0.00     0.000 O
BRANCH 16 20
ATOM     17  C1  BGC C   2      24.904  11.278  15.8390  0.00  0.00     0.000 C
ATOM     18  C2  BGC C   2      23.980  12.119  16.7060  0.00  0.00     0.000 C
ATOM     19  C3  BGC C   2      24.775  13.138  17.5110  0.00  0.00     0.000 C
ATOM     20  C4  BGC C   2      25.879  12.448  18.2400  0.00  0.00     0.000 C
ATOM     21  C5  BGC C   2      26.696  11.572  17.2940  0.00  0.00     0.000 C
ATOM     22  O5  BGC C   2      25.878  10.658  16.6280  0.00  0.00     0.000 O
ATOM     23   O  BGC C   2      23.026  12.780  15.8620  0.00  0.00     0.000 O
ATOM     25  HD  BGC C   2      22.899  13.592  16.1360  0.00  0.00     0.000 HD
ATOM     25   O  BGC C   2      23.909  13.776  18.4420  0.00  0.00     0.000 O
ATOM     27  HD  BGC C   2      23.782  14.588  18.7160  0.00  0.00     0.000 HD
ATOM     27   C  BGC C   2      27.852  10.802  17.9650  0.00  0.00     0.000 C
ATOM     28   O  BGC C   2      27.382  10.021  19.0760  0.00  0.00     0.000 O
ATOM     30  HD  BGC C   2      27.255  10.832  19.3500  0.00  0.00     0.000 HD
BRANCH 17 30
ATOM     30  O4  BGC C   3      24.149  10.278  15.1890  0.00  0.00     0.000 O
BRANCH 30 34
ATOM     31  C1  BGC C   3      23.951   8.292  11.6740  0.00  0.00     0.000 C
ATOM     32  C2  BGC C   3      24.936   7.714  12.7160  0.00  0.00     0.000 C
ATOM     33  C3  BGC C   3      24.688   8.286  14.0690  0.00  0.00     0.000 C
ATOM     34  C4  BGC C   3      24.661   9.812  13.9500  0.00  0.00     0.000 C
ATOM     35  C5  BGC C   3      23.753  10.334  12.8070  0.00  0.00     0.000 C
ATOM     36  O5  BGC C   3      24.077   9.691  11.5990  0.00  0.00     0.000 O
ATOM     37   O  BGC C   3      24.994   6.309  12.8790  0.00  0.00     0.000 O
ATOM     39  HD  BGC C   3      25.021   7.081  13.2710  0.00  0.00     0.000 HD
ATOM     39   O  BGC C   3      25.721   7.848  14.9990  0.00  0.00     0.000 O
ATOM     41  HD  BGC C   3      25.749   8.620  15.3910  0.00  0.00     0.000 HD
ATOM     41   C  BGC C   3      23.844  11.854  12.5400  0.00  0.00     0.000 C
ATOM     42   O  BGC C   3      25.155  12.332  12.0700  0.00  0.00     0.000 O
ATOM     44  HD  BGC C   3      25.183  13.104  12.4620  0.00  0.00     0.000 HD
BRANCH 31 44
ATOM     44  O4  BGC C   4      24.185   7.755  10.4150  0.00  0.00     0.000 O
BRANCH 44 48
ATOM     45  C1  BGC C   4      22.413   6.438   6.9670  0.00  0.00     0.000 C
ATOM     46  C2  BGC C   4      22.440   7.999   7.0330  0.00  0.00     0.000 C
ATOM     47  C3  BGC C   4      23.395   8.251   8.2070  0.00  0.00     0.000 C
ATOM     48  C4  BGC C   4      23.137   7.535   9.5180  0.00  0.00     0.000 C
ATOM     49  C5  BGC C   4      23.146   6.033   9.1940  0.00  0.00     0.000 C
ATOM     50  O5  BGC C   4      22.227   5.732   8.2030  0.00  0.00     0.000 O
ATOM     51   O  BGC C   4      22.905   8.879   5.8580  0.00  0.00     0.000 O
ATOM     53  HD  BGC C   4      22.972   9.710   6.0910  0.00  0.00     0.000 HD
ATOM     53   O  BGC C   4      23.067   9.690   8.4990  0.00  0.00     0.000 O
ATOM     55  HD  BGC C   4      23.134  10.521   8.7320  0.00  0.00     0.000 HD
ATOM     55   C  BGC C   4      22.736   5.212  10.3890  0.00  0.00     0.000 C
ATOM     56   O  BGC C   4      21.462   5.538  10.9580  0.00  0.00     0.000 O
ATOM     58  HD  BGC C   4      21.529   6.369  11.1910  0.00  0.00     0.000 HD
BRANCH 45 58
ATOM     58  O4  BGC C   5      21.412   5.964   6.1160  0.00  0.00     0.000 O
BRANCH 58 62
ATOM     59  C1  BGC C   5      19.572   3.916   4.7840  0.00  0.00     0.000 C
ATOM     60  C2  BGC C   5      20.629   3.162   5.4220  0.00  0.00     0.000 C
ATOM     61  C3  BGC C   5      22.022   3.743   5.1920  0.00  0.00     0.000 C
ATOM     62  C4  BGC C   5      21.898   5.242   4.9580  0.00  0.00     0.000 C
ATOM     63  C5  BGC C   5      20.754   5.452   3.9930  0.00  0.00     0.000 C
ATOM     64  O5  BGC C   5      19.850   4.371   3.7700  0.00  0.00     0.000 O
ATOM     65   O  BGC C   5      22.043   4.989   2.0040  0.00  0.00     0.000 O
ATOM     67  HD  BGC C   5      21.742   5.591   2.5490  0.00  0.00     0.000 HD
ATOM     67   O  BGC C   5      22.043   4.989   2.0040  0.00  0.00     0.000 O
ATOM     69  HD  BGC C   5      21.742   5.591   2.5490  0.00  0.00     0.000 HD
ENDBRANCH 58 62
ENDBRANCH 45 58
ENDBRANCH 44 48
ENDBRANCH 31 44
ENDBRANCH 30 34
ENDBRANCH 17 30
ENDBRANCH 16 20
ENDBRANCH 1 16
TORSDOF 8
ENDMDL
MODEL 93
REMARK VINA RESULT:      -1.3     12.275     16.227
ROOT
ATOM      1  C1  BGC C   1      16.385  11.801   3.7170  0.00  0.00     0.000 C
ATOM      2  C2  BGC C   1      16.878  12.294   2.3570  0.00  0.00     0.000 C
ATOM      3  C3  BGC C   1      16.022  11.698   1.2450  0.00  0.00     0.000 C
ATOM      4  C4  BGC C   1      15.882  10.190   1.3720  0.00  0.00     0.000 C
ATOM      5  C5  BGC C   1      15.541   9.811   2.8100  0.00  0.00     0.000 C
ATOM      6  O5  BGC C   1      16.352  10.426   3.7600  0.00  0.00     0.000 O
ATOM      7   O  BGC C   1      16.776  13.698   2.3540  0.00  0.00     0.000 O
ATOM      9  HD  BGC C   1      17.259  13.216   1.8200  0.00  0.00     0.000 HD
ATOM      9   O  BGC C   1      16.597  12.080  -0.0120  0.00  0.00     0.000 O
ATOM     11  HD  BGC C   1      17.080  11.599  -0.5450  0.00  0.00     0.000 HD
ATOM     11   O  BGC C   1      14.845   9.797   0.4790  0.00  0.00     0.000 O
ATOM     13  HD  BGC C   1      15.329   9.316  -0.0540  0.00  0.00     0.000 HD
ATOM     13   O  BGC C   1      17.080   7.869   2.8460  0.00  0.00     0.000 O
ATOM     15  HD  BGC C   1      17.563   7.388   2.3130  0.00  0.00     0.000 HD
ATOM     15   C  BGC C   1      15.690   8.285   2.9510  0.00  0.00     0.000 C
ENDROOT
BRANCH 1 16
ATOM     16  O4  BGC C   2      17.296  12.222   4.7050  0.00  0.00     0.000 O
BRANCH 16 20
ATOM     17  C1  BGC C   2      17.212  13.307   8.6410  0.00  0.00     0.000 C
ATOM     18  C2  BGC C   2      17.237  11.812   8.3640  0.00  0.00     0.000 C
ATOM     19  C3  BGC C   2      17.632  11.537   6.9200  0.00  0.00     0.000 C
ATOM     20  C4  BGC C   2      16.769  12.339   6.0050  0.00  0.00     0.000 C
ATOM     21  C5  BGC C   2      16.752  13.809   6.4150  0.00  0.00     0.000 C
ATOM     22  O5  BGC C   2      16.352  13.951   7.7450  0.00  0.00     0.000 O
ATOM     23   O  BGC C   2      18.166  11.190   9.2650  0.00  0.00     0.000 O
ATOM     25  HD  BGC C   2      18.620  10.580   8.8500  0.00  0.00     0.000 HD
ATOM     25   O  BGC C   2      17.467  10.151   6.6460  0.00  0.00     0.000 O
ATOM     27  HD  BGC C   2      17.920   9.541   6.2310  0.00  0.00     0.000 HD
ATOM     27   C  BGC C   2      15.867  14.715   5.5350  0.00  0.00     0.000 C
ATOM     28   O  BGC C   2      14.524  14.212   5.4550  0.00  0.00     0.000 O
ATOM     30  HD  BGC C   2      14.978  13.602   5.0390  0.00  0.00     0.000 HD
BRANCH 17 30
ATOM     30  O4  BGC C   3      16.743  13.530   9.9530  0.00  0.00     0.000 O
BRANCH 30 34
ATOM     31  C1  BGC C   3      17.325  15.973  13.1210  0.00  0.00     0.000 C
ATOM     32  C2  BGC C   3      16.368  16.507  12.0280  0.00  0.00     0.000 C
ATOM     33  C3  BGC C   3      15.951  15.421  11.0990  0.00  0.00     0.000 C
ATOM     34  C4  BGC C   3      17.208  14.707  10.5950  0.00  0.00     0.000 C
ATOM     35  C5  BGC C   3      18.193  14.304  11.7230  0.00  0.00     0.000 C
ATOM     36  O5  BGC C   3      18.476  15.414  12.5380  0.00  0.00     0.000 O
ATOM     37   O  BGC C   3      15.183  17.164  12.4350  0.00  0.00     0.000 O
ATOM     39  HD  BGC C   3      15.547  16.626  11.8630  0.00  0.00     0.000 HD
ATOM     39   O  BGC C   3      15.181  15.973   9.9910  0.00  0.00     0.000 O
ATOM     41  HD  BGC C   3      15.545  15.434   9.4190  0.00  0.00     0.000 HD
ATOM     41   C  BGC C   3      19.552  13.747  11.2390  0.00  0.00     0.000 C
ATOM     42   O  BGC C   3      20.389  14.700  10.4910  0.00  0.00     0.000 O
ATOM     44  HD  BGC C   3      20.754  14.161   9.9190  0.00  0.00     0.000 HD
BRANCH 31 44
ATOM     44  O4  BGC C   4      17.710  16.988  13.9860  0.00  0.00     0.000 O
BRANCH 44 48
ATOM     45  C1  BGC C   4      18.511  17.928  17.8890  0.00  0.00     0.000 C
ATOM     46  C2  BGC C   4      19.626  17.018  17.2820  0.00  0.00     0.000 C
ATOM     47  C3  BGC C   4      19.291  17.059  15.7860  0.00  0.00     0.000 C
ATOM     48  C4  BGC C   4      17.871  16.749  15.3520  0.00  0.00     0.000 C
ATOM     49  C5  BGC C   4      16.971  17.757  16.0830  0.00  0.00     0.000 C
ATOM     50  O5  BGC C   4      17.163  17.694  17.4530  0.00  0.00     0.000 O
ATOM     51   O  BGC C   4      21.128  17.322  17.4310  0.00  0.00     0.000 O
ATOM     53  HD  BGC C   4      21.608  16.792  16.9430  0.00  0.00     0.000 HD
ATOM     53   O  BGC C   4      20.089  15.875  15.3130  0.00  0.00     0.000 O
ATOM     55  HD  BGC C   4      20.570  15.345  14.8250  0.00  0.00     0.000 HD
ATOM     55   C  BGC C   4      15.512  17.450  15.8640  0.00  0.00     0.000 C
ATOM     56   O  BGC C   4      15.095  16.130  16.2330  0.00  0.00     0.000 O
ATOM     58  HD  BGC C   4      15.576  15.600  15.7450  0.00  0.00     0.000 HD
BRANCH 45 58
ATOM     58  O4  BGC C   5      18.466  17.850  19.2830  0.00  0.00     0.000 O
BRANCH 58 62
ATOM     59  C1  BGC C   5      17.974  17.356  22.2610  0.00  0.00     0.000 C
ATOM     60  C2  BGC C   5      19.408  17.317  22.0710  0.00  0.00     0.000 C
ATOM     61  C3  BGC C   5      19.843  16.508  20.8510  0.00  0.00     0.000 C
ATOM     62  C4  BGC C   5      18.723  16.530  19.8210  0.00  0.00     0.000 C
ATOM     63  C5  BGC C   5      17.430  16.268  20.5580  0.00  0.00     0.000 C
ATOM     64  O5  BGC C   5      17.425  16.392  21.9790  0.00  0.00     0.000 O
ATOM     65   O  BGC C   5      17.679  13.866  20.6130  0.00  0.00     0.000 O
ATOM     67  HD  BGC C   5      17.348  14.551  20.2000  0.00  0.00     0.000 HD
ATOM     67   O  BGC C   5      17.679  13.866  20.6130  0.00  0.00     0.000 O
ATOM     69  HD  BGC C   5      17.348  14.551  20.2000  0.00  0.00     0.000 HD
ENDBRANCH 58 62
ENDBRANCH 45 58
ENDBRANCH 44 48
ENDBRANCH 31 44
ENDBRANCH 30 34
ENDBRANCH 17 30
ENDBRANCH 16 20
ENDBRANCH 1 16
TORSDOF 8
ENDMDL
MODEL 94
REMARK VINA RESULT:      -1.3     11.682     16.289
ROOT
ATOM      1  C1  BGC C   1      14.746  11.370   3.6130  0.00  0.00     0.000 C
ATOM      2  C2  BGC C   1      15.492  12.039   2.4600  0.00  0.00     0.000 C
ATOM      3  C3  BGC C   1      15.053  11.434   1.1320  0.00  0.00     0.000 C
ATOM      4  C4  BGC C   1      15.114   9.916   1.1440  0.00  0.00     0.000 C
ATOM      5  C5  BGC C   1      14.475   9.371   2.4180  0.00  0.00     0.000 C
ATOM      6  O5  BGC C   1      14.910  10.004   3.5800  0.00  0.00     0.000 O
ATOM      7   O  BGC C   1      15.184  13.413   2.4970  0.00  0.00     0.000 O
ATOM      9  HD  BGC C   1      15.856  13.048   2.0900  0.00  0.00     0.000 HD
ATOM      9   O  BGC C   1      15.869  11.996   0.0960  0.00  0.00     0.000 O
ATOM     11  HD  BGC C   1      16.541  11.631  -0.3110  0.00  0.00     0.000 HD
ATOM     11   O  BGC C   1      14.415   9.466  -0.0120  0.00  0.00     0.000 O
ATOM     13  HD  BGC C   1      15.087   9.101  -0.4190  0.00  0.00     0.000 HD
ATOM     13   O  BGC C   1      16.227   7.656   2.7730  0.00  0.00     0.000 O
ATOM     15  HD  BGC C   1      16.898   7.291   2.3660  0.00  0.00     0.000 HD
ATOM     15   C  BGC C   1      14.811   7.872   2.5210  0.00  0.00     0.000 C
ENDROOT
BRANCH 1 16
ATOM     16  O4  BGC C   2      15.296  11.821   4.8280  0.00  0.00     0.000 O
BRANCH 16 20
ATOM     17  C1  BGC C   2      14.025  12.560   8.6380  0.00  0.00     0.000 C
ATOM     18  C2  BGC C   2      14.358  11.111   8.3180  0.00  0.00     0.000 C
ATOM     19  C3  BGC C   2      15.151  11.014   7.0220  0.00  0.00     0.000 C
ATOM     20  C4  BGC C   2      14.438  11.756   5.9430  0.00  0.00     0.000 C
ATOM     21  C5  BGC C   2      14.083  13.170   6.3930  0.00  0.00     0.000 C
ATOM     22  O5  BGC C   2      13.335  13.145   7.5710  0.00  0.00     0.000 O
ATOM     23   O  BGC C   2      15.109  10.556   9.4080  0.00  0.00     0.000 O
ATOM     25  HD  BGC C   2      15.746  10.054   9.1050  0.00  0.00     0.000 HD
ATOM     25   O  BGC C   2      15.285   9.645   6.6580  0.00  0.00     0.000 O
ATOM     27  HD  BGC C   2      15.922   9.143   6.3550  0.00  0.00     0.000 HD
ATOM     27   C  BGC C   2      13.323  14.010   5.3450  0.00  0.00     0.000 C
ATOM     28   O  BGC C   2      12.144  13.328   4.8870  0.00  0.00     0.000 O
ATOM     30  HD  BGC C   2      12.780  12.825   4.5840  0.00  0.00     0.000 HD
BRANCH 17 30
ATOM     30  O4  BGC C   3      13.203  12.606   9.7850  0.00  0.00     0.000 O
BRANCH 30 34
ATOM     31  C1  BGC C   3      12.551  14.840  13.0890  0.00  0.00     0.000 C
ATOM     32  C2  BGC C   3      11.837  15.321  11.8030  0.00  0.00     0.000 C
ATOM     33  C3  BGC C   3      11.852  14.265  10.7520  0.00  0.00     0.000 C
ATOM     34  C4  BGC C   3      13.294  13.782  10.5750  0.00  0.00     0.000 C
ATOM     35  C5  BGC C   3      14.004  13.432  11.9080  0.00  0.00     0.000 C
ATOM     36  O5  BGC C   3      13.887  14.501  12.8130  0.00  0.00     0.000 O
ATOM     37   O  BGC C   3      10.497  15.767  11.9040  0.00  0.00     0.000 O
ATOM     39  HD  BGC C   3      11.078  15.334  11.4290  0.00  0.00     0.000 HD
ATOM     39   O  BGC C   3      11.316  14.790   9.5020  0.00  0.00     0.000 O
ATOM     41  HD  BGC C   3      11.897  14.358   9.0270  0.00  0.00     0.000 HD
ATOM     41   C  BGC C   3      15.513  13.116  11.7840  0.00  0.00     0.000 C
ATOM     42   O  BGC C   3      16.352  14.236  11.3270  0.00  0.00     0.000 O
ATOM     44  HD  BGC C   3      16.933  13.804  10.8520  0.00  0.00     0.000 HD
BRANCH 31 44
ATOM     44  O4  BGC C   4      12.533  15.827  14.0660  0.00  0.00     0.000 O
BRANCH 44 48
ATOM     45  C1  BGC C   4      12.129  16.551  18.0750  0.00  0.00     0.000 C
ATOM     46  C2  BGC C   4      13.488  15.848  17.7580  0.00  0.00     0.000 C
ATOM     47  C3  BGC C   4      13.556  15.963  16.2300  0.00  0.00     0.000 C
ATOM     48  C4  BGC C   4      12.363  15.503  15.4150  0.00  0.00     0.000 C
ATOM     49  C5  BGC C   4      11.162  16.322  15.9140  0.00  0.00     0.000 C
ATOM     50  O5  BGC C   4      10.994  16.176  17.2810  0.00  0.00     0.000 O
ATOM     51   O  BGC C   4      14.835  16.335  18.3210  0.00  0.00     0.000 O
ATOM     53  HD  BGC C   4      15.501  15.914  17.9610  0.00  0.00     0.000 HD
ATOM     53   O  BGC C   4      14.618  14.937  15.9430  0.00  0.00     0.000 O
ATOM     55  HD  BGC C   4      15.283  14.516  15.5830  0.00  0.00     0.000 HD
ATOM     55   C  BGC C   4       9.875  15.842  15.2940  0.00  0.00     0.000 C
ATOM     56   O  BGC C   4       9.577  14.454  15.4820  0.00  0.00     0.000 O
ATOM     58  HD  BGC C   4      10.242  14.033  15.1220  0.00  0.00     0.000 HD
BRANCH 45 58
ATOM     58  O4  BGC C   5      11.732  16.357  19.4010  0.00  0.00     0.000 O
BRANCH 58 62
ATOM     59  C1  BGC C   5      10.628  15.964  22.2250  0.00  0.00     0.000 C
ATOM     60  C2  BGC C   5      10.861  14.641  21.6900  0.00  0.00     0.000 C
ATOM     61  C3  BGC C   5      10.373  14.465  20.2540  0.00  0.00     0.000 C
ATOM     62  C4  BGC C   5      10.397  15.818  19.5570  0.00  0.00     0.000 C
ATOM     63  C5  BGC C   5       9.795  16.825  20.5090  0.00  0.00     0.000 C
ATOM     64  O5  BGC C   5       9.654  16.458  21.8800  0.00  0.00     0.000 O
ATOM     65   O  BGC C   5       7.498  16.303  19.9730  0.00  0.00     0.000 O
ATOM     67  HD  BGC C   5       8.183  16.808  19.8140  0.00  0.00     0.000 HD
ATOM     67   O  BGC C   5       7.498  16.303  19.9730  0.00  0.00     0.000 O
ATOM     69  HD  BGC C   5       8.183  16.808  19.8140  0.00  0.00     0.000 HD
ENDBRANCH 58 62
ENDBRANCH 45 58
ENDBRANCH 44 48
ENDBRANCH 31 44
ENDBRANCH 30 34
ENDBRANCH 17 30
ENDBRANCH 16 20
ENDBRANCH 1 16
TORSDOF 8
ENDMDL
MODEL 95
REMARK VINA RESULT:      -1.2     13.295     20.663
ROOT
ATOM      1  C1  BGC C   1      24.856   8.798   2.2410  0.00  0.00     0.000 C
ATOM      2  C2  BGC C   1      24.824   7.277   2.1000  0.00  0.00     0.000 C
ATOM      3  C3  BGC C   1      23.834   6.874   1.0130  0.00  0.00     0.000 C
ATOM      4  C4  BGC C   1      22.477   7.533   1.1980  0.00  0.00     0.000 C
ATOM      5  C5  BGC C   1      22.648   9.022   1.4870  0.00  0.00     0.000 C
ATOM      6  O5  BGC C   1      23.594   9.298   2.4700  0.00  0.00     0.000 O
ATOM      7   O  BGC C   1      26.123   6.857   1.7580  0.00  0.00     0.000 O
ATOM      9  HD  BGC C   1      25.493   6.362   2.0860  0.00  0.00     0.000 HD
ATOM      9   O  BGC C   1      23.740   5.444   1.0040  0.00  0.00     0.000 O
ATOM     11  HD  BGC C   1      23.109   4.949   1.3320  0.00  0.00     0.000 HD
ATOM     11   O  BGC C   1      21.751   7.325  -0.0090  0.00  0.00     0.000 O
ATOM     13  HD  BGC C   1      21.120   6.831   0.3190  0.00  0.00     0.000 HD
ATOM     13   O  BGC C   1      20.904   9.058   3.2460  0.00  0.00     0.000 O
ATOM     15  HD  BGC C   1      20.273   8.563   3.5740  0.00  0.00     0.000 HD
ATOM     15   C  BGC C   1      21.288   9.580   1.9440  0.00  0.00     0.000 C
ENDROOT
BRANCH 1 16
ATOM     16  O4  BGC C   2      25.639   9.129   3.3640  0.00  0.00     0.000 O
BRANCH 16 20
ATOM     17  C1  BGC C   2      28.111  12.156   4.5480  0.00  0.00     0.000 C
ATOM     18  C2  BGC C   2      26.623  12.403   4.7330  0.00  0.00     0.000 C
ATOM     19  C3  BGC C   2      25.840  11.103   4.6090  0.00  0.00     0.000 C
ATOM     20  C4  BGC C   2      26.218  10.413   3.3410  0.00  0.00     0.000 C
ATOM     21  C5  BGC C   2      27.733  10.284   3.2170  0.00  0.00     0.000 C
ATOM     22  O5  BGC C   2      28.349  11.532   3.3180  0.00  0.00     0.000 O
ATOM     23   O  BGC C   2      26.408  12.996   6.0230  0.00  0.00     0.000 O
ATOM     25  HD  BGC C   2      25.701  12.658   6.3910  0.00  0.00     0.000 HD
ATOM     25   O  BGC C   2      24.448  11.395   4.6020  0.00  0.00     0.000 O
ATOM     27  HD  BGC C   2      23.741  11.056   4.9710  0.00  0.00     0.000 HD
ATOM     27   C  BGC C   2      28.219   9.597   1.9240  0.00  0.00     0.000 C
ATOM     28   O  BGC C   2      27.683  10.244   0.7580  0.00  0.00     0.000 O
ATOM     30  HD  BGC C   2      26.976   9.906   1.1270  0.00  0.00     0.000 HD
BRANCH 17 30
ATOM     30  O4  BGC C   3      28.794  13.392   4.5640  0.00  0.00     0.000 O
BRANCH 30 34
ATOM     31  C1  BGC C   3      32.257  15.045   5.8330  0.00  0.00     0.000 C
ATOM     32  C2  BGC C   3      32.318  14.330   4.4620  0.00  0.00     0.000 C
ATOM     33  C3  BGC C   3      30.952  14.067   3.9310  0.00  0.00     0.000 C
ATOM     34  C4  BGC C   3      30.139  13.360   5.0180  0.00  0.00     0.000 C
ATOM     35  C5  BGC C   3      30.214  14.050   6.4030  0.00  0.00     0.000 C
ATOM     36  O5  BGC C   3      31.555  14.262   6.7660  0.00  0.00     0.000 O
ATOM     37   O  BGC C   3      33.045  14.945   3.4150  0.00  0.00     0.000 O
ATOM     39  HD  BGC C   3      32.343  14.486   3.6310  0.00  0.00     0.000 HD
ATOM     39   O  BGC C   3      31.029  13.258   2.7200  0.00  0.00     0.000 O
ATOM     41  HD  BGC C   3      30.327  12.799   2.9370  0.00  0.00     0.000 HD
ATOM     41   C  BGC C   3      29.557  13.266   7.5630  0.00  0.00     0.000 C
ATOM     42   O  BGC C   3      30.186  11.973   7.8820  0.00  0.00     0.000 O
ATOM     44  HD  BGC C   3      29.484  11.515   8.0980  0.00  0.00     0.000 HD
BRANCH 31 44
ATOM     44  O4  BGC C   4      33.533  15.289   6.3240  0.00  0.00     0.000 O
BRANCH 44 48
ATOM     45  C1  BGC C   4      35.881  17.973   8.3360  0.00  0.00     0.000 C
ATOM     46  C2  BGC C   4      34.861  17.278   9.2940  0.00  0.00     0.000 C
ATOM     47  C3  BGC C   4      34.332  16.134   8.4200  0.00  0.00     0.000 C
ATOM     48  C4  BGC C   4      33.822  16.460   7.0300  0.00  0.00     0.000 C
ATOM     49  C5  BGC C   4      34.988  17.138   6.2940  0.00  0.00     0.000 C
ATOM     50  O5  BGC C   4      35.443  18.243   6.9950  0.00  0.00     0.000 O
ATOM     51   O  BGC C   4      35.265  16.677  10.6530  0.00  0.00     0.000 O
ATOM     53  HD  BGC C   4      34.614  16.229  11.0070  0.00  0.00     0.000 HD
ATOM     53   O  BGC C   4      33.094  15.772   9.1940  0.00  0.00     0.000 O
ATOM     55  HD  BGC C   4      32.443  15.324   9.5480  0.00  0.00     0.000 HD
ATOM     55   C  BGC C   4      34.557  17.663   4.9490  0.00  0.00     0.000 C
ATOM     56   O  BGC C   4      33.450  18.571   4.9630  0.00  0.00     0.000 O
ATOM     58  HD  BGC C   4      32.799  18.123   5.3180  0.00  0.00     0.000 HD
BRANCH 45 58
ATOM     58  O4  BGC C   5      36.320  19.201   8.8350  0.00  0.00     0.000 O
BRANCH 58 62
ATOM     59  C1  BGC C   5      38.330  18.702  11.0850  0.00  0.00     0.000 C
ATOM     60  C2  BGC C   5      38.241  20.137  10.9280  0.00  0.00     0.000 C
ATOM     61  C3  BGC C   5      38.270  20.597   9.4720  0.00  0.00     0.000 C
ATOM     62  C4  BGC C   5      37.721  19.484   8.5920  0.00  0.00     0.000 C
ATOM     63  C5  BGC C   5      38.354  18.192   9.0550  0.00  0.00     0.000 C
ATOM     64  O5  BGC C   5      39.005  18.175  10.3240  0.00  0.00     0.000 O
ATOM     65   O  BGC C   5      40.413  18.494   7.8290  0.00  0.00     0.000 O
ATOM     67  HD  BGC C   5      39.618  18.151   7.8380  0.00  0.00     0.000 HD
ATOM     67   O  BGC C   5      40.413  18.494   7.8290  0.00  0.00     0.000 O
ATOM     69  HD  BGC C   5      39.618  18.151   7.8380  0.00  0.00     0.000 HD
ENDBRANCH 58 62
ENDBRANCH 45 58
ENDBRANCH 44 48
ENDBRANCH 31 44
ENDBRANCH 30 34
ENDBRANCH 17 30
ENDBRANCH 16 20
ENDBRANCH 1 16
TORSDOF 8
ENDMDL
MODEL 96
REMARK VINA RESULT:      -1.2     10.852     15.529
ROOT
ATOM      1  C1  BGC C   1      16.643   1.926   7.4930  0.00  0.00     0.000 C
ATOM      2  C2  BGC C   1      17.318   0.805   6.7040  0.00  0.00     0.000 C
ATOM      3  C3  BGC C   1      18.271   1.395   5.6710  0.00  0.00     0.000 C
ATOM      4  C4  BGC C   1      17.609   2.470   4.8260  0.00  0.00     0.000 C
ATOM      5  C5  BGC C   1      16.837   3.440   5.7150  0.00  0.00     0.000 C
ATOM      6  O5  BGC C   1      16.017   2.815   6.6500  0.00  0.00     0.000 O
ATOM      7   O  BGC C   1      18.026   0.008   7.6230  0.00  0.00     0.000 O
ATOM      9  HD  BGC C   1      17.788  -0.220   6.8220  0.00  0.00     0.000 HD
ATOM      9   O  BGC C   1      18.780   0.320   4.8710  0.00  0.00     0.000 O
ATOM     11  HD  BGC C   1      18.542   0.092   4.0690  0.00  0.00     0.000 HD
ATOM     11   O  BGC C   1      18.649   3.138   4.1210  0.00  0.00     0.000 O
ATOM     13  HD  BGC C   1      18.412   2.911   3.3200  0.00  0.00     0.000 HD
ATOM     13   O  BGC C   1      14.891   3.567   4.1870  0.00  0.00     0.000 O
ATOM     15  HD  BGC C   1      14.653   3.339   3.3860  0.00  0.00     0.000 HD
ATOM     15   C  BGC C   1      15.962   4.328   4.8100  0.00  0.00     0.000 C
ENDROOT
BRANCH 1 16
ATOM     16  O4  BGC C   2      15.645   1.362   8.3120  0.00  0.00     0.000 O
BRANCH 16 20
ATOM     17  C1  BGC C   2      13.899   2.093  11.9300  0.00  0.00     0.000 C
ATOM     18  C2  BGC C   2      13.441   2.977  10.7800  0.00  0.00     0.000 C
ATOM     19  C3  BGC C   2      13.870   2.389   9.4440  0.00  0.00     0.000 C
ATOM     20  C4  BGC C   2      15.331   2.091   9.4740  0.00  0.00     0.000 C
ATOM     21  C5  BGC C   2      15.697   1.266  10.7050  0.00  0.00     0.000 C
ATOM     22  O5  BGC C   2      15.284   1.906  11.8750  0.00  0.00     0.000 O
ATOM     23   O  BGC C   2      12.013   3.107  10.8360  0.00  0.00     0.000 O
ATOM     25  HD  BGC C   2      11.679   3.070  10.0380  0.00  0.00     0.000 HD
ATOM     25   O  BGC C   2      13.591   3.325   8.4100  0.00  0.00     0.000 O
ATOM     27  HD  BGC C   2      13.257   3.288   7.6110  0.00  0.00     0.000 HD
ATOM     27   C  BGC C   2      17.196   0.925  10.8320  0.00  0.00     0.000 C
ATOM     28   O  BGC C   2      18.006   2.111  10.7760  0.00  0.00     0.000 O
ATOM     30  HD  BGC C   2      17.673   2.073   9.9780  0.00  0.00     0.000 HD
BRANCH 17 30
ATOM     30  O4  BGC C   3      13.578   2.719  13.1540  0.00  0.00     0.000 O
BRANCH 30 34
ATOM     31  C1  BGC C   3      12.281   1.866  16.8860  0.00  0.00     0.000 C
ATOM     32  C2  BGC C   3      13.783   1.601  16.6210  0.00  0.00     0.000 C
ATOM     33  C3  BGC C   3      14.231   2.258  15.3620  0.00  0.00     0.000 C
ATOM     34  C4  BGC C   3      13.273   1.855  14.2390  0.00  0.00     0.000 C
ATOM     35  C5  BGC C   3      11.776   2.024  14.6040  0.00  0.00     0.000 C
ATOM     36  O5  BGC C   3      11.499   1.381  15.8230  0.00  0.00     0.000 O
ATOM     37   O  BGC C   3      14.717   1.966  17.6200  0.00  0.00     0.000 O
ATOM     39  HD  BGC C   3      14.551   1.921  16.7710  0.00  0.00     0.000 HD
ATOM     39   O  BGC C   3      15.601   1.868  15.0500  0.00  0.00     0.000 O
ATOM     41  HD  BGC C   3      15.435   1.823  14.2020  0.00  0.00     0.000 HD
ATOM     41   C  BGC C   3      10.780   1.457  13.5660  0.00  0.00     0.000 C
ATOM     42   O  BGC C   3      10.838  -0.001  13.3720  0.00  0.00     0.000 O
ATOM     44  HD  BGC C   3      10.672  -0.046  12.5230  0.00  0.00     0.000 HD
BRANCH 31 44
ATOM     44  O4  BGC C   4      11.867   1.253  18.0620  0.00  0.00     0.000 O
BRANCH 44 48
ATOM     45  C1  BGC C   4       9.508   1.646  21.3840  0.00  0.00     0.000 C
ATOM     46  C2  BGC C   4       8.648   1.434  20.0970  0.00  0.00     0.000 C
ATOM     47  C3  BGC C   4       9.708   1.009  19.0730  0.00  0.00     0.000 C
ATOM     48  C4  BGC C   4      10.945   1.870  18.9110  0.00  0.00     0.000 C
ATOM     49  C5  BGC C   4      11.605   1.937  20.2970  0.00  0.00     0.000 C
ATOM     50  O5  BGC C   4      10.716   2.410  21.2480  0.00  0.00     0.000 O
ATOM     51   O  BGC C   4       7.493   0.419  20.0190  0.00  0.00     0.000 O
ATOM     53  HD  BGC C   4       7.195   0.339  19.2100  0.00  0.00     0.000 HD
ATOM     53   O  BGC C   4       8.936   1.227  17.8000  0.00  0.00     0.000 O
ATOM     55  HD  BGC C   4       8.638   1.147  16.9910  0.00  0.00     0.000 HD
ATOM     55   C  BGC C   4      12.762   2.903  20.3090  0.00  0.00     0.000 C
ATOM     56   O  BGC C   4      12.457   4.239  19.8950  0.00  0.00     0.000 O
ATOM     58  HD  BGC C   4      12.159   4.159  19.0850  0.00  0.00     0.000 HD
BRANCH 45 58
ATOM     58  O4  BGC C   5       8.787   2.274  22.4030  0.00  0.00     0.000 O
BRANCH 58 62
ATOM     59  C1  BGC C   5       7.511   4.132  24.4690  0.00  0.00     0.000 C
ATOM     60  C2  BGC C   5       6.456   3.265  23.9930  0.00  0.00     0.000 C
ATOM     61  C3  BGC C   5       6.445   3.088  22.4770  0.00  0.00     0.000 C
ATOM     62  C4  BGC C   5       7.857   3.287  21.9470  0.00  0.00     0.000 C
ATOM     63  C5  BGC C   5       8.422   4.514  22.6240  0.00  0.00     0.000 C
ATOM     64  O5  BGC C   5       7.756   5.015  23.7810  0.00  0.00     0.000 O
ATOM     65   O  BGC C   5       7.368   6.102  21.1390  0.00  0.00     0.000 O
ATOM     67  HD  BGC C   5       8.074   5.633  21.3170  0.00  0.00     0.000 HD
ATOM     67   O  BGC C   5       7.368   6.102  21.1390  0.00  0.00     0.000 O
ATOM     69  HD  BGC C   5       8.074   5.633  21.3170  0.00  0.00     0.000 HD
ENDBRANCH 58 62
ENDBRANCH 45 58
ENDBRANCH 44 48
ENDBRANCH 31 44
ENDBRANCH 30 34
ENDBRANCH 17 30
ENDBRANCH 16 20
ENDBRANCH 1 16
TORSDOF 8
ENDMDL
MODEL 97
REMARK VINA RESULT:      -1.2     11.771     19.651
ROOT
ATOM      1  C1  BGC C   1      26.011   5.103   2.8360  0.00  0.00     0.000 C
ATOM      2  C2  BGC C   1      26.500   3.676   2.5910  0.00  0.00     0.000 C
ATOM      3  C3  BGC C   1      25.690   3.032   1.4720  0.00  0.00     0.000 C
ATOM      4  C4  BGC C   1      24.193   3.172   1.6910  0.00  0.00     0.000 C
ATOM      5  C5  BGC C   1      23.848   4.606   2.0820  0.00  0.00     0.000 C
ATOM      6  O5  BGC C   1      24.659   5.125   3.0880  0.00  0.00     0.000 O
ATOM      7   O  BGC C   1      27.859   3.750   2.2320  0.00  0.00     0.000 O
ATOM      9  HD  BGC C   1      27.441   3.049   2.5200  0.00  0.00     0.000 HD
ATOM      9   O  BGC C   1      26.091   1.660   1.3660  0.00  0.00     0.000 O
ATOM     11  HD  BGC C   1      25.674   0.958   1.6540  0.00  0.00     0.000 HD
ATOM     11   O  BGC C   1      23.562   2.809   0.4680  0.00  0.00     0.000 O
ATOM     13  HD  BGC C   1      23.145   2.107   0.7560  0.00  0.00     0.000 HD
ATOM     13   O  BGC C   1      22.226   3.926   3.8260  0.00  0.00     0.000 O
ATOM     15  HD  BGC C   1      21.808   3.225   4.1150  0.00  0.00     0.000 HD
ATOM     15   C  BGC C   1      22.387   4.634   2.5650  0.00  0.00     0.000 C
ENDROOT
BRANCH 1 16
ATOM     16  O4  BGC C   2      26.652   5.607   3.9840  0.00  0.00     0.000 O
BRANCH 16 20
ATOM     17  C1  BGC C   2      27.958   9.213   5.3860  0.00  0.00     0.000 C
ATOM     18  C2  BGC C   2      26.480   8.918   5.5880  0.00  0.00     0.000 C
ATOM     19  C3  BGC C   2      26.191   7.439   5.3690  0.00  0.00     0.000 C
ATOM     20  C4  BGC C   2      26.752   7.010   4.0550  0.00  0.00     0.000 C
ATOM     21  C5  BGC C   2      28.216   7.421   3.9230  0.00  0.00     0.000 C
ATOM     22  O5  BGC C   2      28.366   8.796   4.1150  0.00  0.00     0.000 O
ATOM     23   O  BGC C   2      26.107   9.310   6.9170  0.00  0.00     0.000 O
ATOM     25  HD  BGC C   2      25.569   8.725   7.2600  0.00  0.00     0.000 HD
ATOM     25   O  BGC C   2      24.784   7.232   5.3830  0.00  0.00     0.000 O
ATOM     27  HD  BGC C   2      24.246   6.646   5.7260  0.00  0.00     0.000 HD
ATOM     27   C  BGC C   2      28.877   7.035   2.5840  0.00  0.00     0.000 C
ATOM     28   O  BGC C   2      28.123   7.535   1.4680  0.00  0.00     0.000 O
ATOM     30  HD  BGC C   2      27.585   6.949   1.8110  0.00  0.00     0.000 HD
BRANCH 17 30
ATOM     30  O4  BGC C   3      28.173  10.604   5.4930  0.00  0.00     0.000 O
BRANCH 30 34
ATOM     31  C1  BGC C   3      30.885  13.262   6.8800  0.00  0.00     0.000 C
ATOM     32  C2  BGC C   3      31.156  12.705   5.4630  0.00  0.00     0.000 C
ATOM     33  C3  BGC C   3      29.952  12.024   4.9120  0.00  0.00     0.000 C
ATOM     34  C4  BGC C   3      29.457  11.008   5.9450  0.00  0.00     0.000 C
ATOM     35  C5  BGC C   3      29.322  11.587   7.3760  0.00  0.00     0.000 C
ATOM     36  O5  BGC C   3      30.517  12.224   7.7550  0.00  0.00     0.000 O
ATOM     37   O  BGC C   3      31.602  13.602   4.4630  0.00  0.00     0.000 O
ATOM     39  HD  BGC C   3      31.106  12.916   4.6450  0.00  0.00     0.000 HD
ATOM     39   O  BGC C   3      30.275  11.373   3.6480  0.00  0.00     0.000 O
ATOM     41  HD  BGC C   3      29.778  10.687   3.8300  0.00  0.00     0.000 HD
ATOM     41   C  BGC C   3      29.002  10.549   8.4770  0.00  0.00     0.000 C
ATOM     42   O  BGC C   3      30.045   9.535   8.7040  0.00  0.00     0.000 O
ATOM     44  HD  BGC C   3      29.548   8.849   8.8860  0.00  0.00     0.000 HD
BRANCH 31 44
ATOM     44  O4  BGC C   4      32.009  13.898   7.3890  0.00  0.00     0.000 O
BRANCH 44 48
ATOM     45  C1  BGC C   4      33.340  17.102   9.5620  0.00  0.00     0.000 C
ATOM     46  C2  BGC C   4      32.515  16.116  10.4490  0.00  0.00     0.000 C
ATOM     47  C3  BGC C   4      32.399  14.888   9.5370  0.00  0.00     0.000 C
ATOM     48  C4  BGC C   4      31.899  15.084   8.1190  0.00  0.00     0.000 C
ATOM     49  C5  BGC C   4      32.855  16.092   7.4630  0.00  0.00     0.000 C
ATOM     50  O5  BGC C   4      32.923  17.264   8.1980  0.00  0.00     0.000 O
ATOM     51   O  BGC C   4      32.996  15.627  11.8280  0.00  0.00     0.000 O
ATOM     53  HD  BGC C   4      32.486  15.000  12.1370  0.00  0.00     0.000 HD
ATOM     53   O  BGC C   4      31.279  14.161  10.2280  0.00  0.00     0.000 O
ATOM     55  HD  BGC C   4      30.769  13.533  10.5380  0.00  0.00     0.000 HD
ATOM     55   C  BGC C   4      32.370  16.499   6.0960  0.00  0.00     0.000 C
ATOM     56   O  BGC C   4      31.045  17.043   6.0450  0.00  0.00     0.000 O
ATOM     58  HD  BGC C   4      30.536  16.415   6.3540  0.00  0.00     0.000 HD
BRANCH 45 58
ATOM     58  O4  BGC C   5      33.369  18.393  10.0950  0.00  0.00     0.000 O
BRANCH 58 62
ATOM     59  C1  BGC C   5      35.298  18.448  12.4670  0.00  0.00     0.000 C
ATOM     60  C2  BGC C   5      34.801  19.798  12.3130  0.00  0.00     0.000 C
ATOM     61  C3  BGC C   5      34.780  20.282  10.8660  0.00  0.00     0.000 C
ATOM     62  C4  BGC C   5      34.636  19.079   9.9450  0.00  0.00     0.000 C
ATOM     63  C5  BGC C   5      35.592  18.018  10.4400  0.00  0.00     0.000 C
ATOM     64  O5  BGC C   5      36.142  18.161  11.7480  0.00  0.00     0.000 O
ATOM     65   O  BGC C   5      37.541  18.940   9.3510  0.00  0.00     0.000 O
ATOM     67  HD  BGC C   5      36.883  18.379   9.3060  0.00  0.00     0.000 HD
ATOM     67   O  BGC C   5      37.541  18.940   9.3510  0.00  0.00     0.000 O
ATOM     69  HD  BGC C   5      36.883  18.379   9.3060  0.00  0.00     0.000 HD
ENDBRANCH 58 62
ENDBRANCH 45 58
ENDBRANCH 44 48
ENDBRANCH 31 44
ENDBRANCH 30 34
ENDBRANCH 17 30
ENDBRANCH 16 20
ENDBRANCH 1 16
TORSDOF 8
ENDMDL
MODEL 98
REMARK VINA RESULT:      -1.2      9.213     17.809
ROOT
ATOM      1  C1  BGC C   1      25.466  16.398  14.0310  0.00  0.00     0.000 C
ATOM      2  C2  BGC C   1      25.309  16.848  15.4830  0.00  0.00     0.000 C
ATOM      3  C3  BGC C   1      25.617  18.336  15.6050  0.00  0.00     0.000 C
ATOM      4  C4  BGC C   1      26.941  18.704  14.9550  0.00  0.00     0.000 C
ATOM      5  C5  BGC C   1      27.045  18.069  13.5710  0.00  0.00     0.000 C
ATOM      6  O5  BGC C   1      26.714  16.716  13.5480  0.00  0.00     0.000 O
ATOM      7   O  BGC C   1      23.979  16.591  15.8640  0.00  0.00     0.000 O
ATOM      9  HD  BGC C   1      24.650  16.723  16.3960  0.00  0.00     0.000 HD
ATOM      9   O  BGC C   1      25.587  18.684  16.9950  0.00  0.00     0.000 O
ATOM     11  HD  BGC C   1      26.258  18.815  17.5270  0.00  0.00     0.000 HD
ATOM     11   O  BGC C   1      26.977  20.124  14.8700  0.00  0.00     0.000 O
ATOM     13  HD  BGC C   1      27.647  20.256  15.4020  0.00  0.00     0.000 HD
ATOM     13   O  BGC C   1      29.418  17.418  13.8560  0.00  0.00     0.000 O
ATOM     15  HD  BGC C   1      30.089  17.549  14.3880  0.00  0.00     0.000 HD
ATOM     15   C  BGC C   1      28.494  18.228  13.0780  0.00  0.00     0.000 C
ENDROOT
BRANCH 1 16
ATOM     16  O4  BGC C   2      25.349  14.996  13.9790  0.00  0.00     0.000 O
BRANCH 16 20
ATOM     17  C1  BGC C   2      23.999  12.162  11.3670  0.00  0.00     0.000 C
ATOM     18  C2  BGC C   2      25.406  12.680  11.1170  0.00  0.00     0.000 C
ATOM     19  C3  BGC C   2      25.928  13.435  12.3310  0.00  0.00     0.000 C
ATOM     20  C4  BGC C   2      24.933  14.468  12.7410  0.00  0.00     0.000 C
ATOM     21  C5  BGC C   2      23.541  13.861  12.8910  0.00  0.00     0.000 C
ATOM     22  O5  BGC C   2      23.150  13.217  11.7160  0.00  0.00     0.000 O
ATOM     23   O  BGC C   2      26.262  11.568  10.8120  0.00  0.00     0.000 O
ATOM     25  HD  BGC C   2      27.030  11.670  11.1980  0.00  0.00     0.000 HD
ATOM     25   O  BGC C   2      27.162  14.059  11.9990  0.00  0.00     0.000 O
ATOM     27  HD  BGC C   2      27.930  14.161  12.3850  0.00  0.00     0.000 HD
ATOM     27   C  BGC C   2      22.440  14.862  13.2950  0.00  0.00     0.000 C
ATOM     28   O  BGC C   2      22.394  15.979  12.3930  0.00  0.00     0.000 O
ATOM     30  HD  BGC C   2      23.163  16.081  12.7790  0.00  0.00     0.000 HD
BRANCH 17 30
ATOM     30  O4  BGC C   3      23.508  11.560  10.1880  0.00  0.00     0.000 O
BRANCH 30 34
ATOM     31  C1  BGC C   3      21.256   8.427   8.9830  0.00  0.00     0.000 C
ATOM     32  C2  BGC C   3      20.477   9.716   9.3380  0.00  0.00     0.000 C
ATOM     33  C3  BGC C   3      21.389  10.890   9.4280  0.00  0.00     0.000 C
ATOM     34  C4  BGC C   3      22.547  10.530  10.3630  0.00  0.00     0.000 C
ATOM     35  C5  BGC C   3      23.212   9.168  10.0400  0.00  0.00     0.000 C
ATOM     36  O5  BGC C   3      22.236   8.160   9.9560  0.00  0.00     0.000 O
ATOM     37   O  BGC C   3      19.404  10.105   8.5000  0.00  0.00     0.000 O
ATOM     39  HD  BGC C   3      20.075  10.369   8.9810  0.00  0.00     0.000 HD
ATOM     39   O  BGC C   3      20.663  12.057   9.9150  0.00  0.00     0.000 O
ATOM     41  HD  BGC C   3      21.333  12.320  10.3960  0.00  0.00     0.000 HD
ATOM     41   C  BGC C   3      24.260   8.688  11.0700  0.00  0.00     0.000 C
ATOM     42   O  BGC C   3      23.733   8.407  12.4160  0.00  0.00     0.000 O
ATOM     44  HD  BGC C   3      24.403   8.671  12.8970  0.00  0.00     0.000 HD
BRANCH 31 44
ATOM     44  O4  BGC C   4      20.401   7.336   8.8980  0.00  0.00     0.000 O
BRANCH 44 48
ATOM     45  C1  BGC C   4      19.615   3.857   6.8880  0.00  0.00     0.000 C
ATOM     46  C2  BGC C   4      20.979   3.780   7.6470  0.00  0.00     0.000 C
ATOM     47  C3  BGC C   4      20.911   5.020   8.5480  0.00  0.00     0.000 C
ATOM     48  C4  BGC C   4      20.577   6.357   7.9170  0.00  0.00     0.000 C
ATOM     49  C5  BGC C   4      19.214   6.177   7.2300  0.00  0.00     0.000 C
ATOM     50  O5  BGC C   4      19.246   5.126   6.3280  0.00  0.00     0.000 O
ATOM     51   O  BGC C   4      21.379   2.585   8.5310  0.00  0.00     0.000 O
ATOM     53  HD  BGC C   4      22.107   2.746   8.9720  0.00  0.00     0.000 HD
ATOM     53   O  BGC C   4      22.362   5.142   8.9250  0.00  0.00     0.000 O
ATOM     55  HD  BGC C   4      23.090   5.303   9.3660  0.00  0.00     0.000 HD
ATOM     55   C  BGC C   4      18.842   7.393   6.4210  0.00  0.00     0.000 C
ATOM     56   O  BGC C   4      19.793   7.790   5.4260  0.00  0.00     0.000 O
ATOM     58  HD  BGC C   4      20.521   7.951   5.8670  0.00  0.00     0.000 HD
BRANCH 45 58
ATOM     58  O4  BGC C   5      19.552   2.952   5.8260  0.00  0.00     0.000 O
BRANCH 58 62
ATOM     59  C1  BGC C   5      19.215   0.170   7.0490  0.00  0.00     0.000 C
ATOM     60  C2  BGC C   5      19.222  -0.012   5.6130  0.00  0.00     0.000 C
ATOM     61  C3  BGC C   5      18.362   1.000   4.8620  0.00  0.00     0.000 C
ATOM     62  C4  BGC C   5      18.277   2.279   5.6830  0.00  0.00     0.000 C
ATOM     63  C5  BGC C   5      18.007   1.877   7.1140  0.00  0.00     0.000 C
ATOM     64  O5  BGC C   5      18.214   0.515   7.4850  0.00  0.00     0.000 O
ATOM     65   O  BGC C   5      15.624   1.600   6.8290  0.00  0.00     0.000 O
ATOM     67  HD  BGC C   5      16.270   2.128   7.0600  0.00  0.00     0.000 HD
ATOM     67   O  BGC C   5      15.624   1.600   6.8290  0.00  0.00     0.000 O
ATOM     69  HD  BGC C   5      16.270   2.128   7.0600  0.00  0.00     0.000 HD
ENDBRANCH 58 62
ENDBRANCH 45 58
ENDBRANCH 44 48
ENDBRANCH 31 44
ENDBRANCH 30 34
ENDBRANCH 17 30
ENDBRANCH 16 20
ENDBRANCH 1 16
TORSDOF 8
ENDMDL
MODEL 99
REMARK VINA RESULT:      -1.1      9.168     13.978
ROOT
ATOM      1  C1  BGC C   1      13.852   3.702   4.3220  0.00  0.00     0.000 C
ATOM      2  C2  BGC C   1      13.427   2.355   3.7390  0.00  0.00     0.000 C
ATOM      3  C3  BGC C   1      13.722   1.239   4.7340  0.00  0.00     0.000 C
ATOM      4  C4  BGC C   1      15.149   1.295   5.2530  0.00  0.00     0.000 C
ATOM      5  C5  BGC C   1      15.508   2.721   5.6590  0.00  0.00     0.000 C
ATOM      6  O5  BGC C   1      15.174   3.678   4.7060  0.00  0.00     0.000 O
ATOM      7   O  BGC C   1      12.045   2.425   3.4780  0.00  0.00     0.000 O
ATOM      9  HD  BGC C   1      12.603   1.855   3.1420  0.00  0.00     0.000 HD
ATOM      9   O  BGC C   1      13.431  -0.013   4.0970  0.00  0.00     0.000 O
ATOM     11  HD  BGC C   1      13.989  -0.583   3.7610  0.00  0.00     0.000 HD
ATOM     11   O  BGC C   1      15.216   0.412   6.3680  0.00  0.00     0.000 O
ATOM     13  HD  BGC C   1      15.775  -0.158   6.0310  0.00  0.00     0.000 HD
ATOM     13   O  BGC C   1      17.777   2.619   4.6680  0.00  0.00     0.000 O
ATOM     15  HD  BGC C   1      18.335   2.049   4.3320  0.00  0.00     0.000 HD
ATOM     15   C  BGC C   1      17.027   2.782   5.9040  0.00  0.00     0.000 C
ENDROOT
BRANCH 1 16
ATOM     16  O4  BGC C   2      13.732   4.685   3.3200  0.00  0.00     0.000 O
BRANCH 16 20
ATOM     17  C1  BGC C   2      13.571   8.763   3.2040  0.00  0.00     0.000 C
ATOM     18  C2  BGC C   2      14.935   8.144   2.9430  0.00  0.00     0.000 C
ATOM     19  C3  BGC C   2      14.806   6.656   2.6520  0.00  0.00     0.000 C
ATOM     20  C4  BGC C   2      14.006   6.003   3.7290  0.00  0.00     0.000 C
ATOM     21  C5  BGC C   2      12.694   6.745   3.9640  0.00  0.00     0.000 C
ATOM     22  O5  BGC C   2      12.926   8.092   4.2490  0.00  0.00     0.000 O
ATOM     23   O  BGC C   2      15.547   8.822   1.8350  0.00  0.00     0.000 O
ATOM     25  HD  BGC C   2      15.951   8.251   1.3240  0.00  0.00     0.000 HD
ATOM     25   O  BGC C   2      16.103   6.076   2.5960  0.00  0.00     0.000 O
ATOM     27  HD  BGC C   2      16.507   5.505   2.0850  0.00  0.00     0.000 HD
ATOM     27   C  BGC C   2      11.807   6.152   5.0780  0.00  0.00     0.000 C
ATOM     28   O  BGC C   2      12.532   6.032   6.3130  0.00  0.00     0.000 O
ATOM     30  HD  BGC C   2      12.936   5.461   5.8020  0.00  0.00     0.000 HD
BRANCH 17 30
ATOM     30  O4  BGC C   3      13.736  10.116   3.5740  0.00  0.00     0.000 O
BRANCH 30 34
ATOM     31  C1  BGC C   3      11.783  13.653   3.4760  0.00  0.00     0.000 C
ATOM     32  C2  BGC C   3      11.445  12.733   4.6730  0.00  0.00     0.000 C
ATOM     33  C3  BGC C   3      12.446  11.638   4.8100  0.00  0.00     0.000 C
ATOM     34  C4  BGC C   3      12.589  10.943   3.4540  0.00  0.00     0.000 C
ATOM     35  C5  BGC C   3      12.801  11.921   2.2700  0.00  0.00     0.000 C
ATOM     36  O5  BGC C   3      11.808  12.915   2.2790  0.00  0.00     0.000 O
ATOM     37   O  BGC C   3      11.314  13.319   5.9550  0.00  0.00     0.000 O
ATOM     39  HD  BGC C   3      11.594  12.638   5.5010  0.00  0.00     0.000 HD
ATOM     39   O  BGC C   3      12.025  10.698   5.8420  0.00  0.00     0.000 O
ATOM     41  HD  BGC C   3      12.305  10.016   5.3870  0.00  0.00     0.000 HD
ATOM     41   C  BGC C   3      12.768  11.270   0.8680  0.00  0.00     0.000 C
ATOM     42   O  BGC C   3      11.477  10.673   0.4850  0.00  0.00     0.000 O
ATOM     44  HD  BGC C   3      11.757   9.991   0.0300  0.00  0.00     0.000 HD
BRANCH 31 44
ATOM     44  O4  BGC C   4      10.849  14.674   3.3530  0.00  0.00     0.000 O
BRANCH 44 48
ATOM     45  C1  BGC C   4      10.349  18.665   2.5900  0.00  0.00     0.000 C
ATOM     46  C2  BGC C   4      10.643  17.867   1.2790  0.00  0.00     0.000 C
ATOM     47  C3  BGC C   4      10.481  16.415   1.7480  0.00  0.00     0.000 C
ATOM     48  C4  BGC C   4      11.236  15.964   2.9830  0.00  0.00     0.000 C
ATOM     49  C5  BGC C   4      10.792  16.897   4.1200  0.00  0.00     0.000 C
ATOM     50  O5  BGC C   4      11.007  18.224   3.7880  0.00  0.00     0.000 O
ATOM     51   O  BGC C   4       9.813  18.035  -0.0070  0.00  0.00     0.000 O
ATOM     53  HD  BGC C   4      10.026  17.443  -0.6010  0.00  0.00     0.000 HD
ATOM     53   O  BGC C   4      11.167  15.703   0.6140  0.00  0.00     0.000 O
ATOM     55  HD  BGC C   4      11.380  15.111   0.0190  0.00  0.00     0.000 HD
ATOM     55   C  BGC C   4      11.596  16.658   5.3720  0.00  0.00     0.000 C
ATOM     56   O  BGC C   4      13.016  16.775   5.2280  0.00  0.00     0.000 O
ATOM     58  HD  BGC C   4      13.229  16.183   4.6340  0.00  0.00     0.000 HD
BRANCH 45 58
ATOM     58  O4  BGC C   5      10.673  20.018   2.4680  0.00  0.00     0.000 O
BRANCH 58 62
ATOM     59  C1  BGC C   5      10.498  22.468   4.2890  0.00  0.00     0.000 C
ATOM     60  C2  BGC C   5       9.463  21.557   4.7280  0.00  0.00     0.000 C
ATOM     61  C3  BGC C   5       8.660  20.944   3.5840  0.00  0.00     0.000 C
ATOM     62  C4  BGC C   5       9.532  20.901   2.3370  0.00  0.00     0.000 C
ATOM     63  C5  BGC C   5      10.223  22.241   2.2270  0.00  0.00     0.000 C
ATOM     64  O5  BGC C   5      10.229  23.095   3.3690  0.00  0.00     0.000 O
ATOM     65   O  BGC C   5       8.358  23.376   1.1930  0.00  0.00     0.000 O
ATOM     67  HD  BGC C   5       9.099  22.943   1.0760  0.00  0.00     0.000 HD
ATOM     67   O  BGC C   5       8.358  23.376   1.1930  0.00  0.00     0.000 O
ATOM     69  HD  BGC C   5       9.099  22.943   1.0760  0.00  0.00     0.000 HD
ENDBRANCH 58 62
ENDBRANCH 45 58
ENDBRANCH 44 48
ENDBRANCH 31 44
ENDBRANCH 30 34
ENDBRANCH 17 30
ENDBRANCH 16 20
ENDBRANCH 1 16
TORSDOF 8
ENDMDL
MODEL 100
REMARK VINA RESULT:      -1.1     13.688     17.091
ROOT
ATOM      1  C1  BGC C   1       7.594  23.613  10.9160  0.00  0.00     0.000 C
ATOM      2  C2  BGC C   1       8.183  24.090  12.2430  0.00  0.00     0.000 C
ATOM      3  C3  BGC C   1       7.206  25.028  12.9410  0.00  0.00     0.000 C
ATOM      4  C4  BGC C   1       6.712  26.132  12.0220  0.00  0.00     0.000 C
ATOM      5  C5  BGC C   1       6.297  25.550  10.6730  0.00  0.00     0.000 C
ATOM      6  O5  BGC C   1       7.234  24.680  10.1250  0.00  0.00     0.000 O
ATOM      7   O  BGC C   1       8.418  22.950  13.0350  0.00  0.00     0.000 O
ATOM      9  HD  BGC C   1       8.771  23.734  13.1450  0.00  0.00     0.000 HD
ATOM      9   O  BGC C   1       7.850  25.551  14.1110  0.00  0.00     0.000 O
ATOM     11  HD  BGC C   1       8.203  26.335  14.2200  0.00  0.00     0.000 HD
ATOM     11   O  BGC C   1       5.608  26.749  12.6750  0.00  0.00     0.000 O
ATOM     13  HD  BGC C   1       5.960  27.532  12.7840  0.00  0.00     0.000 HD
ATOM     13   O  BGC C   1       7.330  27.385   9.3670  0.00  0.00     0.000 O
ATOM     15  HD  BGC C   1       7.682  28.168   9.4760  0.00  0.00     0.000 HD
ATOM     15   C  BGC C   1       6.079  26.718   9.6940  0.00  0.00     0.000 C
ENDROOT
BRANCH 1 16
ATOM     16  O4  BGC C   2       8.583  22.895  10.2160  0.00  0.00     0.000 O
BRANCH 16 20
ATOM     17  C1  BGC C   2       8.791  19.692   7.6920  0.00  0.00     0.000 C
ATOM     18  C2  BGC C   2       8.403  21.017   7.0540  0.00  0.00     0.000 C
ATOM     19  C3  BGC C   2       8.710  22.177   7.9900  0.00  0.00     0.000 C
ATOM     20  C4  BGC C   2       8.104  21.914   9.3280  0.00  0.00     0.000 C
ATOM     21  C5  BGC C   2       8.493  20.531   9.8430  0.00  0.00     0.000 C
ATOM     22  O5  BGC C   2       8.144  19.540   8.9230  0.00  0.00     0.000 O
ATOM     23   O  BGC C   2       9.121  21.165   5.8200  0.00  0.00     0.000 O
ATOM     25  HD  BGC C   2       9.390  21.983   5.7290  0.00  0.00     0.000 HD
ATOM     25   O  BGC C   2       8.170  23.374   7.4440  0.00  0.00     0.000 O
ATOM     27  HD  BGC C   2       8.439  24.192   7.3530  0.00  0.00     0.000 HD
ATOM     27   C  BGC C   2       7.895  20.161  11.2160  0.00  0.00     0.000 C
ATOM     28   O  BGC C   2       6.465  20.302  11.2160  0.00  0.00     0.000 O
ATOM     30  HD  BGC C   2       6.734  21.120  11.1250  0.00  0.00     0.000 HD
BRANCH 17 30
ATOM     30  O4  BGC C   3       8.397  18.635   6.8440  0.00  0.00     0.000 O
BRANCH 30 34
ATOM     31  C1  BGC C   3       9.615  14.993   5.5810  0.00  0.00     0.000 C
ATOM     32  C2  BGC C   3       8.916  15.025   6.9610  0.00  0.00     0.000 C
ATOM     33  C3  BGC C   3       8.208  16.318   7.1760  0.00  0.00     0.000 C
ATOM     34  C4  BGC C   3       9.190  17.458   6.8990  0.00  0.00     0.000 C
ATOM     35  C5  BGC C   3       9.956  17.312   5.5590  0.00  0.00     0.000 C
ATOM     36  O5  BGC C   3      10.549  16.040   5.4770  0.00  0.00     0.000 O
ATOM     37   O  BGC C   3       7.987  14.003   7.2680  0.00  0.00     0.000 O
ATOM     39  HD  BGC C   3       8.181  14.844   7.3380  0.00  0.00     0.000 HD
ATOM     39   O  BGC C   3       7.691  16.388   8.5380  0.00  0.00     0.000 O
ATOM     41  HD  BGC C   3       7.885  17.229   8.6080  0.00  0.00     0.000 HD
ATOM     41   C  BGC C   3      11.084  18.345   5.3320  0.00  0.00     0.000 C
ATOM     42   O  BGC C   3      12.206  18.268   6.2830  0.00  0.00     0.000 O
ATOM     44  HD  BGC C   3      12.400  19.109   6.3540  0.00  0.00     0.000 HD
BRANCH 31 44
ATOM     44  O4  BGC C   4      10.273  13.786   5.3840  0.00  0.00     0.000 O
BRANCH 44 48
ATOM     45  C1  BGC C   4      11.159  10.871   2.6490  0.00  0.00     0.000 C
ATOM     46  C2  BGC C   4      11.836  12.228   2.2740  0.00  0.00     0.000 C
ATOM     47  C3  BGC C   4      11.635  13.049   3.5550  0.00  0.00     0.000 C
ATOM     48  C4  BGC C   4      10.242  13.142   4.1450  0.00  0.00     0.000 C
ATOM     49  C5  BGC C   4       9.793  11.697   4.4140  0.00  0.00     0.000 C
ATOM     50  O5  BGC C   4       9.861  10.932   3.2620  0.00  0.00     0.000 O
ATOM     51   O  BGC C   4      13.318  12.343   1.8760  0.00  0.00     0.000 O
ATOM     53  HD  BGC C   4      13.567  13.170   1.8130  0.00  0.00     0.000 HD
ATOM     53   O  BGC C   4      11.904  14.428   3.0200  0.00  0.00     0.000 O
ATOM     55  HD  BGC C   4      12.153  15.256   2.9560  0.00  0.00     0.000 HD
ATOM     55   C  BGC C   4       8.352  11.642   4.8510  0.00  0.00     0.000 C
ATOM     56   O  BGC C   4       7.409  12.242   3.9550  0.00  0.00     0.000 O
ATOM     58  HD  BGC C   4       7.658  13.069   3.8920  0.00  0.00     0.000 HD
BRANCH 45 58
ATOM     58  O4  BGC C   5      11.004  10.035   1.5410  0.00  0.00     0.000 O
BRANCH 58 62
ATOM     59  C1  BGC C   5       9.890   7.331   0.6490  0.00  0.00     0.000 C
ATOM     60  C2  BGC C   5      10.137   7.222   2.0700  0.00  0.00     0.000 C
ATOM     61  C3  BGC C   5      11.482   7.799   2.5040  0.00  0.00     0.000 C
ATOM     62  C4  BGC C   5      11.891   8.889   1.5230  0.00  0.00     0.000 C
ATOM     63  C5  BGC C   5      11.638   8.358   0.1310  0.00  0.00     0.000 C
ATOM     64  O5  BGC C   5      10.816   7.201  -0.0130  0.00  0.00     0.000 O
ATOM     65   O  BGC C   5      13.697   7.103  -0.0120  0.00  0.00     0.000 O
ATOM     67  HD  BGC C   5      13.288   7.847  -0.1820  0.00  0.00     0.000 HD
ATOM     67   O  BGC C   5      13.697   7.103  -0.0120  0.00  0.00     0.000 O
ATOM     69  HD  BGC C   5      13.288   7.847  -0.1820  0.00  0.00     0.000 HD
ENDBRANCH 58 62
ENDBRANCH 45 58
ENDBRANCH 44 48
ENDBRANCH 31 44
ENDBRANCH 30 34
ENDBRANCH 17 30
ENDBRANCH 16 20
ENDBRANCH 1 16
TORSDOF 8
ENDMDL
