MODEL 1
REMARK VINA RESULT:      -5.1      0.000      0.000
ROOT
ATOM      1  C1  BGC B   1       3.750   3.252   3.2430  0.00  0.00     0.000 C
ATOM      2  C2  BGC B   1       2.961   3.063   1.9490  0.00  0.00     0.000 C
ATOM      3  C3  BGC B   1       1.482   2.929   2.2550  0.00  0.00     0.000 C
ATOM      4  C4  BGC B   1       1.244   1.853   3.3080  0.00  0.00     0.000 C
ATOM      5  C5  BGC B   1       2.081   2.186   4.5340  0.00  0.00     0.000 C
ATOM      6  O5  BGC B   1       3.462   2.179   4.1290  0.00  0.00     0.000 O
ATOM      7   O  BGC B   1       3.167   4.203   1.0980  0.00  0.00     0.000 O
ATOM      9  HD  BGC B   1       2.538   4.406   0.5380  0.00  0.00     0.000 HD
ATOM      9   O  BGC B   1       0.784   2.621   1.0450  0.00  0.00     0.000 O
ATOM     11  HD  BGC B   1       0.156   2.824   0.4850  0.00  0.00     0.000 HD
ATOM     11   O  BGC B   1      -0.124   1.821   3.6520  0.00  0.00     0.000 O
ATOM     13  HD  BGC B   1      -0.752   2.025   3.0920  0.00  0.00     0.000 HD
ATOM     13   C  BGC B   1       1.914   1.223   5.7010  0.00  0.00     0.000 C
ATOM     14   O  BGC B   1       2.172  -0.127   5.3310  0.00  0.00     0.000 O
ATOM     16  HD  BGC B   1       1.543   0.076   4.7710  0.00  0.00     0.000 HD
ENDROOT
BRANCH 1 16
ATOM     16  O4  BGC B   2       5.125   3.090   2.8980  0.00  0.00     0.000 O
BRANCH 16 20
ATOM     17  C1  BGC B   2       8.845   4.368   3.9310  0.00  0.00     0.000 C
ATOM     18  C2  BGC B   2       8.229   3.404   4.9350  0.00  0.00     0.000 C
ATOM     19  C3  BGC B   2       7.029   2.723   4.2800  0.00  0.00     0.000 C
ATOM     20  C4  BGC B   2       6.065   3.758   3.7360  0.00  0.00     0.000 C
ATOM     21  C5  BGC B   2       6.766   4.817   2.8850  0.00  0.00     0.000 C
ATOM     22  O5  BGC B   2       7.850   5.368   3.6430  0.00  0.00     0.000 O
ATOM     23   O  BGC B   2       9.189   2.403   5.3120  0.00  0.00     0.000 O
ATOM     25  HD  BGC B   2       8.507   2.405   4.7780  0.00  0.00     0.000 HD
ATOM     25   O  BGC B   2       6.372   1.886   5.2240  0.00  0.00     0.000 O
ATOM     27  HD  BGC B   2       5.690   1.887   4.6900  0.00  0.00     0.000 HD
ATOM     27   C  BGC B   2       5.846   5.965   2.4890  0.00  0.00     0.000 C
ATOM     28   O  BGC B   2       5.242   6.610   3.5990  0.00  0.00     0.000 O
ATOM     30  HD  BGC B   2       4.560   6.611   3.0650  0.00  0.00     0.000 HD
BRANCH 17 30
ATOM     30  O4  BGC B   3       9.878   5.058   4.6080  0.00  0.00     0.000 O
BRANCH 30 34
ATOM     31  C1  BGC B   3      13.655   6.523   3.8900  0.00  0.00     0.000 C
ATOM     32  C2  BGC B   3      12.523   7.387   3.3350  0.00  0.00     0.000 C
ATOM     33  C3  BGC B   3      11.219   6.971   3.9930  0.00  0.00     0.000 C
ATOM     34  C4  BGC B   3      10.982   5.474   3.7990  0.00  0.00     0.000 C
ATOM     35  C5  BGC B   3      12.203   4.685   4.2380  0.00  0.00     0.000 C
ATOM     36  O5  BGC B   3      13.360   5.176   3.5540  0.00  0.00     0.000 O
ATOM     37   O  BGC B   3      12.771   8.755   3.6490  0.00  0.00     0.000 O
ATOM     39  HD  BGC B   3      12.114   8.977   3.1310  0.00  0.00     0.000 HD
ATOM     39   O  BGC B   3      10.164   7.725   3.4160  0.00  0.00     0.000 O
ATOM     41  HD  BGC B   3       9.506   7.946   2.8980  0.00  0.00     0.000 HD
ATOM     41   C  BGC B   3      12.091   3.184   3.9940  0.00  0.00     0.000 C
ATOM     42   O  BGC B   3      11.861   2.930   2.6280  0.00  0.00     0.000 O
ATOM     44  HD  BGC B   3      11.204   3.151   2.1100  0.00  0.00     0.000 HD
BRANCH 31 44
ATOM     44  O4  BGC B   4      14.821   6.864   3.1860  0.00  0.00     0.000 O
BRANCH 44 48
ATOM     45  C1  BGC B   4      18.885   7.057   3.6900  0.00  0.00     0.000 C
ATOM     46  C2  BGC B   4      18.252   5.737   4.1090  0.00  0.00     0.000 C
ATOM     47  C3  BGC B   4      16.864   5.637   3.5250  0.00  0.00     0.000 C
ATOM     48  C4  BGC B   4      16.037   6.868   3.9070  0.00  0.00     0.000 C
ATOM     49  C5  BGC B   4      16.788   8.156   3.5450  0.00  0.00     0.000 C
ATOM     50  O5  BGC B   4      18.087   8.147   4.1540  0.00  0.00     0.000 O
ATOM     51   O  BGC B   4      19.045   4.635   3.6280  0.00  0.00     0.000 O
ATOM     53  HD  BGC B   4      18.408   4.611   3.0420  0.00  0.00     0.000 HD
ATOM     53   O  BGC B   4      16.233   4.453   4.0330  0.00  0.00     0.000 O
ATOM     55  HD  BGC B   4      15.596   4.429   3.4480  0.00  0.00     0.000 HD
ATOM     55   C  BGC B   4      16.097   9.432   3.9910  0.00  0.00     0.000 C
ATOM     56   O  BGC B   4      15.866   9.333   5.3970  0.00  0.00     0.000 O
ATOM     58  HD  BGC B   4      15.228   9.309   4.8120  0.00  0.00     0.000 HD
BRANCH 45 58
ATOM     58  O4  BGC B   5      20.067   7.191   4.4790  0.00  0.00     0.000 O
BRANCH 58 62
ATOM     59  C1  BGC B   5      24.062   8.233   4.1610  0.00  0.00     0.000 C
ATOM     60  C2  BGC B   5      23.092   9.394   4.2460  0.00  0.00     0.000 C
ATOM     61  C3  BGC B   5      21.747   8.928   4.7690  0.00  0.00     0.000 C
ATOM     62  C4  BGC B   5      21.237   7.782   3.9090  0.00  0.00     0.000 C
ATOM     63  C5  BGC B   5      22.296   6.676   3.7980  0.00  0.00     0.000 C
ATOM     64  O5  BGC B   5      23.502   7.241   3.2940  0.00  0.00     0.000 O
ATOM     65   O  BGC B   5      21.633   6.166   1.6080  0.00  0.00     0.000 O
ATOM     67  HD  BGC B   5      20.960   6.247   1.0690  0.00  0.00     0.000 HD
ATOM     67   O  BGC B   5      21.633   6.166   1.6080  0.00  0.00     0.000 O
ATOM     69  HD  BGC B   5      20.960   6.247   1.0690  0.00  0.00     0.000 HD
ENDBRANCH 58 62
ENDBRANCH 45 58
ENDBRANCH 44 48
ENDBRANCH 31 44
ENDBRANCH 30 34
ENDBRANCH 17 30
ENDBRANCH 16 20
ENDBRANCH 1 16
TORSDOF 8
ENDMDL
MODEL 2
REMARK VINA RESULT:      -4.7      1.814     14.936
ROOT
ATOM      1  C1  BGC B   1      20.619   6.552   3.4430  0.00  0.00     0.000 C
ATOM      2  C2  BGC B   1      21.648   5.714   2.6860  0.00  0.00     0.000 C
ATOM      3  C3  BGC B   1      23.035   6.296   2.8790  0.00  0.00     0.000 C
ATOM      4  C4  BGC B   1      23.050   7.780   2.5380  0.00  0.00     0.000 C
ATOM      5  C5  BGC B   1      21.989   8.478   3.3760  0.00  0.00     0.000 C
ATOM      6  O5  BGC B   1      20.716   7.906   3.0230  0.00  0.00     0.000 O
ATOM      7   O  BGC B   1      21.625   4.368   3.1900  0.00  0.00     0.000 O
ATOM      9  HD  BGC B   1      22.354   3.905   3.1330  0.00  0.00     0.000 HD
ATOM      9   O  BGC B   1      23.957   5.575   2.0560  0.00  0.00     0.000 O
ATOM     11  HD  BGC B   1      24.686   5.111   1.9990  0.00  0.00     0.000 HD
ATOM     11   O  BGC B   1      24.322   8.320   2.8250  0.00  0.00     0.000 O
ATOM     13  HD  BGC B   1      25.051   7.856   2.7680  0.00  0.00     0.000 HD
ATOM     13   C  BGC B   1      21.912   9.986   3.1840  0.00  0.00     0.000 C
ATOM     14   O  BGC B   1      21.722  10.349   1.8200  0.00  0.00     0.000 O
ATOM     16  HD  BGC B   1      22.451   9.885   1.7630  0.00  0.00     0.000 HD
ENDROOT
BRANCH 1 16
ATOM     16  O4  BGC B   2      19.339   6.114   2.9910  0.00  0.00     0.000 O
BRANCH 16 20
ATOM     17  C1  BGC B   2      15.531   5.482   4.2720  0.00  0.00     0.000 C
ATOM     18  C2  BGC B   2      15.996   6.923   4.4230  0.00  0.00     0.000 C
ATOM     19  C3  BGC B   2      17.263   7.114   3.5930  0.00  0.00     0.000 C
ATOM     20  C4  BGC B   2      18.304   6.080   3.9710  0.00  0.00     0.000 C
ATOM     21  C5  BGC B   2      17.737   4.660   3.9880  0.00  0.00     0.000 C
ATOM     22  O5  BGC B   2      16.569   4.646   4.8190  0.00  0.00     0.000 O
ATOM     23   O  BGC B   2      14.982   7.822   3.9460  0.00  0.00     0.000 O
ATOM     25  HD  BGC B   2      15.729   7.535   3.6140  0.00  0.00     0.000 HD
ATOM     25   O  BGC B   2      17.778   8.426   3.7880  0.00  0.00     0.000 O
ATOM     27  HD  BGC B   2      18.525   8.138   3.4570  0.00  0.00     0.000 HD
ATOM     27   C  BGC B   2      18.716   3.636   4.5470  0.00  0.00     0.000 C
ATOM     28   O  BGC B   2      19.175   3.950   5.8520  0.00  0.00     0.000 O
ATOM     30  HD  BGC B   2      19.922   3.663   5.5200  0.00  0.00     0.000 HD
BRANCH 17 30
ATOM     30  O4  BGC B   3      14.427   5.316   5.1410  0.00  0.00     0.000 O
BRANCH 30 34
ATOM     31  C1  BGC B   3      10.873   3.250   5.3190  0.00  0.00     0.000 C
ATOM     32  C2  BGC B   3      12.110   2.415   5.6470  0.00  0.00     0.000 C
ATOM     33  C3  BGC B   3      13.271   3.349   5.9370  0.00  0.00     0.000 C
ATOM     34  C4  BGC B   3      13.486   4.304   4.7640  0.00  0.00     0.000 C
ATOM     35  C5  BGC B   3      12.184   4.995   4.3990  0.00  0.00     0.000 C
ATOM     36  O5  BGC B   3      11.174   4.010   4.1590  0.00  0.00     0.000 O
ATOM     37   O  BGC B   3      11.859   1.631   6.8120  0.00  0.00     0.000 O
ATOM     39  HD  BGC B   3      12.601   1.208   6.6670  0.00  0.00     0.000 HD
ATOM     39   O  BGC B   3      14.433   2.565   6.1650  0.00  0.00     0.000 O
ATOM     41  HD  BGC B   3      15.175   2.142   6.0200  0.00  0.00     0.000 HD
ATOM     41   C  BGC B   3      12.284   5.901   3.1770  0.00  0.00     0.000 C
ATOM     42   O  BGC B   3      12.728   5.165   2.0620  0.00  0.00     0.000 O
ATOM     44  HD  BGC B   3      13.470   4.742   1.9170  0.00  0.00     0.000 HD
BRANCH 31 44
ATOM     44  O4  BGC B   4       9.852   2.356   4.9580  0.00  0.00     0.000 O
BRANCH 44 48
ATOM     45  C1  BGC B   4       5.762   2.079   4.8850  0.00  0.00     0.000 C
ATOM     46  C2  BGC B   4       6.327   3.349   4.2630  0.00  0.00     0.000 C
ATOM     47  C3  BGC B   4       7.800   3.164   3.9930  0.00  0.00     0.000 C
ATOM     48  C4  BGC B   4       8.524   2.727   5.2700  0.00  0.00     0.000 C
ATOM     49  C5  BGC B   4       7.834   1.505   5.8890  0.00  0.00     0.000 C
ATOM     50  O5  BGC B   4       6.445   1.792   6.1070  0.00  0.00     0.000 O
ATOM     51   O  BGC B   4       5.653   3.632   3.0220  0.00  0.00     0.000 O
ATOM     53  HD  BGC B   4       6.388   3.300   2.7070  0.00  0.00     0.000 HD
ATOM     53   O  BGC B   4       8.344   4.409   3.5300  0.00  0.00     0.000 O
ATOM     55  HD  BGC B   4       9.079   4.077   3.2140  0.00  0.00     0.000 HD
ATOM     55   C  BGC B   4       8.411   1.067   7.2230  0.00  0.00     0.000 C
ATOM     56   O  BGC B   4       8.380   2.194   8.1020  0.00  0.00     0.000 O
ATOM     58  HD  BGC B   4       9.115   1.861   7.7860  0.00  0.00     0.000 HD
BRANCH 45 58
ATOM     58  O4  BGC B   5       4.453   2.417   5.3430  0.00  0.00     0.000 O
BRANCH 58 62
ATOM     59  C1  BGC B   5       0.548   1.065   5.0710  0.00  0.00     0.000 C
ATOM     60  C2  BGC B   5       1.345   0.521   6.2400  0.00  0.00     0.000 C
ATOM     61  C3  BGC B   5       2.577   1.371   6.4870  0.00  0.00     0.000 C
ATOM     62  C4  BGC B   5       3.388   1.473   5.2050  0.00  0.00     0.000 C
ATOM     63  C5  BGC B   5       2.505   1.953   4.0430  0.00  0.00     0.000 C
ATOM     64  O5  BGC B   5       1.393   1.073   3.9160  0.00  0.00     0.000 O
ATOM     65   O  BGC B   5       3.701   0.648   2.5060  0.00  0.00     0.000 O
ATOM     67  HD  BGC B   5       4.466   0.256   2.4020  0.00  0.00     0.000 HD
ATOM     67   O  BGC B   5       3.701   0.648   2.5060  0.00  0.00     0.000 O
ATOM     69  HD  BGC B   5       4.466   0.256   2.4020  0.00  0.00     0.000 HD
ENDBRANCH 58 62
ENDBRANCH 45 58
ENDBRANCH 44 48
ENDBRANCH 31 44
ENDBRANCH 30 34
ENDBRANCH 17 30
ENDBRANCH 16 20
ENDBRANCH 1 16
TORSDOF 8
ENDMDL
MODEL 3
REMARK VINA RESULT:      -4.7      2.076     14.740
ROOT
ATOM      1  C1  BGC B   1      18.733  10.764   4.5000  0.00  0.00     0.000 C
ATOM      2  C2  BGC B   1      19.259  11.496   5.7330  0.00  0.00     0.000 C
ATOM      3  C3  BGC B   1      20.419  12.395   5.3500  0.00  0.00     0.000 C
ATOM      4  C4  BGC B   1      21.474  11.613   4.5780  0.00  0.00     0.000 C
ATOM      5  C5  BGC B   1      20.806  10.957   3.3780  0.00  0.00     0.000 C
ATOM      6  O5  BGC B   1      19.801  10.058   3.8840  0.00  0.00     0.000 O
ATOM      7   O  BGC B   1      18.205  12.297   6.2930  0.00  0.00     0.000 O
ATOM      9  HD  BGC B   1      18.430  13.008   6.7330  0.00  0.00     0.000 HD
ATOM      9   O  BGC B   1      20.975  12.964   6.5390  0.00  0.00     0.000 O
ATOM     11  HD  BGC B   1      21.200  13.675   6.9800  0.00  0.00     0.000 HD
ATOM     11   O  BGC B   1      22.490  12.490   4.1420  0.00  0.00     0.000 O
ATOM     13  HD  BGC B   1      22.715  13.201   4.5830  0.00  0.00     0.000 HD
ATOM     13   C  BGC B   1      21.745  10.173   2.4730  0.00  0.00     0.000 C
ATOM     14   O  BGC B   1      22.478   9.179   3.1830  0.00  0.00     0.000 O
ATOM     16  HD  BGC B   1      22.703   9.890   3.6230  0.00  0.00     0.000 HD
ENDROOT
BRANCH 1 16
ATOM     16  O4  BGC B   2      17.850   9.753   4.9840  0.00  0.00     0.000 O
BRANCH 16 20
ATOM     17  C1  BGC B   2      14.506   7.686   3.9440  0.00  0.00     0.000 C
ATOM     18  C2  BGC B   2      15.764   7.211   3.2320  0.00  0.00     0.000 C
ATOM     19  C3  BGC B   2      16.978   7.791   3.9540  0.00  0.00     0.000 C
ATOM     20  C4  BGC B   2      16.857   9.297   4.0690  0.00  0.00     0.000 C
ATOM     21  C5  BGC B   2      15.497   9.733   4.6150  0.00  0.00     0.000 C
ATOM     22  O5  BGC B   2      14.471   9.121   3.8230  0.00  0.00     0.000 O
ATOM     23   O  BGC B   2      15.839   5.777   3.2650  0.00  0.00     0.000 O
ATOM     25  HD  BGC B   2      16.235   6.405   3.7100  0.00  0.00     0.000 HD
ATOM     25   O  BGC B   2      18.168   7.444   3.2570  0.00  0.00     0.000 O
ATOM     27  HD  BGC B   2      18.565   8.072   3.7020  0.00  0.00     0.000 HD
ATOM     27   C  BGC B   2      15.289  11.241   4.5580  0.00  0.00     0.000 C
ATOM     28   O  BGC B   2      15.443  11.781   3.2560  0.00  0.00     0.000 O
ATOM     30  HD  BGC B   2      15.839  12.409   3.7010  0.00  0.00     0.000 HD
BRANCH 17 30
ATOM     30  O4  BGC B   3      13.406   7.224   3.1830  0.00  0.00     0.000 O
BRANCH 30 34
ATOM     31  C1  BGC B   3       9.537   5.923   3.6910  0.00  0.00     0.000 C
ATOM     32  C2  BGC B   3       9.780   7.372   4.1130  0.00  0.00     0.000 C
ATOM     33  C3  BGC B   3      11.095   7.843   3.5180  0.00  0.00     0.000 C
ATOM     34  C4  BGC B   3      12.227   6.901   3.9260  0.00  0.00     0.000 C
ATOM     35  C5  BGC B   3      11.858   5.462   3.6080  0.00  0.00     0.000 C
ATOM     36  O5  BGC B   3      10.602   5.147   4.2170  0.00  0.00     0.000 O
ATOM     37   O  BGC B   3       8.733   8.197   3.6060  0.00  0.00     0.000 O
ATOM     39  HD  BGC B   3       9.039   8.850   4.0850  0.00  0.00     0.000 HD
ATOM     39   O  BGC B   3      11.350   9.161   3.9780  0.00  0.00     0.000 O
ATOM     41  HD  BGC B   3      11.655   9.815   4.4580  0.00  0.00     0.000 HD
ATOM     41   C  BGC B   3      12.894   4.441   4.0660  0.00  0.00     0.000 C
ATOM     42   O  BGC B   3      13.105   4.553   5.4530  0.00  0.00     0.000 O
ATOM     44  HD  BGC B   3      13.410   5.206   5.9330  0.00  0.00     0.000 HD
BRANCH 31 44
ATOM     44  O4  BGC B   4       8.369   5.491   4.3410  0.00  0.00     0.000 O
BRANCH 44 48
ATOM     45  C1  BGC B   4       5.155   3.021   3.7330  0.00  0.00     0.000 C
ATOM     46  C2  BGC B   4       6.418   2.318   4.2090  0.00  0.00     0.000 C
ATOM     47  C3  BGC B   4       7.382   3.337   4.7660  0.00  0.00     0.000 C
ATOM     48  C4  BGC B   4       7.639   4.443   3.7370  0.00  0.00     0.000 C
ATOM     49  C5  BGC B   4       6.314   5.029   3.2330  0.00  0.00     0.000 C
ATOM     50  O5  BGC B   4       5.481   3.977   2.7240  0.00  0.00     0.000 O
ATOM     51   O  BGC B   4       6.095   1.365   5.2390  0.00  0.00     0.000 O
ATOM     53  HD  BGC B   4       6.412   2.001   5.7350  0.00  0.00     0.000 HD
ATOM     53   O  BGC B   4       8.615   2.680   5.0880  0.00  0.00     0.000 O
ATOM     55  HD  BGC B   4       8.932   3.315   5.5830  0.00  0.00     0.000 HD
ATOM     55   C  BGC B   4       6.463   6.054   2.1230  0.00  0.00     0.000 C
ATOM     56   O  BGC B   4       7.208   5.446   1.0660  0.00  0.00     0.000 O
ATOM     58  HD  BGC B   4       7.525   6.082   1.5620  0.00  0.00     0.000 HD
BRANCH 45 58
ATOM     58  O4  BGC B   5       4.418   2.045   2.9970  0.00  0.00     0.000 O
BRANCH 58 62
ATOM     59  C1  BGC B   5       0.535   1.271   1.7820  0.00  0.00     0.000 C
ATOM     60  C2  BGC B   5       0.882   2.736   1.9570  0.00  0.00     0.000 C
ATOM     61  C3  BGC B   5       2.387   2.927   1.9880  0.00  0.00     0.000 C
ATOM     62  C4  BGC B   5       2.990   2.036   3.0620  0.00  0.00     0.000 C
ATOM     63  C5  BGC B   5       2.536   0.581   2.8750  0.00  0.00     0.000 C
ATOM     64  O5  BGC B   5       1.113   0.539   2.8680  0.00  0.00     0.000 O
ATOM     65   O  BGC B   5       2.525   0.215   5.1910  0.00  0.00     0.000 O
ATOM     67  HD  BGC B   5       2.858   0.527   5.9270  0.00  0.00     0.000 HD
ATOM     67   O  BGC B   5       2.525   0.215   5.1910  0.00  0.00     0.000 O
ATOM     69  HD  BGC B   5       2.858   0.527   5.9270  0.00  0.00     0.000 HD
ENDBRANCH 58 62
ENDBRANCH 45 58
ENDBRANCH 44 48
ENDBRANCH 31 44
ENDBRANCH 30 34
ENDBRANCH 17 30
ENDBRANCH 16 20
ENDBRANCH 1 16
TORSDOF 8
ENDMDL
MODEL 4
REMARK VINA RESULT:      -4.5      3.864      5.762
ROOT
ATOM      1  C1  BGC B   1       5.670   2.490   4.2640  0.00  0.00     0.000 C
ATOM      2  C2  BGC B   1       4.555   2.436   5.3060  0.00  0.00     0.000 C
ATOM      3  C3  BGC B   1       3.237   2.088   4.6410  0.00  0.00     0.000 C
ATOM      4  C4  BGC B   1       2.964   3.020   3.4660  0.00  0.00     0.000 C
ATOM      5  C5  BGC B   1       4.149   2.954   2.5140  0.00  0.00     0.000 C
ATOM      6  O5  BGC B   1       5.309   3.404   3.2380  0.00  0.00     0.000 O
ATOM      7   O  BGC B   1       4.870   1.431   6.2840  0.00  0.00     0.000 O
ATOM      9  HD  BGC B   1       4.211   1.046   6.6930  0.00  0.00     0.000 HD
ATOM      9   O  BGC B   1       2.191   2.175   5.6130  0.00  0.00     0.000 O
ATOM     11  HD  BGC B   1       1.532   1.790   6.0210  0.00  0.00     0.000 HD
ATOM     11   O  BGC B   1       1.789   2.611   2.8000  0.00  0.00     0.000 O
ATOM     13  HD  BGC B   1       1.130   2.226   3.2090  0.00  0.00     0.000 HD
ATOM     13   C  BGC B   1       4.006   3.799   1.2560  0.00  0.00     0.000 C
ATOM     14   O  BGC B   1       3.736   5.166   1.5490  0.00  0.00     0.000 O
ATOM     16  HD  BGC B   1       3.076   4.781   1.9580  0.00  0.00     0.000 HD
ENDROOT
BRANCH 1 16
ATOM     16  O4  BGC B   2       6.793   3.085   4.9130  0.00  0.00     0.000 O
BRANCH 16 20
ATOM     17  C1  BGC B   2      10.858   3.113   4.8290  0.00  0.00     0.000 C
ATOM     18  C2  BGC B   2      10.219   3.962   3.7400  0.00  0.00     0.000 C
ATOM     19  C3  BGC B   2       8.746   4.168   4.0890  0.00  0.00     0.000 C
ATOM     20  C4  BGC B   2       8.065   2.835   4.3210  0.00  0.00     0.000 C
ATOM     21  C5  BGC B   2       8.849   1.939   5.2810  0.00  0.00     0.000 C
ATOM     22  O5  BGC B   2      10.197   1.834   4.8080  0.00  0.00     0.000 O
ATOM     23   O  BGC B   2      10.868   5.241   3.6660  0.00  0.00     0.000 O
ATOM     25  HD  BGC B   2      10.118   4.972   4.0040  0.00  0.00     0.000 HD
ATOM     25   O  BGC B   2       8.096   4.878   3.0420  0.00  0.00     0.000 O
ATOM     27  HD  BGC B   2       7.345   4.609   3.3790  0.00  0.00     0.000 HD
ATOM     27   C  BGC B   2       8.279   0.530   5.3780  0.00  0.00     0.000 C
ATOM     28   O  BGC B   2       8.190  -0.127   4.1240  0.00  0.00     0.000 O
ATOM     30  HD  BGC B   2       7.439  -0.397   4.4620  0.00  0.00     0.000 HD
BRANCH 17 30
ATOM     30  O4  BGC B   3      12.186   2.849   4.4160  0.00  0.00     0.000 O
BRANCH 30 34
ATOM     31  C1  BGC B   3      15.947   2.352   6.0060  0.00  0.00     0.000 C
ATOM     32  C2  BGC B   3      14.897   1.382   6.5460  0.00  0.00     0.000 C
ATOM     33  C3  BGC B   3      13.694   1.395   5.6190  0.00  0.00     0.000 C
ATOM     34  C4  BGC B   3      13.168   2.821   5.4570  0.00  0.00     0.000 C
ATOM     35  C5  BGC B   3      14.294   3.758   5.0580  0.00  0.00     0.000 C
ATOM     36  O5  BGC B   3      15.364   3.645   6.0030  0.00  0.00     0.000 O
ATOM     37   O  BGC B   3      15.435   0.062   6.5680  0.00  0.00     0.000 O
ATOM     39  HD  BGC B   3      14.738  -0.198   7.0110  0.00  0.00     0.000 HD
ATOM     39   O  BGC B   3      12.693   0.551   6.1690  0.00  0.00     0.000 O
ATOM     41  HD  BGC B   3      11.996   0.292   6.6120  0.00  0.00     0.000 HD
ATOM     41   C  BGC B   3      13.878   5.221   4.9630  0.00  0.00     0.000 C
ATOM     42   O  BGC B   3      13.347   5.657   6.1920  0.00  0.00     0.000 O
ATOM     44  HD  BGC B   3      12.650   5.397   6.6360  0.00  0.00     0.000 HD
BRANCH 31 44
ATOM     44  O4  BGC B   4      16.996   2.390   6.9400  0.00  0.00     0.000 O
BRANCH 44 48
ATOM     45  C1  BGC B   4      21.087   2.576   7.1340  0.00  0.00     0.000 C
ATOM     46  C2  BGC B   4      20.420   3.805   6.5330  0.00  0.00     0.000 C
ATOM     47  C3  BGC B   4      18.949   3.795   6.8690  0.00  0.00     0.000 C
ATOM     48  C4  BGC B   4      18.313   2.471   6.4340  0.00  0.00     0.000 C
ATOM     49  C5  BGC B   4      19.102   1.283   6.9970  0.00  0.00     0.000 C
ATOM     50  O5  BGC B   4      20.481   1.392   6.6130  0.00  0.00     0.000 O
ATOM     51   O  BGC B   4      21.017   5.002   7.0680  0.00  0.00     0.000 O
ATOM     53  HD  BGC B   4      20.288   4.990   7.5370  0.00  0.00     0.000 HD
ATOM     53   O  BGC B   4      18.312   4.886   6.1890  0.00  0.00     0.000 O
ATOM     55  HD  BGC B   4      17.583   4.874   6.6570  0.00  0.00     0.000 HD
ATOM     55   C  BGC B   4      18.616  -0.075   6.5230  0.00  0.00     0.000 C
ATOM     56   O  BGC B   4      18.622  -0.066   5.0950  0.00  0.00     0.000 O
ATOM     58  HD  BGC B   4      17.894  -0.077   5.5630  0.00  0.00     0.000 HD
BRANCH 45 58
ATOM     58  O4  BGC B   5      22.394   2.522   6.5640  0.00  0.00     0.000 O
BRANCH 58 62
ATOM     59  C1  BGC B   5      26.329   1.947   7.7180  0.00  0.00     0.000 C
ATOM     60  C2  BGC B   5      25.588   0.697   7.2890  0.00  0.00     0.000 C
ATOM     61  C3  BGC B   5      24.338   1.059   6.5100  0.00  0.00     0.000 C
ATOM     62  C4  BGC B   5      23.484   2.009   7.3340  0.00  0.00     0.000 C
ATOM     63  C5  BGC B   5      24.313   3.213   7.8040  0.00  0.00     0.000 C
ATOM     64  O5  BGC B   5      25.448   2.739   8.5210  0.00  0.00     0.000 O
ATOM     65   O  BGC B   5      23.111   3.344   9.8120  0.00  0.00     0.000 O
ATOM     67  HD  BGC B   5      22.356   3.110  10.1650  0.00  0.00     0.000 HD
ATOM     67   O  BGC B   5      23.111   3.344   9.8120  0.00  0.00     0.000 O
ATOM     69  HD  BGC B   5      22.356   3.110  10.1650  0.00  0.00     0.000 HD
ENDBRANCH 58 62
ENDBRANCH 45 58
ENDBRANCH 44 48
ENDBRANCH 31 44
ENDBRANCH 30 34
ENDBRANCH 17 30
ENDBRANCH 16 20
ENDBRANCH 1 16
TORSDOF 8
ENDMDL
MODEL 5
REMARK VINA RESULT:      -4.5      4.082      4.979
ROOT
ATOM      1  C1  BGC B   1       5.408   3.197   4.1250  0.00  0.00     0.000 C
ATOM      2  C2  BGC B   1       4.873   3.714   2.7910  0.00  0.00     0.000 C
ATOM      3  C3  BGC B   1       3.409   4.084   2.9250  0.00  0.00     0.000 C
ATOM      4  C4  BGC B   1       2.614   2.930   3.5250  0.00  0.00     0.000 C
ATOM      5  C5  BGC B   1       3.255   2.540   4.8480  0.00  0.00     0.000 C
ATOM      6  O5  BGC B   1       4.600   2.114   4.5660  0.00  0.00     0.000 O
ATOM      7   O  BGC B   1       5.621   4.877   2.4000  0.00  0.00     0.000 O
ATOM      9  HD  BGC B   1       5.224   5.462   1.9000  0.00  0.00     0.000 HD
ATOM      9   O  BGC B   1       2.901   4.437   1.6350  0.00  0.00     0.000 O
ATOM     11  HD  BGC B   1       2.503   5.021   1.1350  0.00  0.00     0.000 HD
ATOM     11   O  BGC B   1       1.279   3.335   3.7370  0.00  0.00     0.000 O
ATOM     13  HD  BGC B   1       0.882   3.919   3.2370  0.00  0.00     0.000 HD
ATOM     13   C  BGC B   1       2.542   1.425   5.5990  0.00  0.00     0.000 C
ATOM     14   O  BGC B   1       2.387   0.251   4.8080  0.00  0.00     0.000 O
ATOM     16  HD  BGC B   1       1.990   0.835   4.3070  0.00  0.00     0.000 HD
ENDROOT
BRANCH 1 16
ATOM     16  O4  BGC B   2       6.683   2.621   3.8470  0.00  0.00     0.000 O
BRANCH 16 20
ATOM     17  C1  BGC B   2      10.402   2.183   5.4330  0.00  0.00     0.000 C
ATOM     18  C2  BGC B   2       9.344   1.321   6.1070  0.00  0.00     0.000 C
ATOM     19  C3  BGC B   2       8.105   1.289   5.2160  0.00  0.00     0.000 C
ATOM     20  C4  BGC B   2       7.648   2.697   4.8930  0.00  0.00     0.000 C
ATOM     21  C5  BGC B   2       8.793   3.581   4.3960  0.00  0.00     0.000 C
ATOM     22  O5  BGC B   2       9.864   3.516   5.3450  0.00  0.00     0.000 O
ATOM     23   O  BGC B   2       9.835  -0.019   6.2780  0.00  0.00     0.000 O
ATOM     25  HD  BGC B   2       9.288   0.349   5.7170  0.00  0.00     0.000 HD
ATOM     25   O  BGC B   2       7.062   0.569   5.8630  0.00  0.00     0.000 O
ATOM     27  HD  BGC B   2       6.514   0.937   5.3010  0.00  0.00     0.000 HD
ATOM     27   C  BGC B   2       8.392   5.044   4.2480  0.00  0.00     0.000 C
ATOM     28   O  BGC B   2       7.875   5.609   5.4420  0.00  0.00     0.000 O
ATOM     30  HD  BGC B   2       7.328   5.976   4.8800  0.00  0.00     0.000 HD
BRANCH 17 30
ATOM     30  O4  BGC B   3      11.487   2.281   6.3360  0.00  0.00     0.000 O
BRANCH 30 34
ATOM     31  C1  BGC B   3      15.592   2.549   6.3170  0.00  0.00     0.000 C
ATOM     32  C2  BGC B   3      14.873   3.783   5.7730  0.00  0.00     0.000 C
ATOM     33  C3  BGC B   3      13.416   3.729   6.1970  0.00  0.00     0.000 C
ATOM     34  C4  BGC B   3      12.781   2.415   5.7410  0.00  0.00     0.000 C
ATOM     35  C5  BGC B   3      13.625   1.236   6.1940  0.00  0.00     0.000 C
ATOM     36  O5  BGC B   3      14.971   1.411   5.7400  0.00  0.00     0.000 O
ATOM     37   O  BGC B   3      15.460   4.958   6.3270  0.00  0.00     0.000 O
ATOM     39  HD  BGC B   3      14.991   5.433   5.7750  0.00  0.00     0.000 HD
ATOM     39   O  BGC B   3      12.739   4.837   5.6230  0.00  0.00     0.000 O
ATOM     41  HD  BGC B   3      12.270   5.312   5.0710  0.00  0.00     0.000 HD
ATOM     41   C  BGC B   3      13.115  -0.115   5.7050  0.00  0.00     0.000 C
ATOM     42   O  BGC B   3      13.047  -0.127   4.2980  0.00  0.00     0.000 O
ATOM     44  HD  BGC B   3      12.578   0.347   3.7460  0.00  0.00     0.000 HD
BRANCH 31 44
ATOM     44  O4  BGC B   4      16.906   2.581   5.8210  0.00  0.00     0.000 O
BRANCH 44 48
ATOM     45  C1  BGC B   4      20.708   1.665   7.0480  0.00  0.00     0.000 C
ATOM     46  C2  BGC B   4      19.972   0.529   6.3520  0.00  0.00     0.000 C
ATOM     47  C3  BGC B   4      18.778   1.082   5.6130  0.00  0.00     0.000 C
ATOM     48  C4  BGC B   4      17.897   1.900   6.5630  0.00  0.00     0.000 C
ATOM     49  C5  BGC B   4      18.733   2.954   7.3000  0.00  0.00     0.000 C
ATOM     50  O5  BGC B   4      19.833   2.320   7.9680  0.00  0.00     0.000 O
ATOM     51   O  BGC B   4      20.846  -0.122   5.4110  0.00  0.00     0.000 O
ATOM     53  HD  BGC B   4      20.379   0.353   4.8580  0.00  0.00     0.000 HD
ATOM     53   O  BGC B   4      18.022  -0.011   5.0730  0.00  0.00     0.000 O
ATOM     55  HD  BGC B   4      17.555   0.464   4.5200  0.00  0.00     0.000 HD
ATOM     55   C  BGC B   4      17.968   3.739   8.3510  0.00  0.00     0.000 C
ATOM     56   O  BGC B   4      17.385   2.800   9.2560  0.00  0.00     0.000 O
ATOM     58  HD  BGC B   4      16.918   3.276   8.7030  0.00  0.00     0.000 HD
BRANCH 45 58
ATOM     58  O4  BGC B   5      21.652   1.043   7.9200  0.00  0.00     0.000 O
BRANCH 58 62
ATOM     59  C1  BGC B   5      25.275   1.702   9.8130  0.00  0.00     0.000 C
ATOM     60  C2  BGC B   5      24.110   2.517  10.3370  0.00  0.00     0.000 C
ATOM     61  C3  BGC B   5      22.793   1.917   9.8840  0.00  0.00     0.000 C
ATOM     62  C4  BGC B   5      22.793   1.776   8.3700  0.00  0.00     0.000 C
ATOM     63  C5  BGC B   5      24.039   1.011   7.8980  0.00  0.00     0.000 C
ATOM     64  O5  BGC B   5      25.199   1.676   8.3840  0.00  0.00     0.000 O
ATOM     65   O  BGC B   5      24.152   2.275   5.9270  0.00  0.00     0.000 O
ATOM     67  HD  BGC B   5      23.663   2.768   5.4100  0.00  0.00     0.000 HD
ATOM     67   O  BGC B   5      24.152   2.275   5.9270  0.00  0.00     0.000 O
ATOM     69  HD  BGC B   5      23.663   2.768   5.4100  0.00  0.00     0.000 HD
ENDBRANCH 58 62
ENDBRANCH 45 58
ENDBRANCH 44 48
ENDBRANCH 31 44
ENDBRANCH 30 34
ENDBRANCH 17 30
ENDBRANCH 16 20
ENDBRANCH 1 16
TORSDOF 8
ENDMDL
MODEL 6
REMARK VINA RESULT:      -4.3      3.073      3.972
ROOT
ATOM      1  C1  BGC B   1       3.193   3.228   2.8700  0.00  0.00     0.000 C
ATOM      2  C2  BGC B   1       2.571   2.421   1.7320  0.00  0.00     0.000 C
ATOM      3  C3  BGC B   1       1.203   1.910   2.1420  0.00  0.00     0.000 C
ATOM      4  C4  BGC B   1       1.281   1.174   3.4740  0.00  0.00     0.000 C
ATOM      5  C5  BGC B   1       1.903   2.105   4.5040  0.00  0.00     0.000 C
ATOM      6  O5  BGC B   1       3.229   2.429   4.0450  0.00  0.00     0.000 O
ATOM      7   O  BGC B   1       2.433   3.264   0.5750  0.00  0.00     0.000 O
ATOM      9  HD  BGC B   1       1.800   3.078   0.0150  0.00  0.00     0.000 HD
ATOM      9   O  BGC B   1       0.703   1.051   1.1130  0.00  0.00     0.000 O
ATOM     11  HD  BGC B   1       0.070   0.865   0.5530  0.00  0.00     0.000 HD
ATOM     11   O  BGC B   1      -0.017   0.801   3.8850  0.00  0.00     0.000 O
ATOM     13  HD  BGC B   1      -0.650   0.615   3.3240  0.00  0.00     0.000 HD
ATOM     13   C  BGC B   1       2.005   1.527   5.9080  0.00  0.00     0.000 C
ATOM     14   O  BGC B   1       2.707   0.288   5.9350  0.00  0.00     0.000 O
ATOM     16  HD  BGC B   1       2.074   0.102   5.3750  0.00  0.00     0.000 HD
ENDROOT
BRANCH 1 16
ATOM     16  O4  BGC B   2       4.560   3.428   2.5160  0.00  0.00     0.000 O
BRANCH 16 20
ATOM     17  C1  BGC B   2       7.560   6.152   2.8610  0.00  0.00     0.000 C
ATOM     18  C2  BGC B   2       6.797   5.915   4.1570  0.00  0.00     0.000 C
ATOM     19  C3  BGC B   2       5.967   4.642   4.0040  0.00  0.00     0.000 C
ATOM     20  C4  BGC B   2       5.091   4.726   2.7710  0.00  0.00     0.000 C
ATOM     21  C5  BGC B   2       5.872   5.154   1.5290  0.00  0.00     0.000 C
ATOM     22  O5  BGC B   2       6.579   6.364   1.8290  0.00  0.00     0.000 O
ATOM     23   O  BGC B   2       7.717   5.748   5.2480  0.00  0.00     0.000 O
ATOM     25  HD  BGC B   2       7.243   5.196   4.7780  0.00  0.00     0.000 HD
ATOM     25   O  BGC B   2       5.168   4.444   5.1640  0.00  0.00     0.000 O
ATOM     27  HD  BGC B   2       4.693   3.892   4.6940  0.00  0.00     0.000 HD
ATOM     27   C  BGC B   2       4.976   5.426   0.3270  0.00  0.00     0.000 C
ATOM     28   O  BGC B   2       3.973   6.397   0.5820  0.00  0.00     0.000 O
ATOM     30  HD  BGC B   2       3.499   5.845   0.1120  0.00  0.00     0.000 HD
BRANCH 17 30
ATOM     30  O4  BGC B   3       8.225   7.393   3.0000  0.00  0.00     0.000 O
BRANCH 30 34
ATOM     31  C1  BGC B   3      11.753   9.205   1.9060  0.00  0.00     0.000 C
ATOM     32  C2  BGC B   3      10.745   9.041   0.7690  0.00  0.00     0.000 C
ATOM     33  C3  BGC B   3       9.379   8.744   1.3630  0.00  0.00     0.000 C
ATOM     34  C4  BGC B   3       9.455   7.524   2.2790  0.00  0.00     0.000 C
ATOM     35  C5  BGC B   3      10.572   7.693   3.2940  0.00  0.00     0.000 C
ATOM     36  O5  BGC B   3      11.797   7.975   2.6110  0.00  0.00     0.000 O
ATOM     37   O  BGC B   3      10.661  10.257   0.0290  0.00  0.00     0.000 O
ATOM     39  HD  BGC B   3      10.183   9.844  -0.5640  0.00  0.00     0.000 HD
ATOM     39   O  BGC B   3       8.466   8.517   0.3000  0.00  0.00     0.000 O
ATOM     41  HD  BGC B   3       7.988   8.104  -0.2930  0.00  0.00     0.000 HD
ATOM     41   C  BGC B   3      10.780   6.480   4.1940  0.00  0.00     0.000 C
ATOM     42   O  BGC B   3      11.053   5.339   3.4150  0.00  0.00     0.000 O
ATOM     44  HD  BGC B   3      10.574   4.926   2.8230  0.00  0.00     0.000 HD
BRANCH 31 44
ATOM     44  O4  BGC B   4      13.017   9.376   1.3190  0.00  0.00     0.000 O
BRANCH 44 48
ATOM     45  C1  BGC B   4      16.617  11.211   2.0100  0.00  0.00     0.000 C
ATOM     46  C2  BGC B   4      16.371   9.958   2.8370  0.00  0.00     0.000 C
ATOM     47  C3  BGC B   4      15.235   9.170   2.2320  0.00  0.00     0.000 C
ATOM     48  C4  BGC B   4      13.997  10.059   2.0730  0.00  0.00     0.000 C
ATOM     49  C5  BGC B   4      14.352  11.346   1.3190  0.00  0.00     0.000 C
ATOM     50  O5  BGC B   4      15.436  12.014   1.9810  0.00  0.00     0.000 O
ATOM     51   O  BGC B   4      17.555   9.138   2.8540  0.00  0.00     0.000 O
ATOM     53  HD  BGC B   4      17.089   8.695   2.2740  0.00  0.00     0.000 HD
ATOM     53   O  BGC B   4      14.929   8.064   3.0930  0.00  0.00     0.000 O
ATOM     55  HD  BGC B   4      14.464   7.621   2.5130  0.00  0.00     0.000 HD
ATOM     55   C  BGC B   4      13.213  12.345   1.2130  0.00  0.00     0.000 C
ATOM     56   O  BGC B   4      12.750  12.619   2.5370  0.00  0.00     0.000 O
ATOM     58  HD  BGC B   4      12.285  12.176   1.9560  0.00  0.00     0.000 HD
BRANCH 45 58
ATOM     58  O4  BGC B   5      17.511  12.017   2.7770  0.00  0.00     0.000 O
BRANCH 58 62
ATOM     59  C1  BGC B   5      20.417  14.943   2.4020  0.00  0.00     0.000 C
ATOM     60  C2  BGC B   5      19.064  15.292   1.8170  0.00  0.00     0.000 C
ATOM     61  C3  BGC B   5      17.993  14.366   2.3610  0.00  0.00     0.000 C
ATOM     62  C4  BGC B   5      18.398  12.922   2.1140  0.00  0.00     0.000 C
ATOM     63  C5  BGC B   5      19.808  12.654   2.6590  0.00  0.00     0.000 C
ATOM     64  O5  BGC B   5      20.713  13.583   2.0700  0.00  0.00     0.000 O
ATOM     65   O  BGC B   5      20.261  11.133   0.9340  0.00  0.00     0.000 O
ATOM     67  HD  BGC B   5      19.862  10.626   0.3570  0.00  0.00     0.000 HD
ATOM     67   O  BGC B   5      20.261  11.133   0.9340  0.00  0.00     0.000 O
ATOM     69  HD  BGC B   5      19.862  10.626   0.3570  0.00  0.00     0.000 HD
ENDBRANCH 58 62
ENDBRANCH 45 58
ENDBRANCH 44 48
ENDBRANCH 31 44
ENDBRANCH 30 34
ENDBRANCH 17 30
ENDBRANCH 16 20
ENDBRANCH 1 16
TORSDOF 8
ENDMDL
MODEL 7
REMARK VINA RESULT:      -4.1      3.724      6.455
ROOT
ATOM      1  C1  BGC B   1      10.285   1.779   5.7830  0.00  0.00     0.000 C
ATOM      2  C2  BGC B   1       9.528   1.014   4.6980  0.00  0.00     0.000 C
ATOM      3  C3  BGC B   1       8.033   1.125   4.9300  0.00  0.00     0.000 C
ATOM      4  C4  BGC B   1       7.677   0.724   6.3560  0.00  0.00     0.000 C
ATOM      5  C5  BGC B   1       8.494   1.578   7.3140  0.00  0.00     0.000 C
ATOM      6  O5  BGC B   1       9.884   1.301   7.0600  0.00  0.00     0.000 O
ATOM      7   O  BGC B   1       9.851   1.572   3.4140  0.00  0.00     0.000 O
ATOM      9  HD  BGC B   1       9.259   1.503   2.7850  0.00  0.00     0.000 HD
ATOM      9   O  BGC B   1       7.356   0.294   3.9820  0.00  0.00     0.000 O
ATOM     11  HD  BGC B   1       6.764   0.225   3.3540  0.00  0.00     0.000 HD
ATOM     11   O  BGC B   1       6.300   0.936   6.5770  0.00  0.00     0.000 O
ATOM     13  HD  BGC B   1       5.708   0.867   5.9490  0.00  0.00     0.000 HD
ATOM     13   C  BGC B   1       8.214   1.329   8.7890  0.00  0.00     0.000 C
ATOM     14   O  BGC B   1       8.378  -0.040   9.1490  0.00  0.00     0.000 O
ATOM     16  HD  BGC B   1       7.787  -0.109   8.5200  0.00  0.00     0.000 HD
ENDROOT
BRANCH 1 16
ATOM     16  O4  BGC B   2      11.653   1.398   5.6570  0.00  0.00     0.000 O
BRANCH 16 20
ATOM     17  C1  BGC B   2      15.346   3.102   5.6440  0.00  0.00     0.000 C
ATOM     18  C2  BGC B   2      14.904   2.611   7.0150  0.00  0.00     0.000 C
ATOM     19  C3  BGC B   2      13.703   1.685   6.8340  0.00  0.00     0.000 C
ATOM     20  C4  BGC B   2      12.615   2.378   6.0400  0.00  0.00     0.000 C
ATOM     21  C5  BGC B   2      13.148   3.022   4.7590  0.00  0.00     0.000 C
ATOM     22  O5  BGC B   2      14.254   3.867   5.1000  0.00  0.00     0.000 O
ATOM     23   O  BGC B   2      15.970   1.881   7.6450  0.00  0.00     0.000 O
ATOM     25  HD  BGC B   2      15.242   1.643   7.2400  0.00  0.00     0.000 HD
ATOM     25   O  BGC B   2      13.206   1.283   8.1050  0.00  0.00     0.000 O
ATOM     27  HD  BGC B   2      12.478   1.046   7.7000  0.00  0.00     0.000 HD
ATOM     27   C  BGC B   2      12.109   3.880   4.0490  0.00  0.00     0.000 C
ATOM     28   O  BGC B   2      11.566   4.901   4.8700  0.00  0.00     0.000 O
ATOM     30  HD  BGC B   2      10.839   4.664   4.4660  0.00  0.00     0.000 HD
BRANCH 17 30
ATOM     30  O4  BGC B   3      16.383   4.041   5.8610  0.00  0.00     0.000 O
BRANCH 30 34
ATOM     31  C1  BGC B   3      19.631   5.633   3.9030  0.00  0.00     0.000 C
ATOM     32  C2  BGC B   3      18.280   6.169   3.4300  0.00  0.00     0.000 C
ATOM     33  C3  BGC B   3      17.225   5.825   4.4660  0.00  0.00     0.000 C
ATOM     34  C4  BGC B   3      17.216   4.320   4.7310  0.00  0.00     0.000 C
ATOM     35  C5  BGC B   3      18.616   3.831   5.0550  0.00  0.00     0.000 C
ATOM     36  O5  BGC B   3      19.512   4.224   4.0100  0.00  0.00     0.000 O
ATOM     37   O  BGC B   3      18.347   7.588   3.3080  0.00  0.00     0.000 O
ATOM     39  HD  BGC B   3      17.572   7.575   2.9230  0.00  0.00     0.000 HD
ATOM     39   O  BGC B   3      15.962   6.257   3.9830  0.00  0.00     0.000 O
ATOM     41  HD  BGC B   3      15.187   6.244   3.5990  0.00  0.00     0.000 HD
ATOM     41   C  BGC B   3      18.717   2.321   5.2450  0.00  0.00     0.000 C
ATOM     42   O  BGC B   3      18.268   1.656   4.0880  0.00  0.00     0.000 O
ATOM     44  HD  BGC B   3      17.492   1.643   3.7030  0.00  0.00     0.000 HD
BRANCH 31 44
ATOM     44  O4  BGC B   4      20.558   5.879   2.8760  0.00  0.00     0.000 O
BRANCH 44 48
ATOM     45  C1  BGC B   4      24.515   6.793   2.3200  0.00  0.00     0.000 C
ATOM     46  C2  BGC B   4      24.246   5.355   2.7380  0.00  0.00     0.000 C
ATOM     47  C3  BGC B   4      22.786   5.035   2.5290  0.00  0.00     0.000 C
ATOM     48  C4  BGC B   4      21.908   6.063   3.2500  0.00  0.00     0.000 C
ATOM     49  C5  BGC B   4      22.310   7.489   2.8530  0.00  0.00     0.000 C
ATOM     50  O5  BGC B   4      23.711   7.683   3.0970  0.00  0.00     0.000 O
ATOM     51   O  BGC B   4      25.042   4.454   1.9450  0.00  0.00     0.000 O
ATOM     53  HD  BGC B   4      24.280   4.349   1.5470  0.00  0.00     0.000 HD
ATOM     53   O  BGC B   4      22.521   3.724   3.0470  0.00  0.00     0.000 O
ATOM     55  HD  BGC B   4      21.759   3.620   2.6490  0.00  0.00     0.000 HD
ATOM     55   C  BGC B   4      21.573   8.582   3.6060  0.00  0.00     0.000 C
ATOM     56   O  BGC B   4      21.760   8.351   5.0030  0.00  0.00     0.000 O
ATOM     58  HD  BGC B   4      20.998   8.246   4.6050  0.00  0.00     0.000 HD
BRANCH 45 58
ATOM     58  O4  BGC B   5      25.831   7.095   2.7830  0.00  0.00     0.000 O
BRANCH 58 62
ATOM     59  C1  BGC B   5      28.752   9.988   2.2890  0.00  0.00     0.000 C
ATOM     60  C2  BGC B   5      27.840  10.183   3.4840  0.00  0.00     0.000 C
ATOM     61  C3  BGC B   5      27.107   8.895   3.8090  0.00  0.00     0.000 C
ATOM     62  C4  BGC B   5      26.377   8.399   2.5710  0.00  0.00     0.000 C
ATOM     63  C5  BGC B   5      27.340   8.300   1.3790  0.00  0.00     0.000 C
ATOM     64  O5  BGC B   5      27.955   9.568   1.1780  0.00  0.00     0.000 O
ATOM     65   O  BGC B   5      25.644   8.895  -0.1270  0.00  0.00     0.000 O
ATOM     67  HD  BGC B   5      24.781   8.914  -0.2020  0.00  0.00     0.000 HD
ATOM     67   O  BGC B   5      25.644   8.895  -0.1270  0.00  0.00     0.000 O
ATOM     69  HD  BGC B   5      24.781   8.914  -0.2020  0.00  0.00     0.000 HD
ENDBRANCH 58 62
ENDBRANCH 45 58
ENDBRANCH 44 48
ENDBRANCH 31 44
ENDBRANCH 30 34
ENDBRANCH 17 30
ENDBRANCH 16 20
ENDBRANCH 1 16
TORSDOF 8
ENDMDL
MODEL 8
REMARK VINA RESULT:      -4.1      2.115     15.100
ROOT
ATOM      1  C1  BGC B   1      21.821   9.014   3.1950  0.00  0.00     0.000 C
ATOM      2  C2  BGC B   1      22.765   8.629   2.0570  0.00  0.00     0.000 C
ATOM      3  C3  BGC B   1      24.164   9.139   2.3460  0.00  0.00     0.000 C
ATOM      4  C4  BGC B   1      24.139  10.626   2.6760  0.00  0.00     0.000 C
ATOM      5  C5  BGC B   1      23.172  10.848   3.8300  0.00  0.00     0.000 C
ATOM      6  O5  BGC B   1      21.870  10.421   3.3890  0.00  0.00     0.000 O
ATOM      7   O  BGC B   1      22.800   7.198   1.9350  0.00  0.00     0.000 O
ATOM      9  HD  BGC B   1      23.519   6.838   1.6140  0.00  0.00     0.000 HD
ATOM      9   O  BGC B   1      24.994   8.883   1.2090  0.00  0.00     0.000 O
ATOM     11  HD  BGC B   1      25.714   8.524   0.8890  0.00  0.00     0.000 HD
ATOM     11   O  BGC B   1      25.433  11.053   3.0430  0.00  0.00     0.000 O
ATOM     13  HD  BGC B   1      26.152  10.693   2.7230  0.00  0.00     0.000 HD
ATOM     13   C  BGC B   1      23.072  12.288   4.3120  0.00  0.00     0.000 C
ATOM     14   O  BGC B   1      22.736  13.189   3.2610  0.00  0.00     0.000 O
ATOM     16  HD  BGC B   1      23.455  12.829   2.9400  0.00  0.00     0.000 HD
ENDROOT
BRANCH 1 16
ATOM     16  O4  BGC B   2      20.501   8.750   2.7240  0.00  0.00     0.000 O
BRANCH 16 20
ATOM     17  C1  BGC B   2      16.835   7.538   3.9980  0.00  0.00     0.000 C
ATOM     18  C2  BGC B   2      17.216   8.933   4.4710  0.00  0.00     0.000 C
ATOM     19  C3  BGC B   2      18.411   9.413   3.6500  0.00  0.00     0.000 C
ATOM     20  C4  BGC B   2      19.538   8.403   3.7160  0.00  0.00     0.000 C
ATOM     21  C5  BGC B   2      19.064   6.980   3.4170  0.00  0.00     0.000 C
ATOM     22  O5  BGC B   2      17.957   6.679   4.2750  0.00  0.00     0.000 O
ATOM     23   O  BGC B   2      16.117   9.838   4.2750  0.00  0.00     0.000 O
ATOM     25  HD  BGC B   2      16.857   9.697   3.8480  0.00  0.00     0.000 HD
ATOM     25   O  BGC B   2      18.853  10.677   4.1320  0.00  0.00     0.000 O
ATOM     27  HD  BGC B   2      19.593  10.536   3.7050  0.00  0.00     0.000 HD
ATOM     27   C  BGC B   2      20.141   5.931   3.6630  0.00  0.00     0.000 C
ATOM     28   O  BGC B   2      20.665   5.961   4.9810  0.00  0.00     0.000 O
ATOM     30  HD  BGC B   2      21.405   5.820   4.5530  0.00  0.00     0.000 HD
BRANCH 17 30
ATOM     30  O4  BGC B   3      15.802   7.084   4.8530  0.00  0.00     0.000 O
BRANCH 30 34
ATOM     31  C1  BGC B   3      12.399   4.776   4.7310  0.00  0.00     0.000 C
ATOM     32  C2  BGC B   3      13.704   3.990   4.6090  0.00  0.00     0.000 C
ATOM     33  C3  BGC B   3      14.853   4.872   5.0620  0.00  0.00     0.000 C
ATOM     34  C4  BGC B   3      14.863   6.178   4.2670  0.00  0.00     0.000 C
ATOM     35  C5  BGC B   3      13.494   6.834   4.3140  0.00  0.00     0.000 C
ATOM     36  O5  BGC B   3      12.503   5.901   3.8720  0.00  0.00     0.000 O
ATOM     37   O  BGC B   3      13.651   2.846   5.4580  0.00  0.00     0.000 O
ATOM     39  HD  BGC B   3      14.382   2.561   5.0920  0.00  0.00     0.000 HD
ATOM     39   O  BGC B   3      16.068   4.161   4.8720  0.00  0.00     0.000 O
ATOM     41  HD  BGC B   3      16.799   3.877   4.5070  0.00  0.00     0.000 HD
ATOM     41   C  BGC B   3      13.385   8.099   3.4700  0.00  0.00     0.000 C
ATOM     42   O  BGC B   3      13.701   7.816   2.1270  0.00  0.00     0.000 O
ATOM     44  HD  BGC B   3      14.432   7.531   1.7620  0.00  0.00     0.000 HD
BRANCH 31 44
ATOM     44  O4  BGC B   4      11.376   3.968   4.2080  0.00  0.00     0.000 O
BRANCH 44 48
ATOM     45  C1  BGC B   4       7.374   3.210   4.6690  0.00  0.00     0.000 C
ATOM     46  C2  BGC B   4       7.699   4.539   4.0020  0.00  0.00     0.000 C
ATOM     47  C3  BGC B   4       9.134   4.530   3.5370  0.00  0.00     0.000 C
ATOM     48  C4  BGC B   4      10.068   4.178   4.6990  0.00  0.00     0.000 C
ATOM     49  C5  BGC B   4       9.613   2.882   5.3810  0.00  0.00     0.000 C
ATOM     50  O5  BGC B   4       8.241   3.002   5.7850  0.00  0.00     0.000 O
ATOM     51   O  BGC B   4       6.837   4.743   2.8660  0.00  0.00     0.000 O
ATOM     53  HD  BGC B   4       7.558   4.501   2.4500  0.00  0.00     0.000 HD
ATOM     53   O  BGC B   4       9.463   5.832   3.0290  0.00  0.00     0.000 O
ATOM     55  HD  BGC B   4      10.183   5.589   2.6140  0.00  0.00     0.000 HD
ATOM     55   C  BGC B   4      10.409   2.512   6.6200  0.00  0.00     0.000 C
ATOM     56   O  BGC B   4      10.364   3.624   7.5150  0.00  0.00     0.000 O
ATOM     58  HD  BGC B   4      11.084   3.382   7.1000  0.00  0.00     0.000 HD
BRANCH 45 58
ATOM     58  O4  BGC B   5       6.107   3.389   5.3010  0.00  0.00     0.000 O
BRANCH 58 62
ATOM     59  C1  BGC B   5       2.686   1.326   6.3940  0.00  0.00     0.000 C
ATOM     60  C2  BGC B   5       3.928   0.996   7.1960  0.00  0.00     0.000 C
ATOM     61  C3  BGC B   5       4.983   2.070   7.0110  0.00  0.00     0.000 C
ATOM     62  C4  BGC B   5       5.260   2.259   5.5280  0.00  0.00     0.000 C
ATOM     63  C5  BGC B   5       3.954   2.511   4.7610  0.00  0.00     0.000 C
ATOM     64  O5  BGC B   5       3.056   1.435   5.0160  0.00  0.00     0.000 O
ATOM     65   O  BGC B   5       4.762   1.376   2.8750  0.00  0.00     0.000 O
ATOM     67  HD  BGC B   5       5.502   1.128   2.5010  0.00  0.00     0.000 HD
ATOM     67   O  BGC B   5       4.762   1.376   2.8750  0.00  0.00     0.000 O
ATOM     69  HD  BGC B   5       5.502   1.128   2.5010  0.00  0.00     0.000 HD
ENDBRANCH 58 62
ENDBRANCH 45 58
ENDBRANCH 44 48
ENDBRANCH 31 44
ENDBRANCH 30 34
ENDBRANCH 17 30
ENDBRANCH 16 20
ENDBRANCH 1 16
TORSDOF 8
ENDMDL
MODEL 9
REMARK VINA RESULT:      -4.1      2.219      4.235
ROOT
ATOM      1  C1  BGC B   1       4.937   2.498   5.9750  0.00  0.00     0.000 C
ATOM      2  C2  BGC B   1       4.138   2.751   7.2520  0.00  0.00     0.000 C
ATOM      3  C3  BGC B   1       2.767   2.112   7.1450  0.00  0.00     0.000 C
ATOM      4  C4  BGC B   1       2.069   2.546   5.8620  0.00  0.00     0.000 C
ATOM      5  C5  BGC B   1       2.976   2.216   4.6850  0.00  0.00     0.000 C
ATOM      6  O5  BGC B   1       4.194   2.963   4.8570  0.00  0.00     0.000 O
ATOM      7   O  BGC B   1       4.839   2.181   8.3700  0.00  0.00     0.000 O
ATOM      9  HD  BGC B   1       4.370   1.928   9.0530  0.00  0.00     0.000 HD
ATOM      9   O  BGC B   1       1.995   2.476   8.2930  0.00  0.00     0.000 O
ATOM     11  HD  BGC B   1       1.526   2.223   8.9750  0.00  0.00     0.000 HD
ATOM     11   O  BGC B   1       0.844   1.858   5.7320  0.00  0.00     0.000 O
ATOM     13  HD  BGC B   1       0.375   1.605   6.4150  0.00  0.00     0.000 HD
ATOM     13   C  BGC B   1       2.394   2.548   3.3180  0.00  0.00     0.000 C
ATOM     14   O  BGC B   1       1.996   3.912   3.2150  0.00  0.00     0.000 O
ATOM     16  HD  BGC B   1       1.527   3.658   3.8970  0.00  0.00     0.000 HD
ENDROOT
BRANCH 1 16
ATOM     16  O4  BGC B   2       6.079   3.350   6.0440  0.00  0.00     0.000 O
BRANCH 16 20
ATOM     17  C1  BGC B   2       9.959   3.602   4.8530  0.00  0.00     0.000 C
ATOM     18  C2  BGC B   2       8.960   3.720   3.7120  0.00  0.00     0.000 C
ATOM     19  C3  BGC B   2       7.576   3.978   4.3030  0.00  0.00     0.000 C
ATOM     20  C4  BGC B   2       7.231   2.916   5.3260  0.00  0.00     0.000 C
ATOM     21  C5  BGC B   2       8.351   2.701   6.3440  0.00  0.00     0.000 C
ATOM     22  O5  BGC B   2       9.572   2.456   5.6340  0.00  0.00     0.000 O
ATOM     23   O  BGC B   2       9.317   4.816   2.8540  0.00  0.00     0.000 O
ATOM     25  HD  BGC B   2       8.717   4.711   3.4700  0.00  0.00     0.000 HD
ATOM     25   O  BGC B   2       6.602   3.998   3.2650  0.00  0.00     0.000 O
ATOM     27  HD  BGC B   2       6.003   3.893   3.8810  0.00  0.00     0.000 HD
ATOM     27   C  BGC B   2       8.100   1.510   7.2610  0.00  0.00     0.000 C
ATOM     28   O  BGC B   2       7.893   0.295   6.5600  0.00  0.00     0.000 O
ATOM     30  HD  BGC B   2       7.293   0.189   7.1760  0.00  0.00     0.000 HD
BRANCH 17 30
ATOM     30  O4  BGC B   3      11.202   3.252   4.2750  0.00  0.00     0.000 O
BRANCH 30 34
ATOM     31  C1  BGC B   3      15.219   4.017   4.7250  0.00  0.00     0.000 C
ATOM     32  C2  BGC B   3      14.540   3.440   5.9670  0.00  0.00     0.000 C
ATOM     33  C3  BGC B   3      13.205   2.841   5.5630  0.00  0.00     0.000 C
ATOM     34  C4  BGC B   3      12.353   3.886   4.8430  0.00  0.00     0.000 C
ATOM     35  C5  BGC B   3      13.140   4.520   3.7100  0.00  0.00     0.000 C
ATOM     36  O5  BGC B   3      14.374   5.037   4.2180  0.00  0.00     0.000 O
ATOM     37   O  BGC B   3      15.352   2.405   6.5150  0.00  0.00     0.000 O
ATOM     39  HD  BGC B   3      14.833   2.387   7.2080  0.00  0.00     0.000 HD
ATOM     39   O  BGC B   3      12.547   2.378   6.7330  0.00  0.00     0.000 O
ATOM     41  HD  BGC B   3      12.028   2.361   7.4260  0.00  0.00     0.000 HD
ATOM     41   C  BGC B   3      12.397   5.642   2.9920  0.00  0.00     0.000 C
ATOM     42   O  BGC B   3      12.039   6.650   3.9070  0.00  0.00     0.000 O
ATOM     44  HD  BGC B   3      11.520   6.633   4.6000  0.00  0.00     0.000 HD
BRANCH 31 44
ATOM     44  O4  BGC B   4      16.398   4.650   5.1520  0.00  0.00     0.000 O
BRANCH 44 48
ATOM     45  C1  BGC B   4      20.247   5.345   3.9240  0.00  0.00     0.000 C
ATOM     46  C2  BGC B   4      19.196   6.213   3.2480  0.00  0.00     0.000 C
ATOM     47  C3  BGC B   4      17.911   6.155   4.0380  0.00  0.00     0.000 C
ATOM     48  C4  BGC B   4      17.476   4.700   4.2400  0.00  0.00     0.000 C
ATOM     49  C5  BGC B   4      18.623   3.871   4.8300  0.00  0.00     0.000 C
ATOM     50  O5  BGC B   4      19.787   3.994   3.9990  0.00  0.00     0.000 O
ATOM     51   O  BGC B   4      19.649   7.578   3.1860  0.00  0.00     0.000 O
ATOM     53  HD  BGC B   4      19.097   7.647   3.8510  0.00  0.00     0.000 HD
ATOM     53   O  BGC B   4      16.895   6.869   3.3210  0.00  0.00     0.000 O
ATOM     55  HD  BGC B   4      16.344   6.938   3.9850  0.00  0.00     0.000 HD
ATOM     55   C  BGC B   4      18.324   2.388   4.9580  0.00  0.00     0.000 C
ATOM     56   O  BGC B   4      17.935   1.909   3.6690  0.00  0.00     0.000 O
ATOM     58  HD  BGC B   4      17.384   1.977   4.3330  0.00  0.00     0.000 HD
BRANCH 45 58
ATOM     58  O4  BGC B   5      21.327   5.244   2.9970  0.00  0.00     0.000 O
BRANCH 58 62
ATOM     59  C1  BGC B   5      25.424   4.663   2.8310  0.00  0.00     0.000 C
ATOM     60  C2  BGC B   5      24.602   3.422   3.1140  0.00  0.00     0.000 C
ATOM     61  C3  BGC B   5      23.149   3.650   2.7460  0.00  0.00     0.000 C
ATOM     62  C4  BGC B   5      22.631   4.887   3.4620  0.00  0.00     0.000 C
ATOM     63  C5  BGC B   5      23.551   6.089   3.1990  0.00  0.00     0.000 C
ATOM     64  O5  BGC B   5      24.877   5.747   3.5890  0.00  0.00     0.000 O
ATOM     65   O  BGC B   5      23.153   6.949   5.3430  0.00  0.00     0.000 O
ATOM     67  HD  BGC B   5      22.581   6.911   5.9920  0.00  0.00     0.000 HD
ATOM     67   O  BGC B   5      23.153   6.949   5.3430  0.00  0.00     0.000 O
ATOM     69  HD  BGC B   5      22.581   6.911   5.9920  0.00  0.00     0.000 HD
ENDBRANCH 58 62
ENDBRANCH 45 58
ENDBRANCH 44 48
ENDBRANCH 31 44
ENDBRANCH 30 34
ENDBRANCH 17 30
ENDBRANCH 16 20
ENDBRANCH 1 16
TORSDOF 8
ENDMDL
MODEL 10
REMARK VINA RESULT:      -3.7      4.509     15.025
ROOT
ATOM      1  C1  BGC B   1      20.546   2.545   8.9220  0.00  0.00     0.000 C
ATOM      2  C2  BGC B   1      21.745   2.871   8.0320  0.00  0.00     0.000 C
ATOM      3  C3  BGC B   1      23.015   2.313   8.6450  0.00  0.00     0.000 C
ATOM      4  C4  BGC B   1      23.158   2.762  10.0940  0.00  0.00     0.000 C
ATOM      5  C5  BGC B   1      21.902   2.355  10.8500  0.00  0.00     0.000 C
ATOM      6  O5  BGC B   1      20.790   3.031  10.2340  0.00  0.00     0.000 O
ATOM      7   O  BGC B   1      21.546   2.283   6.7360  0.00  0.00     0.000 O
ATOM      9  HD  BGC B   1      22.250   2.072   6.2780  0.00  0.00     0.000 HD
ATOM      9   O  BGC B   1      24.133   2.746   7.8640  0.00  0.00     0.000 O
ATOM     11  HD  BGC B   1      24.837   2.535   7.4060  0.00  0.00     0.000 HD
ATOM     11   O  BGC B   1      24.288   2.146  10.6710  0.00  0.00     0.000 O
ATOM     13  HD  BGC B   1      24.992   1.935  10.2130  0.00  0.00     0.000 HD
ATOM     13   C  BGC B   1      21.912   2.693  12.3340  0.00  0.00     0.000 C
ATOM     14   O  BGC B   1      22.157   4.076  12.5730  0.00  0.00     0.000 O
ATOM     16  HD  BGC B   1      22.860   3.865  12.1150  0.00  0.00     0.000 HD
ENDROOT
BRANCH 1 16
ATOM     16  O4  BGC B   2      19.461   3.329   8.4300  0.00  0.00     0.000 O
BRANCH 16 20
ATOM     17  C1  BGC B   2      15.433   3.199   7.8860  0.00  0.00     0.000 C
ATOM     18  C2  BGC B   2      15.847   3.435   9.3310  0.00  0.00     0.000 C
ATOM     19  C3  BGC B   2      17.323   3.825   9.3540  0.00  0.00     0.000 C
ATOM     20  C4  BGC B   2      18.156   2.789   8.6280  0.00  0.00     0.000 C
ATOM     21  C5  BGC B   2      17.589   2.446   7.2500  0.00  0.00     0.000 C
ATOM     22  O5  BGC B   2      16.210   2.087   7.4020  0.00  0.00     0.000 O
ATOM     23   O  BGC B   2      15.069   4.501   9.8990  0.00  0.00     0.000 O
ATOM     25  HD  BGC B   2      15.879   4.450   9.5950  0.00  0.00     0.000 HD
ATOM     25   O  BGC B   2      17.767   3.960  10.6990  0.00  0.00     0.000 O
ATOM     27  HD  BGC B   2      18.576   3.908  10.3950  0.00  0.00     0.000 HD
ATOM     27   C  BGC B   2      18.303   1.274   6.5890  0.00  0.00     0.000 C
ATOM     28   O  BGC B   2      18.303   0.096   7.3790  0.00  0.00     0.000 O
ATOM     30  HD  BGC B   2      19.112   0.044   7.0750  0.00  0.00     0.000 HD
BRANCH 17 30
ATOM     30  O4  BGC B   3      14.097   2.732   7.9140  0.00  0.00     0.000 O
BRANCH 30 34
ATOM     31  C1  BGC B   3      10.743   2.609   5.5340  0.00  0.00     0.000 C
ATOM     32  C2  BGC B   3      11.961   1.892   4.9520  0.00  0.00     0.000 C
ATOM     33  C3  BGC B   3      12.973   1.664   6.0610  0.00  0.00     0.000 C
ATOM     34  C4  BGC B   3      13.323   2.988   6.7380  0.00  0.00     0.000 C
ATOM     35  C5  BGC B   3      12.059   3.715   7.1630  0.00  0.00     0.000 C
ATOM     36  O5  BGC B   3      11.190   3.859   6.0350  0.00  0.00     0.000 O
ATOM     37   O  BGC B   3      11.564   0.623   4.4350  0.00  0.00     0.000 O
ATOM     39  HD  BGC B   3      12.351   0.540   4.0830  0.00  0.00     0.000 HD
ATOM     39   O  BGC B   3      14.132   1.068   5.4970  0.00  0.00     0.000 O
ATOM     41  HD  BGC B   3      14.918   0.984   5.1440  0.00  0.00     0.000 HD
ATOM     41   C  BGC B   3      12.310   5.092   7.7670  0.00  0.00     0.000 C
ATOM     42   O  BGC B   3      13.006   5.904   6.8510  0.00  0.00     0.000 O
ATOM     44  HD  BGC B   3      13.792   5.821   6.4990  0.00  0.00     0.000 HD
BRANCH 31 44
ATOM     44  O4  BGC B   4       9.878   2.893   4.4650  0.00  0.00     0.000 O
BRANCH 44 48
ATOM     45  C1  BGC B   4       5.866   2.843   3.6230  0.00  0.00     0.000 C
ATOM     46  C2  BGC B   4       6.387   4.165   4.1700  0.00  0.00     0.000 C
ATOM     47  C3  BGC B   4       7.892   4.194   4.0670  0.00  0.00     0.000 C
ATOM     48  C4  BGC B   4       8.495   2.962   4.7490  0.00  0.00     0.000 C
ATOM     49  C5  BGC B   4       7.846   1.679   4.2160  0.00  0.00     0.000 C
ATOM     50  O5  BGC B   4       6.421   1.758   4.3670  0.00  0.00     0.000 O
ATOM     51   O  BGC B   4       5.843   5.262   3.4110  0.00  0.00     0.000 O
ATOM     53  HD  BGC B   4       6.637   5.236   3.0650  0.00  0.00     0.000 HD
ATOM     53   O  BGC B   4       8.376   5.385   4.7040  0.00  0.00     0.000 O
ATOM     55  HD  BGC B   4       9.170   5.359   4.3580  0.00  0.00     0.000 HD
ATOM     55   C  BGC B   4       8.297   0.409   4.9160  0.00  0.00     0.000 C
ATOM     56   O  BGC B   4       8.063   0.577   6.3160  0.00  0.00     0.000 O
ATOM     58  HD  BGC B   4       8.857   0.551   5.9700  0.00  0.00     0.000 HD
BRANCH 45 58
ATOM     58  O4  BGC B   5       4.488   2.786   3.9880  0.00  0.00     0.000 O
BRANCH 58 62
ATOM     59  C1  BGC B   5       0.771   2.067   2.3080  0.00  0.00     0.000 C
ATOM     60  C2  BGC B   5       1.500   0.842   2.8230  0.00  0.00     0.000 C
ATOM     61  C3  BGC B   5       2.618   1.244   3.7670  0.00  0.00     0.000 C
ATOM     62  C4  BGC B   5       3.534   2.240   3.0730  0.00  0.00     0.000 C
ATOM     63  C5  BGC B   5       2.725   3.415   2.5060  0.00  0.00     0.000 C
ATOM     64  O5  BGC B   5       1.718   2.905   1.6380  0.00  0.00     0.000 O
ATOM     65   O  BGC B   5       4.180   3.623   0.6790  0.00  0.00     0.000 O
ATOM     67  HD  BGC B   5       4.985   3.425   0.4290  0.00  0.00     0.000 HD
ATOM     67   O  BGC B   5       4.180   3.623   0.6790  0.00  0.00     0.000 O
ATOM     69  HD  BGC B   5       4.985   3.425   0.4290  0.00  0.00     0.000 HD
ENDBRANCH 58 62
ENDBRANCH 45 58
ENDBRANCH 44 48
ENDBRANCH 31 44
ENDBRANCH 30 34
ENDBRANCH 17 30
ENDBRANCH 16 20
ENDBRANCH 1 16
TORSDOF 8
ENDMDL
MODEL 11
REMARK VINA RESULT:      -3.6      4.116      8.632
ROOT
ATOM      1  C1  BGC B   1      12.278   2.413   6.2570  0.00  0.00     0.000 C
ATOM      2  C2  BGC B   1      11.655   2.451   7.6510  0.00  0.00     0.000 C
ATOM      3  C3  BGC B   1      10.644   1.330   7.8010  0.00  0.00     0.000 C
ATOM      4  C4  BGC B   1       9.640   1.354   6.6560  0.00  0.00     0.000 C
ATOM      5  C5  BGC B   1      10.405   1.295   5.3420  0.00  0.00     0.000 C
ATOM      6  O5  BGC B   1      11.246   2.463   5.2810  0.00  0.00     0.000 O
ATOM      7   O  BGC B   1      12.690   2.289   8.6360  0.00  0.00     0.000 O
ATOM      9  HD  BGC B   1      12.471   1.936   9.3950  0.00  0.00     0.000 HD
ATOM      9   O  BGC B   1       9.983   1.469   9.0620  0.00  0.00     0.000 O
ATOM     11  HD  BGC B   1       9.764   1.116   9.8220  0.00  0.00     0.000 HD
ATOM     11   O  BGC B   1       8.777   0.242   6.7590  0.00  0.00     0.000 O
ATOM     13  HD  BGC B   1       8.558  -0.111   7.5190  0.00  0.00     0.000 HD
ATOM     13   C  BGC B   1       9.533   1.262   4.0950  0.00  0.00     0.000 C
ATOM     14   O  BGC B   1       8.623   2.356   4.0410  0.00  0.00     0.000 O
ATOM     16  HD  BGC B   1       8.404   2.003   4.8000  0.00  0.00     0.000 HD
ENDROOT
BRANCH 1 16
ATOM     16  O4  BGC B   2      12.991   3.639   6.1060  0.00  0.00     0.000 O
BRANCH 16 20
ATOM     17  C1  BGC B   2      16.297   5.124   4.2610  0.00  0.00     0.000 C
ATOM     18  C2  BGC B   2      15.044   5.170   3.4000  0.00  0.00     0.000 C
ATOM     19  C3  BGC B   2      13.830   4.941   4.2970  0.00  0.00     0.000 C
ATOM     20  C4  BGC B   2      13.993   3.662   5.0930  0.00  0.00     0.000 C
ATOM     21  C5  BGC B   2      15.351   3.578   5.7900  0.00  0.00     0.000 C
ATOM     22  O5  BGC B   2      16.379   3.797   4.8150  0.00  0.00     0.000 O
ATOM     23   O  BGC B   2      14.926   6.455   2.7680  0.00  0.00     0.000 O
ATOM     25  HD  BGC B   2      14.537   6.087   3.4490  0.00  0.00     0.000 HD
ATOM     25   O  BGC B   2      12.648   4.882   3.5070  0.00  0.00     0.000 O
ATOM     27  HD  BGC B   2      12.259   4.514   4.1880  0.00  0.00     0.000 HD
ATOM     27   C  BGC B   2      15.606   2.221   6.4350  0.00  0.00     0.000 C
ATOM     28   O  BGC B   2      15.501   1.138   5.5260  0.00  0.00     0.000 O
ATOM     30  HD  BGC B   2      15.113   0.770   6.2060  0.00  0.00     0.000 HD
BRANCH 17 30
ATOM     30  O4  BGC B   3      17.402   5.226   3.3830  0.00  0.00     0.000 O
BRANCH 30 34
ATOM     31  C1  BGC B   3      21.350   6.382   3.4090  0.00  0.00     0.000 C
ATOM     32  C2  BGC B   3      21.065   5.079   4.1550  0.00  0.00     0.000 C
ATOM     33  C3  BGC B   3      19.698   4.565   3.7420  0.00  0.00     0.000 C
ATOM     34  C4  BGC B   3      18.636   5.638   3.9800  0.00  0.00     0.000 C
ATOM     35  C5  BGC B   3      19.051   6.946   3.3310  0.00  0.00     0.000 C
ATOM     36  O5  BGC B   3      20.354   7.315   3.7950  0.00  0.00     0.000 O
ATOM     37   O  BGC B   3      22.041   4.103   3.7980  0.00  0.00     0.000 O
ATOM     39  HD  BGC B   3      21.734   3.590   4.4250  0.00  0.00     0.000 HD
ATOM     39   O  BGC B   3      19.409   3.398   4.4970  0.00  0.00     0.000 O
ATOM     41  HD  BGC B   3      19.102   2.885   5.1240  0.00  0.00     0.000 HD
ATOM     41   C  BGC B   3      18.092   8.101   3.5950  0.00  0.00     0.000 C
ATOM     42   O  BGC B   3      17.957   8.312   4.9810  0.00  0.00     0.000 O
ATOM     44  HD  BGC B   3      17.650   7.800   5.6080  0.00  0.00     0.000 HD
BRANCH 31 44
ATOM     44  O4  BGC B   4      22.572   6.878   3.8910  0.00  0.00     0.000 O
BRANCH 44 48
ATOM     45  C1  BGC B   4      25.865   8.963   2.6200  0.00  0.00     0.000 C
ATOM     46  C2  BGC B   4      24.634   9.817   2.8890  0.00  0.00     0.000 C
ATOM     47  C3  BGC B   4      23.642   9.026   3.7060  0.00  0.00     0.000 C
ATOM     48  C4  BGC B   4      23.331   7.692   3.0210  0.00  0.00     0.000 C
ATOM     49  C5  BGC B   4      24.627   6.940   2.6920  0.00  0.00     0.000 C
ATOM     50  O5  BGC B   4      25.490   7.780   1.9110  0.00  0.00     0.000 O
ATOM     51   O  BGC B   4      25.006  11.002   3.6180  0.00  0.00     0.000 O
ATOM     53  HD  BGC B   4      24.673  10.539   4.2700  0.00  0.00     0.000 HD
ATOM     53   O  BGC B   4      22.438   9.794   3.8400  0.00  0.00     0.000 O
ATOM     55  HD  BGC B   4      22.105   9.331   4.4920  0.00  0.00     0.000 HD
ATOM     55   C  BGC B   4      24.425   5.658   1.9050  0.00  0.00     0.000 C
ATOM     56   O  BGC B   4      23.689   5.982   0.7250  0.00  0.00     0.000 O
ATOM     58  HD  BGC B   4      23.356   5.519   1.3760  0.00  0.00     0.000 HD
BRANCH 45 58
ATOM     58  O4  BGC B   5      26.627   9.671   1.6420  0.00  0.00     0.000 O
BRANCH 58 62
ATOM     59  C1  BGC B   5      30.502  10.787   0.7020  0.00  0.00     0.000 C
ATOM     60  C2  BGC B   5      30.208   9.305   0.5920  0.00  0.00     0.000 C
ATOM     61  C3  BGC B   5      28.711   9.061   0.5440  0.00  0.00     0.000 C
ATOM     62  C4  BGC B   5      28.052   9.715   1.7480  0.00  0.00     0.000 C
ATOM     63  C5  BGC B   5      28.453  11.194   1.8480  0.00  0.00     0.000 C
ATOM     64  O5  BGC B   5      29.874  11.283   1.8890  0.00  0.00     0.000 O
ATOM     65   O  BGC B   5      28.401  11.120   4.1910  0.00  0.00     0.000 O
ATOM     67  HD  BGC B   5      28.064  10.665   4.8460  0.00  0.00     0.000 HD
ATOM     67   O  BGC B   5      28.401  11.120   4.1910  0.00  0.00     0.000 O
ATOM     69  HD  BGC B   5      28.064  10.665   4.8460  0.00  0.00     0.000 HD
ENDBRANCH 58 62
ENDBRANCH 45 58
ENDBRANCH 44 48
ENDBRANCH 31 44
ENDBRANCH 30 34
ENDBRANCH 17 30
ENDBRANCH 16 20
ENDBRANCH 1 16
TORSDOF 8
ENDMDL
MODEL 12
REMARK VINA RESULT:      -3.6      4.683      6.958
ROOT
ATOM      1  C1  BGC B   1       8.564   4.606   4.3180  0.00  0.00     0.000 C
ATOM      2  C2  BGC B   1       7.072   4.657   3.9900  0.00  0.00     0.000 C
ATOM      3  C3  BGC B   1       6.318   3.652   4.8390  0.00  0.00     0.000 C
ATOM      4  C4  BGC B   1       6.947   2.269   4.7240  0.00  0.00     0.000 C
ATOM      5  C5  BGC B   1       8.419   2.377   5.0940  0.00  0.00     0.000 C
ATOM      6  O5  BGC B   1       9.034   3.276   4.1520  0.00  0.00     0.000 O
ATOM      7   O  BGC B   1       6.573   5.976   4.2640  0.00  0.00     0.000 O
ATOM      9  HD  BGC B   1       5.736   6.055   4.4750  0.00  0.00     0.000 HD
ATOM      9   O  BGC B   1       4.950   3.626   4.4200  0.00  0.00     0.000 O
ATOM     11  HD  BGC B   1       4.114   3.704   4.6300  0.00  0.00     0.000 HD
ATOM     11   O  BGC B   1       6.295   1.377   5.6020  0.00  0.00     0.000 O
ATOM     13  HD  BGC B   1       5.459   1.455   5.8120  0.00  0.00     0.000 HD
ATOM     13   C  BGC B   1       9.181   1.059   5.0740  0.00  0.00     0.000 C
ATOM     14   O  BGC B   1       9.077   0.392   3.8200  0.00  0.00     0.000 O
ATOM     16  HD  BGC B   1       8.241   0.470   4.0300  0.00  0.00     0.000 HD
ENDROOT
BRANCH 1 16
ATOM     16  O4  BGC B   2       9.220   5.362   3.3020  0.00  0.00     0.000 O
BRANCH 16 20
ATOM     17  C1  BGC B   2      12.838   7.064   2.5570  0.00  0.00     0.000 C
ATOM     18  C2  BGC B   2      12.708   5.645   2.0230  0.00  0.00     0.000 C
ATOM     19  C3  BGC B   2      11.232   5.257   2.0320  0.00  0.00     0.000 C
ATOM     20  C4  BGC B   2      10.638   5.461   3.4110  0.00  0.00     0.000 C
ATOM     21  C5  BGC B   2      10.958   6.841   3.9850  0.00  0.00     0.000 C
ATOM     22  O5  BGC B   2      12.376   7.044   3.9210  0.00  0.00     0.000 O
ATOM     23   O  BGC B   2      13.205   5.577   0.6770  0.00  0.00     0.000 O
ATOM     25  HD  BGC B   2      12.410   5.603   1.0190  0.00  0.00     0.000 HD
ATOM     25   O  BGC B   2      11.085   3.900   1.6280  0.00  0.00     0.000 O
ATOM     27  HD  BGC B   2      10.290   3.926   1.9700  0.00  0.00     0.000 HD
ATOM     27   C  BGC B   2      10.533   6.993   5.4400  0.00  0.00     0.000 C
ATOM     28   O  BGC B   2      11.095   6.011   6.2950  0.00  0.00     0.000 O
ATOM     30  HD  BGC B   2      10.300   6.037   6.6370  0.00  0.00     0.000 HD
BRANCH 17 30
ATOM     30  O4  BGC B   3      14.222   7.345   2.6400  0.00  0.00     0.000 O
BRANCH 30 34
ATOM     31  C1  BGC B   3      16.718  10.606   2.8820  0.00  0.00     0.000 C
ATOM     32  C2  BGC B   3      16.130  10.157   4.2190  0.00  0.00     0.000 C
ATOM     33  C3  BGC B   3      15.575   8.752   4.0640  0.00  0.00     0.000 C
ATOM     34  C4  BGC B   3      14.565   8.707   2.9180  0.00  0.00     0.000 C
ATOM     35  C5  BGC B   3      15.169   9.300   1.6580  0.00  0.00     0.000 C
ATOM     36  O5  BGC B   3      15.659  10.615   1.9380  0.00  0.00     0.000 O
ATOM     37   O  BGC B   3      17.159  10.129   5.2060  0.00  0.00     0.000 O
ATOM     39  HD  BGC B   3      16.553  10.001   5.8110  0.00  0.00     0.000 HD
ATOM     39   O  BGC B   3      14.962   8.373   5.2880  0.00  0.00     0.000 O
ATOM     41  HD  BGC B   3      14.356   8.244   5.8920  0.00  0.00     0.000 HD
ATOM     41   C  BGC B   3      14.198   9.379   0.4840  0.00  0.00     0.000 C
ATOM     42   O  BGC B   3      13.068  10.140   0.8400  0.00  0.00     0.000 O
ATOM     44  HD  BGC B   3      12.462  10.011   1.4440  0.00  0.00     0.000 HD
BRANCH 31 44
ATOM     44  O4  BGC B   4      17.127  11.941   3.0360  0.00  0.00     0.000 O
BRANCH 44 48
ATOM     45  C1  BGC B   4      20.066  14.535   1.8340  0.00  0.00     0.000 C
ATOM     46  C2  BGC B   4      19.151  14.046   0.7190  0.00  0.00     0.000 C
ATOM     47  C3  BGC B   4      17.907  13.438   1.3200  0.00  0.00     0.000 C
ATOM     48  C4  BGC B   4      18.282  12.352   2.3330  0.00  0.00     0.000 C
ATOM     49  C5  BGC B   4      19.284  12.895   3.3590  0.00  0.00     0.000 C
ATOM     50  O5  BGC B   4      20.424  13.442   2.6810  0.00  0.00     0.000 O
ATOM     51   O  BGC B   4      18.774  15.149  -0.1270  0.00  0.00     0.000 O
ATOM     53  HD  BGC B   4      18.044  15.074   0.3340  0.00  0.00     0.000 HD
ATOM     53   O  BGC B   4      17.118  12.867   0.2670  0.00  0.00     0.000 O
ATOM     55  HD  BGC B   4      16.388  12.792   0.7280  0.00  0.00     0.000 HD
ATOM     55   C  BGC B   4      19.805  11.857   4.3370  0.00  0.00     0.000 C
ATOM     56   O  BGC B   4      20.358  10.781   3.5770  0.00  0.00     0.000 O
ATOM     58  HD  BGC B   4      19.629  10.707   4.0380  0.00  0.00     0.000 HD
BRANCH 45 58
ATOM     58  O4  BGC B   5      21.309  14.852   1.2080  0.00  0.00     0.000 O
BRANCH 58 62
ATOM     59  C1  BGC B   5      24.429  17.573   1.3220  0.00  0.00     0.000 C
ATOM     60  C2  BGC B   5      24.212  16.778   2.5940  0.00  0.00     0.000 C
ATOM     61  C3  BGC B   5      23.356  15.556   2.3200  0.00  0.00     0.000 C
ATOM     62  C4  BGC B   5      22.059  15.985   1.6530  0.00  0.00     0.000 C
ATOM     63  C5  BGC B   5      22.346  16.851   0.4180  0.00  0.00     0.000 C
ATOM     64  O5  BGC B   5      23.149  17.959   0.8100  0.00  0.00     0.000 O
ATOM     65   O  BGC B   5      20.417  18.133   0.7850  0.00  0.00     0.000 O
ATOM     67  HD  BGC B   5      19.651  18.103   1.1870  0.00  0.00     0.000 HD
ATOM     67   O  BGC B   5      20.417  18.133   0.7850  0.00  0.00     0.000 O
ATOM     69  HD  BGC B   5      19.651  18.103   1.1870  0.00  0.00     0.000 HD
ENDBRANCH 58 62
ENDBRANCH 45 58
ENDBRANCH 44 48
ENDBRANCH 31 44
ENDBRANCH 30 34
ENDBRANCH 17 30
ENDBRANCH 16 20
ENDBRANCH 1 16
TORSDOF 8
ENDMDL
MODEL 13
REMARK VINA RESULT:      -3.5      4.988      7.527
ROOT
ATOM      1  C1  BGC B   1      10.047   3.660   3.9840  0.00  0.00     0.000 C
ATOM      2  C2  BGC B   1      10.299   2.212   4.4020  0.00  0.00     0.000 C
ATOM      3  C3  BGC B   1       9.033   1.394   4.2330  0.00  0.00     0.000 C
ATOM      4  C4  BGC B   1       7.861   2.064   4.9380  0.00  0.00     0.000 C
ATOM      5  C5  BGC B   1       7.728   3.485   4.4090  0.00  0.00     0.000 C
ATOM      6  O5  BGC B   1       8.950   4.177   4.7240  0.00  0.00     0.000 O
ATOM      7   O  BGC B   1      11.336   1.655   3.5770  0.00  0.00     0.000 O
ATOM      9  HD  BGC B   1      11.329   0.800   3.4450  0.00  0.00     0.000 HD
ATOM      9   O  BGC B   1       9.259   0.081   4.7550  0.00  0.00     0.000 O
ATOM     11  HD  BGC B   1       9.252  -0.775   4.6230  0.00  0.00     0.000 HD
ATOM     11   O  BGC B   1       6.677   1.342   4.6790  0.00  0.00     0.000 O
ATOM     13  HD  BGC B   1       6.670   0.486   4.5470  0.00  0.00     0.000 HD
ATOM     13   C  BGC B   1       6.562   4.275   4.9850  0.00  0.00     0.000 C
ATOM     14   O  BGC B   1       6.590   4.323   6.4080  0.00  0.00     0.000 O
ATOM     16  HD  BGC B   1       6.583   3.467   6.2770  0.00  0.00     0.000 HD
ENDROOT
BRANCH 1 16
ATOM     16  O4  BGC B   2      11.179   4.405   4.4290  0.00  0.00     0.000 O
BRANCH 16 20
ATOM     17  C1  BGC B   2      13.121   7.921   3.7920  0.00  0.00     0.000 C
ATOM     18  C2  BGC B   2      11.854   8.064   4.6230  0.00  0.00     0.000 C
ATOM     19  C3  BGC B   2      11.426   6.677   5.0970  0.00  0.00     0.000 C
ATOM     20  C4  BGC B   2      11.297   5.732   3.9210  0.00  0.00     0.000 C
ATOM     21  C5  BGC B   2      12.523   5.766   3.0080  0.00  0.00     0.000 C
ATOM     22  O5  BGC B   2      12.781   7.127   2.6410  0.00  0.00     0.000 O
ATOM     23   O  BGC B   2      12.105   8.896   5.7680  0.00  0.00     0.000 O
ATOM     25  HD  BGC B   2      12.028   8.040   5.6570  0.00  0.00     0.000 HD
ATOM     25   O  BGC B   2      10.191   6.764   5.7980  0.00  0.00     0.000 O
ATOM     27  HD  BGC B   2      10.114   5.909   5.6870  0.00  0.00     0.000 HD
ATOM     27   C  BGC B   2      12.331   4.967   1.7250  0.00  0.00     0.000 C
ATOM     28   O  BGC B   2      11.201   5.376   0.9720  0.00  0.00     0.000 O
ATOM     30  HD  BGC B   2      11.124   4.520   0.8610  0.00  0.00     0.000 HD
BRANCH 17 30
ATOM     30  O4  BGC B   3      13.421   9.206   3.2790  0.00  0.00     0.000 O
BRANCH 30 34
ATOM     31  C1  BGC B   3      16.691  11.459   2.2080  0.00  0.00     0.000 C
ATOM     32  C2  BGC B   3      16.277  10.412   1.1750  0.00  0.00     0.000 C
ATOM     33  C3  BGC B   3      14.868   9.942   1.4900  0.00  0.00     0.000 C
ATOM     34  C4  BGC B   3      14.790   9.432   2.9280  0.00  0.00     0.000 C
ATOM     35  C5  BGC B   3      15.350  10.467   3.8880  0.00  0.00     0.000 C
ATOM     36  O5  BGC B   3      16.673  10.829   3.4790  0.00  0.00     0.000 O
ATOM     37   O  BGC B   3      16.278  10.998  -0.1240  0.00  0.00     0.000 O
ATOM     39  HD  BGC B   3      16.164  10.209  -0.4630  0.00  0.00     0.000 HD
ATOM     39   O  BGC B   3      14.521   8.915   0.5740  0.00  0.00     0.000 O
ATOM     41  HD  BGC B   3      14.407   8.125   0.2360  0.00  0.00     0.000 HD
ATOM     41   C  BGC B   3      15.396  10.005   5.3400  0.00  0.00     0.000 C
ATOM     42   O  BGC B   3      16.164   8.830   5.4510  0.00  0.00     0.000 O
ATOM     44  HD  BGC B   3      16.050   8.041   5.1130  0.00  0.00     0.000 HD
BRANCH 31 44
ATOM     44  O4  BGC B   4      18.031  11.793   1.9470  0.00  0.00     0.000 O
BRANCH 44 48
ATOM     45  C1  BGC B   4      20.592  14.987   2.1580  0.00  0.00     0.000 C
ATOM     46  C2  BGC B   4      20.334  14.288   3.4850  0.00  0.00     0.000 C
ATOM     47  C3  BGC B   4      19.719  12.934   3.2290  0.00  0.00     0.000 C
ATOM     48  C4  BGC B   4      18.472  13.073   2.3500  0.00  0.00     0.000 C
ATOM     49  C5  BGC B   4      18.792  13.876   1.0830  0.00  0.00     0.000 C
ATOM     50  O5  BGC B   4      19.365  15.142   1.4430  0.00  0.00     0.000 O
ATOM     51   O  BGC B   4      21.571  14.114   4.2000  0.00  0.00     0.000 O
ATOM     53  HD  BGC B   4      21.473  13.308   3.9000  0.00  0.00     0.000 HD
ATOM     53   O  BGC B   4      19.361  12.343   4.4870  0.00  0.00     0.000 O
ATOM     55  HD  BGC B   4      19.262  11.537   4.1860  0.00  0.00     0.000 HD
ATOM     55   C  BGC B   4      17.589  14.167   0.2040  0.00  0.00     0.000 C
ATOM     56   O  BGC B   4      16.609  14.823   1.0100  0.00  0.00     0.000 O
ATOM     58  HD  BGC B   4      16.510  14.017   0.7090  0.00  0.00     0.000 HD
BRANCH 45 58
ATOM     58  O4  BGC B   5      20.924  16.336   2.4840  0.00  0.00     0.000 O
BRANCH 58 62
ATOM     59  C1  BGC B   5      23.491  19.412   1.4370  0.00  0.00     0.000 C
ATOM     60  C2  BGC B   5      22.438  19.063   0.4040  0.00  0.00     0.000 C
ATOM     61  C3  BGC B   5      21.325  18.247   1.0320  0.00  0.00     0.000 C
ATOM     62  C4  BGC B   5      21.916  17.028   1.7220  0.00  0.00     0.000 C
ATOM     63  C5  BGC B   5      23.029  17.442   2.6950  0.00  0.00     0.000 C
ATOM     64  O5  BGC B   5      24.006  18.193   1.9830  0.00  0.00     0.000 O
ATOM     65   O  BGC B   5      24.234  15.480   2.2600  0.00  0.00     0.000 O
ATOM     67  HD  BGC B   5      24.130  14.674   1.9590  0.00  0.00     0.000 HD
ATOM     67   O  BGC B   5      24.234  15.480   2.2600  0.00  0.00     0.000 O
ATOM     69  HD  BGC B   5      24.130  14.674   1.9590  0.00  0.00     0.000 HD
ENDBRANCH 58 62
ENDBRANCH 45 58
ENDBRANCH 44 48
ENDBRANCH 31 44
ENDBRANCH 30 34
ENDBRANCH 17 30
ENDBRANCH 16 20
ENDBRANCH 1 16
TORSDOF 8
ENDMDL
MODEL 14
REMARK VINA RESULT:      -3.4      3.516      7.244
ROOT
ATOM      1  C1  BGC B   1      10.622   2.774   6.6510  0.00  0.00     0.000 C
ATOM      2  C2  BGC B   1       9.796   3.079   7.8990  0.00  0.00     0.000 C
ATOM      3  C3  BGC B   1       8.815   1.953   8.1620  0.00  0.00     0.000 C
ATOM      4  C4  BGC B   1       7.994   1.650   6.9150  0.00  0.00     0.000 C
ATOM      5  C5  BGC B   1       8.951   1.353   5.7690  0.00  0.00     0.000 C
ATOM      6  O5  BGC B   1       9.748   2.533   5.5580  0.00  0.00     0.000 O
ATOM      7   O  BGC B   1      10.675   3.214   9.0280  0.00  0.00     0.000 O
ATOM      9  HD  BGC B   1      10.357   3.025   9.8110  0.00  0.00     0.000 HD
ATOM      9   O  BGC B   1       7.966   2.324   9.2530  0.00  0.00     0.000 O
ATOM     11  HD  BGC B   1       7.648   2.135  10.0360  0.00  0.00     0.000 HD
ATOM     11   O  BGC B   1       7.166   0.532   7.1520  0.00  0.00     0.000 O
ATOM     13  HD  BGC B   1       6.848   0.343   7.9350  0.00  0.00     0.000 HD
ATOM     13   C  BGC B   1       8.278   0.982   4.4560  0.00  0.00     0.000 C
ATOM     14   O  BGC B   1       7.348   1.970   4.0240  0.00  0.00     0.000 O
ATOM     16  HD  BGC B   1       7.030   1.781   4.8070  0.00  0.00     0.000 HD
ENDROOT
BRANCH 1 16
ATOM     16  O4  BGC B   2      11.306   3.982   6.3210  0.00  0.00     0.000 O
BRANCH 16 20
ATOM     17  C1  BGC B   2      14.600   5.258   4.3080  0.00  0.00     0.000 C
ATOM     18  C2  BGC B   2      13.360   5.135   3.4350  0.00  0.00     0.000 C
ATOM     19  C3  BGC B   2      12.138   5.013   4.3430  0.00  0.00     0.000 C
ATOM     20  C4  BGC B   2      12.323   3.876   5.3280  0.00  0.00     0.000 C
ATOM     21  C5  BGC B   2      13.672   3.940   6.0450  0.00  0.00     0.000 C
ATOM     22  O5  BGC B   2      14.708   4.035   5.0600  0.00  0.00     0.000 O
ATOM     23   O  BGC B   2      13.218   6.304   2.6110  0.00  0.00     0.000 O
ATOM     25  HD  BGC B   2      12.828   6.034   3.3360  0.00  0.00     0.000 HD
ATOM     25   O  BGC B   2      10.971   4.800   3.5580  0.00  0.00     0.000 O
ATOM     27  HD  BGC B   2      10.581   4.530   4.2830  0.00  0.00     0.000 HD
ATOM     27   C  BGC B   2      13.951   2.706   6.8950  0.00  0.00     0.000 C
ATOM     28   O  BGC B   2      13.890   1.493   6.1630  0.00  0.00     0.000 O
ATOM     30  HD  BGC B   2      13.500   1.223   6.8880  0.00  0.00     0.000 HD
BRANCH 17 30
ATOM     30  O4  BGC B   3      15.715   5.255   3.4360  0.00  0.00     0.000 O
BRANCH 30 34
ATOM     31  C1  BGC B   3      19.457   6.957   3.2540  0.00  0.00     0.000 C
ATOM     32  C2  BGC B   3      19.412   5.595   3.9450  0.00  0.00     0.000 C
ATOM     33  C3  BGC B   3      18.101   4.911   3.6000  0.00  0.00     0.000 C
ATOM     34  C4  BGC B   3      16.922   5.810   3.9690  0.00  0.00     0.000 C
ATOM     35  C5  BGC B   3      17.103   7.192   3.3660  0.00  0.00     0.000 C
ATOM     36  O5  BGC B   3      18.373   7.721   3.7590  0.00  0.00     0.000 O
ATOM     37   O  BGC B   3      20.484   4.784   3.4680  0.00  0.00     0.000 O
ATOM     39  HD  BGC B   3      20.299   4.206   4.0860  0.00  0.00     0.000 HD
ATOM     39   O  BGC B   3      18.035   3.682   4.3070  0.00  0.00     0.000 O
ATOM     41  HD  BGC B   3      17.850   3.104   4.9250  0.00  0.00     0.000 HD
ATOM     41   C  BGC B   3      16.016   8.186   3.7590  0.00  0.00     0.000 C
ATOM     42   O  BGC B   3      15.958   8.314   5.1600  0.00  0.00     0.000 O
ATOM     44  HD  BGC B   3      15.773   7.735   5.7780  0.00  0.00     0.000 HD
BRANCH 31 44
ATOM     44  O4  BGC B   4      20.631   7.600   3.6770  0.00  0.00     0.000 O
BRANCH 44 48
ATOM     45  C1  BGC B   4      23.437  10.284   2.3640  0.00  0.00     0.000 C
ATOM     46  C2  BGC B   4      22.081  10.890   2.6970  0.00  0.00     0.000 C
ATOM     47  C3  BGC B   4      21.282   9.912   3.5220  0.00  0.00     0.000 C
ATOM     48  C4  BGC B   4      21.196   8.560   2.8080  0.00  0.00     0.000 C
ATOM     49  C5  BGC B   4      22.595   8.067   2.4160  0.00  0.00     0.000 C
ATOM     50  O5  BGC B   4      23.260   9.070   1.6340  0.00  0.00     0.000 O
ATOM     51   O  BGC B   4      22.256  12.107   3.4490  0.00  0.00     0.000 O
ATOM     53  HD  BGC B   4      22.038  11.575   4.0970  0.00  0.00     0.000 HD
ATOM     53   O  BGC B   4      19.963  10.441   3.7170  0.00  0.00     0.000 O
ATOM     55  HD  BGC B   4      19.744   9.910   4.3650  0.00  0.00     0.000 HD
ATOM     55   C  BGC B   4      22.603   6.788   1.5990  0.00  0.00     0.000 C
ATOM     56   O  BGC B   4      21.777   6.998   0.4520  0.00  0.00     0.000 O
ATOM     58  HD  BGC B   4      21.559   6.467   1.1000  0.00  0.00     0.000 HD
BRANCH 45 58
ATOM     58  O4  BGC B   5      24.020  11.143   1.3850  0.00  0.00     0.000 O
BRANCH 58 62
ATOM     59  C1  BGC B   5      27.538  13.148   0.5160  0.00  0.00     0.000 C
ATOM     60  C2  BGC B   5      27.539  11.666   0.1990  0.00  0.00     0.000 C
ATOM     61  C3  BGC B   5      26.120  11.130   0.1560  0.00  0.00     0.000 C
ATOM     62  C4  BGC B   5      25.411  11.464   1.4590  0.00  0.00     0.000 C
ATOM     63  C5  BGC B   5      25.515  12.966   1.7620  0.00  0.00     0.000 C
ATOM     64  O5  BGC B   5      26.889  13.338   1.7780  0.00  0.00     0.000 O
ATOM     65   O  BGC B   5      25.607  12.563   4.0690  0.00  0.00     0.000 O
ATOM     67  HD  BGC B   5      25.404  11.964   4.6600  0.00  0.00     0.000 HD
ATOM     67   O  BGC B   5      25.607  12.563   4.0690  0.00  0.00     0.000 O
ATOM     69  HD  BGC B   5      25.404  11.964   4.6600  0.00  0.00     0.000 HD
ENDBRANCH 58 62
ENDBRANCH 45 58
ENDBRANCH 44 48
ENDBRANCH 31 44
ENDBRANCH 30 34
ENDBRANCH 17 30
ENDBRANCH 16 20
ENDBRANCH 1 16
TORSDOF 8
ENDMDL
MODEL 15
REMARK VINA RESULT:      -3.3      6.030      9.197
ROOT
ATOM      1  C1  BGC B   1      10.721   4.155   3.9430  0.00  0.00     0.000 C
ATOM      2  C2  BGC B   1       9.224   3.887   4.0920  0.00  0.00     0.000 C
ATOM      3  C3  BGC B   1       8.999   2.614   4.8850  0.00  0.00     0.000 C
ATOM      4  C4  BGC B   1       9.794   1.460   4.2880  0.00  0.00     0.000 C
ATOM      5  C5  BGC B   1      11.259   1.869   4.2180  0.00  0.00     0.000 C
ATOM      6  O5  BGC B   1      11.343   3.020   3.3580  0.00  0.00     0.000 O
ATOM      7   O  BGC B   1       8.613   4.989   4.7840  0.00  0.00     0.000 O
ATOM      9  HD  BGC B   1       7.898   4.828   5.2450  0.00  0.00     0.000 HD
ATOM      9   O  BGC B   1       7.600   2.317   4.8950  0.00  0.00     0.000 O
ATOM     11  HD  BGC B   1       6.885   2.156   5.3560  0.00  0.00     0.000 HD
ATOM     11   O  BGC B   1       9.653   0.316   5.1010  0.00  0.00     0.000 O
ATOM     13  HD  BGC B   1       8.938   0.155   5.5620  0.00  0.00     0.000 HD
ATOM     13   C  BGC B   1      12.197   0.796   3.6840  0.00  0.00     0.000 C
ATOM     14   O  BGC B   1      11.799   0.316   2.4030  0.00  0.00     0.000 O
ATOM     16  HD  BGC B   1      11.084   0.155   2.8640  0.00  0.00     0.000 HD
ENDROOT
BRANCH 1 16
ATOM     16  O4  BGC B   2      10.845   5.190   2.9700  0.00  0.00     0.000 O
BRANCH 16 20
ATOM     17  C1  BGC B   2      13.376   8.162   1.8320  0.00  0.00     0.000 C
ATOM     18  C2  BGC B   2      13.747   6.796   1.2740  0.00  0.00     0.000 C
ATOM     19  C3  BGC B   2      12.556   5.859   1.4550  0.00  0.00     0.000 C
ATOM     20  C4  BGC B   2      12.111   5.841   2.9030  0.00  0.00     0.000 C
ATOM     21  C5  BGC B   2      11.934   7.247   3.4760  0.00  0.00     0.000 C
ATOM     22  O5  BGC B   2      13.137   7.990   3.2420  0.00  0.00     0.000 O
ATOM     23   O  BGC B   2      14.055   6.901  -0.1260  0.00  0.00     0.000 O
ATOM     25  HD  BGC B   2      13.364   6.619   0.3140  0.00  0.00     0.000 HD
ATOM     25   O  BGC B   2      12.904   4.546   1.0300  0.00  0.00     0.000 O
ATOM     27  HD  BGC B   2      12.213   4.264   1.4700  0.00  0.00     0.000 HD
ATOM     27   C  BGC B   2      11.672   7.249   4.9770  0.00  0.00     0.000 C
ATOM     28   O  BGC B   2      12.678   6.585   5.7240  0.00  0.00     0.000 O
ATOM     30  HD  BGC B   2      11.988   6.303   6.1630  0.00  0.00     0.000 HD
BRANCH 17 30
ATOM     30  O4  BGC B   3      14.537   8.967   1.7510  0.00  0.00     0.000 O
BRANCH 30 34
ATOM     31  C1  BGC B   3      15.922  12.645   2.9660  0.00  0.00     0.000 C
ATOM     32  C2  BGC B   3      15.618  11.673   4.1060  0.00  0.00     0.000 C
ATOM     33  C3  BGC B   3      15.510  10.269   3.5380  0.00  0.00     0.000 C
ATOM     34  C4  BGC B   3      14.468  10.230   2.4210  0.00  0.00     0.000 C
ATOM     35  C5  BGC B   3      14.749  11.315   1.3970  0.00  0.00     0.000 C
ATOM     36  O5  BGC B   3      14.834  12.582   2.0570  0.00  0.00     0.000 O
ATOM     37   O  BGC B   3      16.687  11.698   5.0490  0.00  0.00     0.000 O
ATOM     39  HD  BGC B   3      16.204  11.217   5.5840  0.00  0.00     0.000 HD
ATOM     39   O  BGC B   3      15.152   9.385   4.5900  0.00  0.00     0.000 O
ATOM     41  HD  BGC B   3      14.669   8.904   5.1240  0.00  0.00     0.000 HD
ATOM     41   C  BGC B   3      13.704  11.409   0.2910  0.00  0.00     0.000 C
ATOM     42   O  BGC B   3      12.429  11.636   0.8460  0.00  0.00     0.000 O
ATOM     44  HD  BGC B   3      11.947  11.155   1.3800  0.00  0.00     0.000 HD
BRANCH 31 44
ATOM     44  O4  BGC B   4      15.913  13.940   3.5110  0.00  0.00     0.000 O
BRANCH 44 48
ATOM     45  C1  BGC B   4      17.693  17.599   3.0130  0.00  0.00     0.000 C
ATOM     46  C2  BGC B   4      16.610  17.273   1.9950  0.00  0.00     0.000 C
ATOM     47  C3  BGC B   4      15.777  16.119   2.4980  0.00  0.00     0.000 C
ATOM     48  C4  BGC B   4      16.675  14.929   2.8480  0.00  0.00     0.000 C
ATOM     49  C5  BGC B   4      17.799  15.362   3.7970  0.00  0.00     0.000 C
ATOM     50  O5  BGC B   4      18.526  16.457   3.2190  0.00  0.00     0.000 O
ATOM     51   O  BGC B   4      15.757  18.417   1.7980  0.00  0.00     0.000 O
ATOM     53  HD  BGC B   4      15.241  17.948   2.3110  0.00  0.00     0.000 HD
ATOM     53   O  BGC B   4      14.847  15.739   1.4740  0.00  0.00     0.000 O
ATOM     55  HD  BGC B   4      14.331  15.271   1.9870  0.00  0.00     0.000 HD
ATOM     55   C  BGC B   4      18.811  14.274   4.1100  0.00  0.00     0.000 C
ATOM     56   O  BGC B   4      19.325  13.788   2.8690  0.00  0.00     0.000 O
ATOM     58  HD  BGC B   4      18.809  13.319   3.3820  0.00  0.00     0.000 HD
BRANCH 45 58
ATOM     58  O4  BGC B   5      18.581  18.507   2.3620  0.00  0.00     0.000 O
BRANCH 58 62
ATOM     59  C1  BGC B   5      21.030  21.752   3.1510  0.00  0.00     0.000 C
ATOM     60  C2  BGC B   5      21.626  20.395   3.4670  0.00  0.00     0.000 C
ATOM     61  C3  BGC B   5      20.847  19.295   2.7720  0.00  0.00     0.000 C
ATOM     62  C4  BGC B   5      19.376  19.404   3.1410  0.00  0.00     0.000 C
ATOM     63  C5  BGC B   5      18.854  20.823   2.8720  0.00  0.00     0.000 C
ATOM     64  O5  BGC B   5      19.665  21.754   3.5810  0.00  0.00     0.000 O
ATOM     65   O  BGC B   5      17.398  20.709   4.7060  0.00  0.00     0.000 O
ATOM     67  HD  BGC B   5      16.999  20.137   5.2190  0.00  0.00     0.000 HD
ATOM     67   O  BGC B   5      17.398  20.709   4.7060  0.00  0.00     0.000 O
ATOM     69  HD  BGC B   5      16.999  20.137   5.2190  0.00  0.00     0.000 HD
ENDBRANCH 58 62
ENDBRANCH 45 58
ENDBRANCH 44 48
ENDBRANCH 31 44
ENDBRANCH 30 34
ENDBRANCH 17 30
ENDBRANCH 16 20
ENDBRANCH 1 16
TORSDOF 8
ENDMDL
MODEL 16
REMARK VINA RESULT:      -3.2      3.689     14.862
ROOT
ATOM      1  C1  BGC B   1      19.830   6.647   8.6470  0.00  0.00     0.000 C
ATOM      2  C2  BGC B   1      20.621   7.814   8.0580  0.00  0.00     0.000 C
ATOM      3  C3  BGC B   1      22.067   7.744   8.5090  0.00  0.00     0.000 C
ATOM      4  C4  BGC B   1      22.154   7.618  10.0250  0.00  0.00     0.000 C
ATOM      5  C5  BGC B   1      21.335   6.410  10.4560  0.00  0.00     0.000 C
ATOM      6  O5  BGC B   1      19.972   6.651  10.0610  0.00  0.00     0.000 O
ATOM      7   O  BGC B   1      20.569   7.744   6.6240  0.00  0.00     0.000 O
ATOM      9  HD  BGC B   1      21.229   8.086   6.1800  0.00  0.00     0.000 HD
ATOM      9   O  BGC B   1      22.750   8.916   8.0550  0.00  0.00     0.000 O
ATOM     11  HD  BGC B   1      23.411   9.258   7.6110  0.00  0.00     0.000 HD
ATOM     11   O  BGC B   1      23.500   7.449  10.4110  0.00  0.00     0.000 O
ATOM     13  HD  BGC B   1      24.161   7.791   9.9670  0.00  0.00     0.000 HD
ATOM     13   C  BGC B   1      21.361   6.121  11.9500  0.00  0.00     0.000 C
ATOM     14   O  BGC B   1      20.956   7.243  12.7270  0.00  0.00     0.000 O
ATOM     16  HD  BGC B   1      21.616   7.585  12.2840  0.00  0.00     0.000 HD
ENDROOT
BRANCH 1 16
ATOM     16  O4  BGC B   2      18.454   6.938   8.4100  0.00  0.00     0.000 O
BRANCH 16 20
ATOM     17  C1  BGC B   2      14.878   5.083   7.8540  0.00  0.00     0.000 C
ATOM     18  C2  BGC B   2      15.286   5.199   9.3160  0.00  0.00     0.000 C
ATOM     19  C3  BGC B   2      16.426   6.210   9.4220  0.00  0.00     0.000 C
ATOM     20  C4  BGC B   2      17.557   5.833   8.4870  0.00  0.00     0.000 C
ATOM     21  C5  BGC B   2      17.067   5.541   7.0680  0.00  0.00     0.000 C
ATOM     22  O5  BGC B   2      16.017   4.568   7.1390  0.00  0.00     0.000 O
ATOM     23   O  BGC B   2      14.176   5.658  10.1040  0.00  0.00     0.000 O
ATOM     25  HD  BGC B   2      14.887   6.042   9.7950  0.00  0.00     0.000 HD
ATOM     25   O  BGC B   2      16.896   6.270  10.7640  0.00  0.00     0.000 O
ATOM     27  HD  BGC B   2      17.607   6.655  10.4550  0.00  0.00     0.000 HD
ATOM     27   C  BGC B   2      18.160   4.980   6.1670  0.00  0.00     0.000 C
ATOM     28   O  BGC B   2      18.766   3.806   6.6820  0.00  0.00     0.000 O
ATOM     30  HD  BGC B   2      19.477   4.190   6.3730  0.00  0.00     0.000 HD
BRANCH 17 30
ATOM     30  O4  BGC B   3      13.903   4.060   7.7820  0.00  0.00     0.000 O
BRANCH 30 34
ATOM     31  C1  BGC B   3      10.690   2.923   5.4780  0.00  0.00     0.000 C
ATOM     32  C2  BGC B   3      12.043   2.821   4.7750  0.00  0.00     0.000 C
ATOM     33  C3  BGC B   3      13.144   2.874   5.8180  0.00  0.00     0.000 C
ATOM     34  C4  BGC B   3      13.005   4.135   6.6700  0.00  0.00     0.000 C
ATOM     35  C5  BGC B   3      11.594   4.247   7.2210  0.00  0.00     0.000 C
ATOM     36  O5  BGC B   3      10.655   4.176   6.1440  0.00  0.00     0.000 O
ATOM     37   O  BGC B   3      12.130   1.573   4.0900  0.00  0.00     0.000 O
ATOM     39  HD  BGC B   3      12.858   1.850   3.7120  0.00  0.00     0.000 HD
ATOM     39   O  BGC B   3      14.397   2.857   5.1510  0.00  0.00     0.000 O
ATOM     41  HD  BGC B   3      15.126   3.133   4.7740  0.00  0.00     0.000 HD
ATOM     41   C  BGC B   3      11.337   5.525   8.0110  0.00  0.00     0.000 C
ATOM     42   O  BGC B   3      11.594   6.652   7.2070  0.00  0.00     0.000 O
ATOM     44  HD  BGC B   3      12.323   6.929   6.8300  0.00  0.00     0.000 HD
BRANCH 31 44
ATOM     44  O4  BGC B   4       9.704   2.974   4.4790  0.00  0.00     0.000 O
BRANCH 44 48
ATOM     45  C1  BGC B   4       5.622   3.105   4.1260  0.00  0.00     0.000 C
ATOM     46  C2  BGC B   4       6.295   4.464   4.2550  0.00  0.00     0.000 C
ATOM     47  C3  BGC B   4       7.773   4.322   3.9830  0.00  0.00     0.000 C
ATOM     48  C4  BGC B   4       8.379   3.243   4.8870  0.00  0.00     0.000 C
ATOM     49  C5  BGC B   4       7.583   1.937   4.7750  0.00  0.00     0.000 C
ATOM     50  O5  BGC B   4       6.198   2.187   5.0580  0.00  0.00     0.000 O
ATOM     51   O  BGC B   4       5.729   5.387   3.3060  0.00  0.00     0.000 O
ATOM     53  HD  BGC B   4       6.467   5.200   2.8920  0.00  0.00     0.000 HD
ATOM     53   O  BGC B   4       8.413   5.581   4.2360  0.00  0.00     0.000 O
ATOM     55  HD  BGC B   4       9.150   5.394   3.8220  0.00  0.00     0.000 HD
ATOM     55   C  BGC B   4       8.038   0.842   5.7230  0.00  0.00     0.000 C
ATOM     56   O  BGC B   4       8.002   1.371   7.0490  0.00  0.00     0.000 O
ATOM     58  HD  BGC B   4       8.739   1.184   6.6360  0.00  0.00     0.000 HD
BRANCH 45 58
ATOM     58  O4  BGC B   5       4.303   3.271   4.6440  0.00  0.00     0.000 O
BRANCH 58 62
ATOM     59  C1  BGC B   5       0.785   1.110   4.9640  0.00  0.00     0.000 C
ATOM     60  C2  BGC B   5       1.657   1.119   6.2030  0.00  0.00     0.000 C
ATOM     61  C3  BGC B   5       2.673   2.243   6.1310  0.00  0.00     0.000 C
ATOM     62  C4  BGC B   5       3.467   2.128   4.8390  0.00  0.00     0.000 C
ATOM     63  C5  BGC B   5       2.524   2.043   3.6300  0.00  0.00     0.000 C
ATOM     64  O5  BGC B   5       1.630   0.952   3.8200  0.00  0.00     0.000 O
ATOM     65   O  BGC B   5       4.001   0.621   2.4920  0.00  0.00     0.000 O
ATOM     67  HD  BGC B   5       4.834   0.386   2.4720  0.00  0.00     0.000 HD
ATOM     67   O  BGC B   5       4.001   0.621   2.4920  0.00  0.00     0.000 O
ATOM     69  HD  BGC B   5       4.834   0.386   2.4720  0.00  0.00     0.000 HD
ENDBRANCH 58 62
ENDBRANCH 45 58
ENDBRANCH 44 48
ENDBRANCH 31 44
ENDBRANCH 30 34
ENDBRANCH 17 30
ENDBRANCH 16 20
ENDBRANCH 1 16
TORSDOF 8
ENDMDL
MODEL 17
REMARK VINA RESULT:      -3.1      4.281      9.413
ROOT
ATOM      1  C1  BGC B   1      12.940   4.821   3.9720  0.00  0.00     0.000 C
ATOM      2  C2  BGC B   1      11.768   5.120   3.0390  0.00  0.00     0.000 C
ATOM      3  C3  BGC B   1      10.482   4.573   3.6260  0.00  0.00     0.000 C
ATOM      4  C4  BGC B   1      10.641   3.103   3.9960  0.00  0.00     0.000 C
ATOM      5  C5  BGC B   1      11.830   2.969   4.9350  0.00  0.00     0.000 C
ATOM      6  O5  BGC B   1      12.995   3.424   4.2220  0.00  0.00     0.000 O
ATOM      7   O  BGC B   1      11.645   6.543   2.8750  0.00  0.00     0.000 O
ATOM      9  HD  BGC B   1      10.860   6.861   2.6960  0.00  0.00     0.000 HD
ATOM      9   O  BGC B   1       9.428   4.747   2.6750  0.00  0.00     0.000 O
ATOM     11  HD  BGC B   1       8.642   5.066   2.4960  0.00  0.00     0.000 HD
ATOM     11   O  BGC B   1       9.469   2.646   4.6350  0.00  0.00     0.000 O
ATOM     13  HD  BGC B   1       8.684   2.964   4.4560  0.00  0.00     0.000 HD
ATOM     13   C  BGC B   1      12.092   1.556   5.4370  0.00  0.00     0.000 C
ATOM     14   O  BGC B   1      12.248   0.622   4.3720  0.00  0.00     0.000 O
ATOM     16  HD  BGC B   1      11.462   0.941   4.1930  0.00  0.00     0.000 HD
ENDROOT
BRANCH 1 16
ATOM     16  O4  BGC B   2      14.123   5.113   3.2310  0.00  0.00     0.000 O
BRANCH 16 20
ATOM     17  C1  BGC B   2      17.826   6.749   3.6220  0.00  0.00     0.000 C
ATOM     18  C2  BGC B   2      17.623   5.490   4.4520  0.00  0.00     0.000 C
ATOM     19  C3  BGC B   2      16.367   4.778   3.9540  0.00  0.00     0.000 C
ATOM     20  C4  BGC B   2      15.185   5.725   3.9600  0.00  0.00     0.000 C
ATOM     21  C5  BGC B   2      15.501   7.057   3.2770  0.00  0.00     0.000 C
ATOM     22  O5  BGC B   2      16.690   7.600   3.8650  0.00  0.00     0.000 O
ATOM     23   O  BGC B   2      18.752   4.612   4.3010  0.00  0.00     0.000 O
ATOM     25  HD  BGC B   2      17.951   4.617   3.9710  0.00  0.00     0.000 HD
ATOM     25   O  BGC B   2      16.096   3.646   4.7720  0.00  0.00     0.000 O
ATOM     27  HD  BGC B   2      15.295   3.650   4.4420  0.00  0.00     0.000 HD
ATOM     27   C  BGC B   2      14.390   8.087   3.4400  0.00  0.00     0.000 C
ATOM     28   O  BGC B   2      14.058   8.346   4.7950  0.00  0.00     0.000 O
ATOM     30  HD  BGC B   2      13.257   8.350   4.4650  0.00  0.00     0.000 HD
BRANCH 17 30
ATOM     30  O4  BGC B   3      18.928   7.436   4.1840  0.00  0.00     0.000 O
BRANCH 30 34
ATOM     31  C1  BGC B   3      22.064   9.837   3.0300  0.00  0.00     0.000 C
ATOM     32  C2  BGC B   3      20.690  10.318   2.5630  0.00  0.00     0.000 C
ATOM     33  C3  BGC B   3      19.619   9.602   3.3660  0.00  0.00     0.000 C
ATOM     34  C4  BGC B   3      19.796   8.088   3.2510  0.00  0.00     0.000 C
ATOM     35  C5  BGC B   3      21.223   7.696   3.5930  0.00  0.00     0.000 C
ATOM     36  O5  BGC B   3      22.130   8.443   2.7760  0.00  0.00     0.000 O
ATOM     37   O  BGC B   3      20.571  11.719   2.7990  0.00  0.00     0.000 O
ATOM     39  HD  BGC B   3      19.835  11.717   2.3430  0.00  0.00     0.000 HD
ATOM     39   O  BGC B   3      18.348   9.997   2.8730  0.00  0.00     0.000 O
ATOM     41  HD  BGC B   3      17.612   9.994   2.4160  0.00  0.00     0.000 HD
ATOM     41   C  BGC B   3      21.515   6.210   3.4160  0.00  0.00     0.000 C
ATOM     42   O  BGC B   3      21.247   5.816   2.0910  0.00  0.00     0.000 O
ATOM     44  HD  BGC B   3      20.511   5.814   1.6350  0.00  0.00     0.000 HD
BRANCH 31 44
ATOM     44  O4  BGC B   4      23.021  10.441   2.1990  0.00  0.00     0.000 O
BRANCH 44 48
ATOM     45  C1  BGC B   4      26.897  11.773   2.2740  0.00  0.00     0.000 C
ATOM     46  C2  BGC B   4      26.744  10.261   2.1810  0.00  0.00     0.000 C
ATOM     47  C3  BGC B   4      25.332   9.923   1.7690  0.00  0.00     0.000 C
ATOM     48  C4  BGC B   4      24.328  10.590   2.7150  0.00  0.00     0.000 C
ATOM     49  C5  BGC B   4      24.614  12.092   2.8320  0.00  0.00     0.000 C
ATOM     50  O5  BGC B   4      25.977  12.296   3.2330  0.00  0.00     0.000 O
ATOM     51   O  BGC B   4      27.658   9.732   1.2030  0.00  0.00     0.000 O
ATOM     53  HD  BGC B   4      26.930   9.709   0.7350  0.00  0.00     0.000 HD
ATOM     53   O  BGC B   4      25.166   8.499   1.8130  0.00  0.00     0.000 O
ATOM     55  HD  BGC B   4      24.437   8.476   1.3450  0.00  0.00     0.000 HD
ATOM     55   C  BGC B   4      23.741  12.820   3.8390  0.00  0.00     0.000 C
ATOM     56   O  BGC B   4      23.881  12.156   5.0970  0.00  0.00     0.000 O
ATOM     58  HD  BGC B   4      23.152  12.133   4.6290  0.00  0.00     0.000 HD
BRANCH 45 58
ATOM     58  O4  BGC B   5      28.155  12.000   2.9080  0.00  0.00     0.000 O
BRANCH 58 62
ATOM     59  C1  BGC B   5      30.771  15.060   3.8770  0.00  0.00     0.000 C
ATOM     60  C2  BGC B   5      29.617  14.862   4.8390  0.00  0.00     0.000 C
ATOM     61  C3  BGC B   5      28.983  13.500   4.6370  0.00  0.00     0.000 C
ATOM     62  C4  BGC B   5      28.583  13.337   3.1790  0.00  0.00     0.000 C
ATOM     63  C5  BGC B   5      29.775  13.628   2.2550  0.00  0.00     0.000 C
ATOM     64  O5  BGC B   5      30.272  14.931   2.5420  0.00  0.00     0.000 O
ATOM     65   O  BGC B   5      28.368  14.537   0.6150  0.00  0.00     0.000 O
ATOM     67  HD  BGC B   5      27.543  14.532   0.3520  0.00  0.00     0.000 HD
ATOM     67   O  BGC B   5      28.368  14.537   0.6150  0.00  0.00     0.000 O
ATOM     69  HD  BGC B   5      27.543  14.532   0.3520  0.00  0.00     0.000 HD
ENDBRANCH 58 62
ENDBRANCH 45 58
ENDBRANCH 44 48
ENDBRANCH 31 44
ENDBRANCH 30 34
ENDBRANCH 17 30
ENDBRANCH 16 20
ENDBRANCH 1 16
TORSDOF 8
ENDMDL
MODEL 18
REMARK VINA RESULT:      -3.1      6.969     11.149
ROOT
ATOM      1  C1  BGC B   1      13.257   5.695   3.2870  0.00  0.00     0.000 C
ATOM      2  C2  BGC B   1      12.623   5.166   4.5730  0.00  0.00     0.000 C
ATOM      3  C3  BGC B   1      12.050   3.781   4.3400  0.00  0.00     0.000 C
ATOM      4  C4  BGC B   1      11.128   3.776   3.1270  0.00  0.00     0.000 C
ATOM      5  C5  BGC B   1      11.902   4.311   1.9310  0.00  0.00     0.000 C
ATOM      6  O5  BGC B   1      12.296   5.660   2.2420  0.00  0.00     0.000 O
ATOM      7   O  BGC B   1      13.625   5.097   5.6010  0.00  0.00     0.000 O
ATOM      9  HD  BGC B   1      13.520   4.508   6.2270  0.00  0.00     0.000 HD
ATOM      9   O  BGC B   1      11.349   3.367   5.5160  0.00  0.00     0.000 O
ATOM     11  HD  BGC B   1      11.243   2.778   6.1420  0.00  0.00     0.000 HD
ATOM     11   O  BGC B   1      10.693   2.459   2.8690  0.00  0.00     0.000 O
ATOM     13  HD  BGC B   1      10.588   1.870   3.4940  0.00  0.00     0.000 HD
ATOM     13   C  BGC B   1      11.126   4.323   0.6220  0.00  0.00     0.000 C
ATOM     14   O  BGC B   1       9.899   5.040   0.7250  0.00  0.00     0.000 O
ATOM     16  HD  BGC B   1       9.794   4.450   1.3510  0.00  0.00     0.000 HD
ENDROOT
BRANCH 1 16
ATOM     16  O4  BGC B   2      13.514   7.080   3.5110  0.00  0.00     0.000 O
BRANCH 16 20
ATOM     17  C1  BGC B   2      16.024  10.078   2.3920  0.00  0.00     0.000 C
ATOM     18  C2  BGC B   2      15.012   9.696   1.3220  0.00  0.00     0.000 C
ATOM     19  C3  BGC B   2      13.920   8.847   1.9680  0.00  0.00     0.000 C
ATOM     20  C4  BGC B   2      14.528   7.669   2.7000  0.00  0.00     0.000 C
ATOM     21  C5  BGC B   2      15.671   8.085   3.6260  0.00  0.00     0.000 C
ATOM     22  O5  BGC B   2      16.614   8.855   2.8690  0.00  0.00     0.000 O
ATOM     23   O  BGC B   2      14.419  10.877   0.7580  0.00  0.00     0.000 O
ATOM     25  HD  BGC B   2      14.148  10.289   1.3330  0.00  0.00     0.000 HD
ATOM     25   O  BGC B   2      13.009   8.393   0.9740  0.00  0.00     0.000 O
ATOM     27  HD  BGC B   2      12.737   7.805   1.5490  0.00  0.00     0.000 HD
ATOM     27   C  BGC B   2      16.415   6.897   4.2230  0.00  0.00     0.000 C
ATOM     28   O  BGC B   2      16.931   6.008   3.2460  0.00  0.00     0.000 O
ATOM     30  HD  BGC B   2      16.660   5.420   3.8210  0.00  0.00     0.000 HD
BRANCH 17 30
ATOM     30  O4  BGC B   3      17.074  10.764   1.7370  0.00  0.00     0.000 O
BRANCH 30 34
ATOM     31  C1  BGC B   3      19.894  13.658   2.5110  0.00  0.00     0.000 C
ATOM     32  C2  BGC B   3      20.208  12.288   3.1140  0.00  0.00     0.000 C
ATOM     33  C3  BGC B   3      19.335  11.244   2.4410  0.00  0.00     0.000 C
ATOM     34  C4  BGC B   3      17.861  11.630   2.5620  0.00  0.00     0.000 C
ATOM     35  C5  BGC B   3      17.646  13.053   2.0780  0.00  0.00     0.000 C
ATOM     36  O5  BGC B   3      18.529  13.934   2.7810  0.00  0.00     0.000 O
ATOM     37   O  BGC B   3      21.574  11.962   2.8670  0.00  0.00     0.000 O
ATOM     39  HD  BGC B   3      21.490  11.283   3.3990  0.00  0.00     0.000 HD
ATOM     39   O  BGC B   3      19.577   9.989   3.0590  0.00  0.00     0.000 O
ATOM     41  HD  BGC B   3      19.493   9.311   3.5910  0.00  0.00     0.000 HD
ATOM     41   C  BGC B   3      16.216  13.556   2.2480  0.00  0.00     0.000 C
ATOM     42   O  BGC B   3      15.832  13.480   3.6000  0.00  0.00     0.000 O
ATOM     44  HD  BGC B   3      15.749  12.801   4.1320  0.00  0.00     0.000 HD
BRANCH 31 44
ATOM     44  O4  BGC B   4      20.642  14.607   3.2260  0.00  0.00     0.000 O
BRANCH 44 48
ATOM     45  C1  BGC B   4      22.547  18.200   2.7050  0.00  0.00     0.000 C
ATOM     46  C2  BGC B   4      21.027  18.281   2.7250  0.00  0.00     0.000 C
ATOM     47  C3  BGC B   4      20.463  17.006   3.3050  0.00  0.00     0.000 C
ATOM     48  C4  BGC B   4      21.008  15.791   2.5470  0.00  0.00     0.000 C
ATOM     49  C5  BGC B   4      22.539  15.838   2.4840  0.00  0.00     0.000 C
ATOM     50  O5  BGC B   4      22.963  17.085   1.9150  0.00  0.00     0.000 O
ATOM     51   O  BGC B   4      20.603  19.393   3.5350  0.00  0.00     0.000 O
ATOM     53  HD  BGC B   4      20.452  18.750   4.0960  0.00  0.00     0.000 HD
ATOM     53   O  BGC B   4      19.033  17.043   3.1970  0.00  0.00     0.000 O
ATOM     55  HD  BGC B   4      18.882  16.400   3.7570  0.00  0.00     0.000 HD
ATOM     55   C  BGC B   4      23.167  14.734   1.6520  0.00  0.00     0.000 C
ATOM     56   O  BGC B   4      22.583  14.785   0.3490  0.00  0.00     0.000 O
ATOM     58  HD  BGC B   4      22.432  14.142   0.9090  0.00  0.00     0.000 HD
BRANCH 45 58
ATOM     58  O4  BGC B   5      22.987  19.307   1.9200  0.00  0.00     0.000 O
BRANCH 58 62
ATOM     59  C1  BGC B   5      25.710  22.428   1.9620  0.00  0.00     0.000 C
ATOM     60  C2  BGC B   5      26.279  21.073   1.5920  0.00  0.00     0.000 C
ATOM     61  C3  BGC B   5      25.168  20.116   1.2040  0.00  0.00     0.000 C
ATOM     62  C4  BGC B   5      24.141  20.049   2.3230  0.00  0.00     0.000 C
ATOM     63  C5  BGC B   5      23.664  21.458   2.7050  0.00  0.00     0.000 C
ATOM     64  O5  BGC B   5      24.796  22.249   3.0500  0.00  0.00     0.000 O
ATOM     65   O  BGC B   5      23.423  20.841   4.9540  0.00  0.00     0.000 O
ATOM     67  HD  BGC B   5      23.322  20.144   5.4570  0.00  0.00     0.000 HD
ATOM     67   O  BGC B   5      23.423  20.841   4.9540  0.00  0.00     0.000 O
ATOM     69  HD  BGC B   5      23.322  20.144   5.4570  0.00  0.00     0.000 HD
ENDBRANCH 58 62
ENDBRANCH 45 58
ENDBRANCH 44 48
ENDBRANCH 31 44
ENDBRANCH 30 34
ENDBRANCH 17 30
ENDBRANCH 16 20
ENDBRANCH 1 16
TORSDOF 8
ENDMDL
MODEL 19
REMARK VINA RESULT:      -3.1      2.625     14.774
ROOT
ATOM      1  C1  BGC B   1      19.304   7.997   4.3560  0.00  0.00     0.000 C
ATOM      2  C2  BGC B   1      20.296   8.717   5.2680  0.00  0.00     0.000 C
ATOM      3  C3  BGC B   1      21.381   9.377   4.4390  0.00  0.00     0.000 C
ATOM      4  C4  BGC B   1      22.011   8.375   3.4800  0.00  0.00     0.000 C
ATOM      5  C5  BGC B   1      20.907   7.758   2.6350  0.00  0.00     0.000 C
ATOM      6  O5  BGC B   1      20.008   7.079   3.5310  0.00  0.00     0.000 O
ATOM      7   O  BGC B   1      19.600   9.722   6.0240  0.00  0.00     0.000 O
ATOM      9  HD  BGC B   1      20.051  10.414   6.2830  0.00  0.00     0.000 HD
ATOM      9   O  BGC B   1      22.364   9.928   5.3200  0.00  0.00     0.000 O
ATOM     11  HD  BGC B   1      22.815  10.620   5.5800  0.00  0.00     0.000 HD
ATOM     11   O  BGC B   1      22.941   9.036   2.6490  0.00  0.00     0.000 O
ATOM     13  HD  BGC B   1      23.391   9.728   2.9090  0.00  0.00     0.000 HD
ATOM     13   C  BGC B   1      21.386   6.764   1.5860  0.00  0.00     0.000 C
ATOM     14   O  BGC B   1      22.166   5.714   2.1500  0.00  0.00     0.000 O
ATOM     16  HD  BGC B   1      22.617   6.406   2.4090  0.00  0.00     0.000 HD
ENDROOT
BRANCH 1 16
ATOM     16  O4  BGC B   2      18.496   7.187   5.2080  0.00  0.00     0.000 O
BRANCH 16 20
ATOM     17  C1  BGC B   2      15.066   5.004   5.1380  0.00  0.00     0.000 C
ATOM     18  C2  BGC B   2      16.289   4.236   4.6590  0.00  0.00     0.000 C
ATOM     19  C3  BGC B   2      17.539   5.011   5.0690  0.00  0.00     0.000 C
ATOM     20  C4  BGC B   2      17.464   6.439   4.5690  0.00  0.00     0.000 C
ATOM     21  C5  BGC B   2      16.133   7.108   4.9130  0.00  0.00     0.000 C
ATOM     22  O5  BGC B   2      15.068   6.269   4.4510  0.00  0.00     0.000 O
ATOM     23   O  BGC B   2      16.323   2.933   5.2650  0.00  0.00     0.000 O
ATOM     25  HD  BGC B   2      16.750   3.672   5.4140  0.00  0.00     0.000 HD
ATOM     25   O  BGC B   2      18.698   4.368   4.5520  0.00  0.00     0.000 O
ATOM     27  HD  BGC B   2      19.125   5.107   4.7000  0.00  0.00     0.000 HD
ATOM     27   C  BGC B   2      15.967   8.473   4.2570  0.00  0.00     0.000 C
ATOM     28   O  BGC B   2      16.098   8.438   2.8460  0.00  0.00     0.000 O
ATOM     30  HD  BGC B   2      16.525   9.177   2.9940  0.00  0.00     0.000 HD
BRANCH 17 30
ATOM     30  O4  BGC B   3      13.931   4.317   4.6440  0.00  0.00     0.000 O
BRANCH 30 34
ATOM     31  C1  BGC B   3       9.912   4.014   5.4680  0.00  0.00     0.000 C
ATOM     32  C2  BGC B   3      10.281   5.151   4.5160  0.00  0.00     0.000 C
ATOM     33  C3  BGC B   3      11.684   4.914   3.9870  0.00  0.00     0.000 C
ATOM     34  C4  BGC B   3      12.667   4.760   5.1470  0.00  0.00     0.000 C
ATOM     35  C5  BGC B   3      12.167   3.715   6.1290  0.00  0.00     0.000 C
ATOM     36  O5  BGC B   3      10.838   4.048   6.5430  0.00  0.00     0.000 O
ATOM     37   O  BGC B   3       9.378   5.159   3.4130  0.00  0.00     0.000 O
ATOM     39  HD  BGC B   3       9.715   5.917   3.1640  0.00  0.00     0.000 HD
ATOM     39   O  BGC B   3      12.047   6.013   3.1650  0.00  0.00     0.000 O
ATOM     41  HD  BGC B   3      12.384   6.771   2.9170  0.00  0.00     0.000 HD
ATOM     41   C  BGC B   3      13.041   3.559   7.3680  0.00  0.00     0.000 C
ATOM     42   O  BGC B   3      13.151   4.791   8.0420  0.00  0.00     0.000 O
ATOM     44  HD  BGC B   3      13.487   5.549   7.7940  0.00  0.00     0.000 HD
BRANCH 31 44
ATOM     44  O4  BGC B   4       8.655   4.320   6.0140  0.00  0.00     0.000 O
BRANCH 44 48
ATOM     45  C1  BGC B   4       5.320   2.499   7.5530  0.00  0.00     0.000 C
ATOM     46  C2  BGC B   4       6.570   2.372   8.4120  0.00  0.00     0.000 C
ATOM     47  C3  BGC B   4       7.595   3.383   7.9620  0.00  0.00     0.000 C
ATOM     48  C4  BGC B   4       7.860   3.240   6.4600  0.00  0.00     0.000 C
ATOM     49  C5  BGC B   4       6.543   3.277   5.6740  0.00  0.00     0.000 C
ATOM     50  O5  BGC B   4       5.649   2.275   6.1800  0.00  0.00     0.000 O
ATOM     51   O  BGC B   4       6.245   2.614   9.7940  0.00  0.00     0.000 O
ATOM     53  HD  BGC B   4       6.607   3.377   9.6020  0.00  0.00     0.000 HD
ATOM     53   O  BGC B   4       8.811   3.164   8.6910  0.00  0.00     0.000 O
ATOM     55  HD  BGC B   4       9.173   3.928   8.4990  0.00  0.00     0.000 HD
ATOM     55   C  BGC B   4       6.693   3.026   4.1850  0.00  0.00     0.000 C
ATOM     56   O  BGC B   4       7.372   1.780   4.0190  0.00  0.00     0.000 O
ATOM     58  HD  BGC B   4       7.733   2.543   3.8280  0.00  0.00     0.000 HD
BRANCH 45 58
ATOM     58  O4  BGC B   5       4.516   1.360   7.8600  0.00  0.00     0.000 O
BRANCH 58 62
ATOM     59  C1  BGC B   5       0.575   0.094   7.9660  0.00  0.00     0.000 C
ATOM     60  C2  BGC B   5       1.181   0.217   6.5830  0.00  0.00     0.000 C
ATOM     61  C3  BGC B   5       2.695   0.273   6.6670  0.00  0.00     0.000 C
ATOM     62  C4  BGC B   5       3.110   1.395   7.6060  0.00  0.00     0.000 C
ATOM     63  C5  BGC B   5       2.401   1.257   8.9610  0.00  0.00     0.000 C
ATOM     64  O5  BGC B   5       0.994   1.220   8.7430  0.00  0.00     0.000 O
ATOM     65   O  BGC B   5       2.290   3.584   9.2170  0.00  0.00     0.000 O
ATOM     67  HD  BGC B   5       2.665   4.314   8.9400  0.00  0.00     0.000 HD
ATOM     67   O  BGC B   5       2.290   3.584   9.2170  0.00  0.00     0.000 O
ATOM     69  HD  BGC B   5       2.665   4.314   8.9400  0.00  0.00     0.000 HD
ENDBRANCH 58 62
ENDBRANCH 45 58
ENDBRANCH 44 48
ENDBRANCH 31 44
ENDBRANCH 30 34
ENDBRANCH 17 30
ENDBRANCH 16 20
ENDBRANCH 1 16
TORSDOF 8
ENDMDL
MODEL 20
REMARK VINA RESULT:      -3.1      5.085     10.700
ROOT
ATOM      1  C1  BGC B   1      14.277   5.506   2.9180  0.00  0.00     0.000 C
ATOM      2  C2  BGC B   1      13.754   5.199   1.5160  0.00  0.00     0.000 C
ATOM      3  C3  BGC B   1      12.243   5.072   1.5410  0.00  0.00     0.000 C
ATOM      4  C4  BGC B   1      11.802   4.085   2.6150  0.00  0.00     0.000 C
ATOM      5  C5  BGC B   1      12.385   4.531   3.9470  0.00  0.00     0.000 C
ATOM      6  O5  BGC B   1      13.818   4.508   3.8190  0.00  0.00     0.000 O
ATOM      7   O  BGC B   1      14.125   6.266   0.6280  0.00  0.00     0.000 O
ATOM      9  HD  BGC B   1      13.618   6.413  -0.0580  0.00  0.00     0.000 HD
ATOM      9   O  BGC B   1      11.793   4.654   0.2490  0.00  0.00     0.000 O
ATOM     11  HD  BGC B   1      11.286   4.801  -0.4380  0.00  0.00     0.000 HD
ATOM     11   O  BGC B   1      10.393   4.064   2.6890  0.00  0.00     0.000 O
ATOM     13  HD  BGC B   1       9.885   4.212   2.0020  0.00  0.00     0.000 HD
ATOM     13   C  BGC B   1      11.991   3.668   5.1380  0.00  0.00     0.000 C
ATOM     14   O  BGC B   1      12.312   2.294   4.9400  0.00  0.00     0.000 O
ATOM     16  HD  BGC B   1      11.804   2.441   4.2540  0.00  0.00     0.000 HD
ENDROOT
BRANCH 1 16
ATOM     16  O4  BGC B   2      15.692   5.334   2.8620  0.00  0.00     0.000 O
BRANCH 16 20
ATOM     17  C1  BGC B   2      19.060   6.088   5.0120  0.00  0.00     0.000 C
ATOM     18  C2  BGC B   2      18.306   4.849   5.4710  0.00  0.00     0.000 C
ATOM     19  C3  BGC B   2      17.298   4.466   4.3900  0.00  0.00     0.000 C
ATOM     20  C4  BGC B   2      16.410   5.647   4.0520  0.00  0.00     0.000 C
ATOM     21  C5  BGC B   2      17.212   6.920   3.7830  0.00  0.00     0.000 C
ATOM     22  O5  BGC B   2      18.093   7.148   4.8900  0.00  0.00     0.000 O
ATOM     23   O  BGC B   2      19.221   3.758   5.6680  0.00  0.00     0.000 O
ATOM     25  HD  BGC B   2      18.661   3.961   5.0400  0.00  0.00     0.000 HD
ATOM     25   O  BGC B   2      16.509   3.367   4.8310  0.00  0.00     0.000 O
ATOM     27  HD  BGC B   2      15.948   3.569   4.2030  0.00  0.00     0.000 HD
ATOM     27   C  BGC B   2      16.333   8.155   3.6290  0.00  0.00     0.000 C
ATOM     28   O  BGC B   2      15.487   8.385   4.7440  0.00  0.00     0.000 O
ATOM     30  HD  BGC B   2      14.926   8.588   4.1160  0.00  0.00     0.000 HD
BRANCH 17 30
ATOM     30  O4  BGC B   3      19.901   6.476   6.0820  0.00  0.00     0.000 O
BRANCH 30 34
ATOM     31  C1  BGC B   3      23.539   8.288   6.7180  0.00  0.00     0.000 C
ATOM     32  C2  BGC B   3      22.419   9.241   6.3030  0.00  0.00     0.000 C
ATOM     33  C3  BGC B   3      21.084   8.542   6.4900  0.00  0.00     0.000 C
ATOM     34  C4  BGC B   3      21.066   7.223   5.7190  0.00  0.00     0.000 C
ATOM     35  C5  BGC B   3      22.283   6.386   6.0730  0.00  0.00     0.000 C
ATOM     36  O5  BGC B   3      23.470   7.158   5.8620  0.00  0.00     0.000 O
ATOM     37   O  BGC B   3      22.445  10.397   7.1390  0.00  0.00     0.000 O
ATOM     39  HD  BGC B   3      21.861  10.766   6.6170  0.00  0.00     0.000 HD
ATOM     39   O  BGC B   3      20.056   9.406   6.0300  0.00  0.00     0.000 O
ATOM     41  HD  BGC B   3      19.472   9.776   5.5080  0.00  0.00     0.000 HD
ATOM     41   C  BGC B   3      22.395   5.089   5.2800  0.00  0.00     0.000 C
ATOM     42   O  BGC B   3      22.429   5.365   3.9000  0.00  0.00     0.000 O
ATOM     44  HD  BGC B   3      21.845   5.735   3.3780  0.00  0.00     0.000 HD
BRANCH 31 44
ATOM     44  O4  BGC B   4      24.757   8.928   6.4360  0.00  0.00     0.000 O
BRANCH 44 48
ATOM     45  C1  BGC B   4      28.612   9.171   7.8090  0.00  0.00     0.000 C
ATOM     46  C2  BGC B   4      28.277   7.881   7.0730  0.00  0.00     0.000 C
ATOM     47  C3  BGC B   4      26.999   8.065   6.2910  0.00  0.00     0.000 C
ATOM     48  C4  BGC B   4      25.879   8.561   7.2120  0.00  0.00     0.000 C
ATOM     49  C5  BGC B   4      26.332   9.801   7.9920  0.00  0.00     0.000 C
ATOM     50  O5  BGC B   4      27.547   9.513   8.6980  0.00  0.00     0.000 O
ATOM     51   O  BGC B   4      29.340   7.542   6.1630  0.00  0.00     0.000 O
ATOM     53  HD  BGC B   4      28.772   7.867   5.5950  0.00  0.00     0.000 HD
ATOM     53   O  BGC B   4      26.627   6.807   5.7100  0.00  0.00     0.000 O
ATOM     55  HD  BGC B   4      26.059   7.132   5.1430  0.00  0.00     0.000 HD
ATOM     55   C  BGC B   4      25.329  10.298   9.0180  0.00  0.00     0.000 C
ATOM     56   O  BGC B   4      25.023   9.209   9.8900  0.00  0.00     0.000 O
ATOM     58  HD  BGC B   4      24.455   9.533   9.3220  0.00  0.00     0.000 HD
BRANCH 45 58
ATOM     58  O4  BGC B   5      29.666   8.842   8.7130  0.00  0.00     0.000 O
BRANCH 58 62
ATOM     59  C1  BGC B   5      33.352  10.183  10.0410  0.00  0.00     0.000 C
ATOM     60  C2  BGC B   5      32.157  10.975  10.5310  0.00  0.00     0.000 C
ATOM     61  C3  BGC B   5      30.878  10.181  10.3440  0.00  0.00     0.000 C
ATOM     62  C4  BGC B   5      30.757   9.749   8.8920  0.00  0.00     0.000 C
ATOM     63  C5  BGC B   5      32.030   9.023   8.4350  0.00  0.00     0.000 C
ATOM     64  O5  BGC B   5      33.150   9.872   8.6590  0.00  0.00     0.000 O
ATOM     65   O  BGC B   5      31.825   9.884   6.2640  0.00  0.00     0.000 O
ATOM     67  HD  BGC B   5      31.239  10.220   5.7220  0.00  0.00     0.000 HD
ATOM     67   O  BGC B   5      31.825   9.884   6.2640  0.00  0.00     0.000 O
ATOM     69  HD  BGC B   5      31.239  10.220   5.7220  0.00  0.00     0.000 HD
ENDBRANCH 58 62
ENDBRANCH 45 58
ENDBRANCH 44 48
ENDBRANCH 31 44
ENDBRANCH 30 34
ENDBRANCH 17 30
ENDBRANCH 16 20
ENDBRANCH 1 16
TORSDOF 8
ENDMDL
MODEL 21
REMARK VINA RESULT:      -3.0      5.015     10.110
ROOT
ATOM      1  C1  BGC B   1      13.477   5.365   2.8330  0.00  0.00     0.000 C
ATOM      2  C2  BGC B   1      12.851   4.833   1.5440  0.00  0.00     0.000 C
ATOM      3  C3  BGC B   1      11.491   4.229   1.8370  0.00  0.00     0.000 C
ATOM      4  C4  BGC B   1      11.585   3.210   2.9660  0.00  0.00     0.000 C
ATOM      5  C5  BGC B   1      12.210   3.889   4.1760  0.00  0.00     0.000 C
ATOM      6  O5  BGC B   1      13.529   4.321   3.7940  0.00  0.00     0.000 O
ATOM      7   O  BGC B   1      12.697   5.915   0.6110  0.00  0.00     0.000 O
ATOM      9  HD  BGC B   1      12.061   5.856   0.0270  0.00  0.00     0.000 HD
ATOM      9   O  BGC B   1      10.988   3.622   0.6430  0.00  0.00     0.000 O
ATOM     11  HD  BGC B   1      10.351   3.563   0.0590  0.00  0.00     0.000 HD
ATOM     11   O  BGC B   1      10.294   2.742   3.2900  0.00  0.00     0.000 O
ATOM     13  HD  BGC B   1       9.657   2.682   2.7060  0.00  0.00     0.000 HD
ATOM     13   C  BGC B   1      12.328   3.008   5.4120  0.00  0.00     0.000 C
ATOM     14   O  BGC B   1      13.039   1.802   5.1520  0.00  0.00     0.000 O
ATOM     16  HD  BGC B   1      12.402   1.742   4.5680  0.00  0.00     0.000 HD
ENDROOT
BRANCH 1 16
ATOM     16  O4  BGC B   2      14.839   5.654   2.5230  0.00  0.00     0.000 O
BRANCH 16 20
ATOM     17  C1  BGC B   2      18.031   7.664   4.0430  0.00  0.00     0.000 C
ATOM     18  C2  BGC B   2      17.924   6.227   4.5330  0.00  0.00     0.000 C
ATOM     19  C3  BGC B   2      16.937   5.482   3.6370  0.00  0.00     0.000 C
ATOM     20  C4  BGC B   2      15.615   6.220   3.5760  0.00  0.00     0.000 C
ATOM     21  C5  BGC B   2      15.792   7.707   3.2660  0.00  0.00     0.000 C
ATOM     22  O5  BGC B   2      16.730   8.259   4.1990  0.00  0.00     0.000 O
ATOM     23   O  BGC B   2      19.206   5.582   4.4580  0.00  0.00     0.000 O
ATOM     25  HD  BGC B   2      18.492   5.550   3.9680  0.00  0.00     0.000 HD
ATOM     25   O  BGC B   2      16.740   4.161   4.1270  0.00  0.00     0.000 O
ATOM     27  HD  BGC B   2      16.027   4.128   3.6370  0.00  0.00     0.000 HD
ATOM     27   C  BGC B   2      14.496   8.498   3.3880  0.00  0.00     0.000 C
ATOM     28   O  BGC B   2      13.880   8.376   4.6600  0.00  0.00     0.000 O
ATOM     30  HD  BGC B   2      13.166   8.344   4.1700  0.00  0.00     0.000 HD
BRANCH 17 30
ATOM     30  O4  BGC B   3      18.863   8.348   4.9610  0.00  0.00     0.000 O
BRANCH 30 34
ATOM     31  C1  BGC B   3      21.599  11.419   5.0430  0.00  0.00     0.000 C
ATOM     32  C2  BGC B   3      20.149  11.866   4.8610  0.00  0.00     0.000 C
ATOM     33  C3  BGC B   3      19.230  10.719   5.2440  0.00  0.00     0.000 C
ATOM     34  C4  BGC B   3      19.579   9.470   4.4350  0.00  0.00     0.000 C
ATOM     35  C5  BGC B   3      21.063   9.166   4.5460  0.00  0.00     0.000 C
ATOM     36  O5  BGC B   3      21.815  10.324   4.1670  0.00  0.00     0.000 O
ATOM     37   O  BGC B   3      19.879  12.968   5.7250  0.00  0.00     0.000 O
ATOM     39  HD  BGC B   3      19.118  13.074   5.3250  0.00  0.00     0.000 HD
ATOM     39   O  BGC B   3      17.889  11.116   4.9990  0.00  0.00     0.000 O
ATOM     41  HD  BGC B   3      17.128  11.222   4.5980  0.00  0.00     0.000 HD
ATOM     41   C  BGC B   3      21.519   7.986   3.6950  0.00  0.00     0.000 C
ATOM     42   O  BGC B   3      21.208   8.215   2.3410  0.00  0.00     0.000 O
ATOM     44  HD  BGC B   3      20.448   8.321   1.9410  0.00  0.00     0.000 HD
BRANCH 31 44
ATOM     44  O4  BGC B   4      22.416  12.465   4.5840  0.00  0.00     0.000 O
BRANCH 44 48
ATOM     45  C1  BGC B   4      26.101  14.133   5.2530  0.00  0.00     0.000 C
ATOM     46  C2  BGC B   4      26.123  12.839   4.4520  0.00  0.00     0.000 C
ATOM     47  C3  BGC B   4      24.735  12.540   3.9400  0.00  0.00     0.000 C
ATOM     48  C4  BGC B   4      23.731  12.535   5.0970  0.00  0.00     0.000 C
ATOM     49  C5  BGC B   4      23.843  13.828   5.9140  0.00  0.00     0.000 C
ATOM     50  O5  BGC B   4      25.198  14.008   6.3520  0.00  0.00     0.000 O
ATOM     51   O  BGC B   4      27.019  12.967   3.3320  0.00  0.00     0.000 O
ATOM     53  HD  BGC B   4      26.266  13.065   2.9160  0.00  0.00     0.000 HD
ATOM     53   O  BGC B   4      24.744  11.256   3.3010  0.00  0.00     0.000 O
ATOM     55  HD  BGC B   4      23.991  11.354   2.8850  0.00  0.00     0.000 HD
ATOM     55   C  BGC B   4      22.967  13.865   7.1540  0.00  0.00     0.000 C
ATOM     56   O  BGC B   4      23.278  12.714   7.9410  0.00  0.00     0.000 O
ATOM     58  HD  BGC B   4      22.525  12.812   7.5260  0.00  0.00     0.000 HD
BRANCH 45 58
ATOM     58  O4  BGC B   5      27.366  14.209   5.9080  0.00  0.00     0.000 O
BRANCH 58 62
ATOM     59  C1  BGC B   5      30.486  16.823   6.6680  0.00  0.00     0.000 C
ATOM     60  C2  BGC B   5      29.221  17.072   7.4640  0.00  0.00     0.000 C
ATOM     61  C3  BGC B   5      28.321  15.852   7.4290  0.00  0.00     0.000 C
ATOM     62  C4  BGC B   5      28.053  15.460   5.9840  0.00  0.00     0.000 C
ATOM     63  C5  BGC B   5      29.371  15.302   5.2130  0.00  0.00     0.000 C
ATOM     64  O5  BGC B   5      30.116  16.510   5.3220  0.00  0.00     0.000 O
ATOM     65   O  BGC B   5      28.391  16.096   3.2370  0.00  0.00     0.000 O
ATOM     67  HD  BGC B   5      27.618  16.198   2.8590  0.00  0.00     0.000 HD
ATOM     67   O  BGC B   5      28.391  16.096   3.2370  0.00  0.00     0.000 O
ATOM     69  HD  BGC B   5      27.618  16.198   2.8590  0.00  0.00     0.000 HD
ENDBRANCH 58 62
ENDBRANCH 45 58
ENDBRANCH 44 48
ENDBRANCH 31 44
ENDBRANCH 30 34
ENDBRANCH 17 30
ENDBRANCH 16 20
ENDBRANCH 1 16
TORSDOF 8
ENDMDL
MODEL 22
REMARK VINA RESULT:      -2.9      3.907      5.305
ROOT
ATOM      1  C1  BGC B   1       5.384   3.565   7.2620  0.00  0.00     0.000 C
ATOM      2  C2  BGC B   1       5.660   2.489   8.3120  0.00  0.00     0.000 C
ATOM      3  C3  BGC B   1       4.396   1.700   8.5920  0.00  0.00     0.000 C
ATOM      4  C4  BGC B   1       3.240   2.634   8.9280  0.00  0.00     0.000 C
ATOM      5  C5  BGC B   1       3.080   3.631   7.7900  0.00  0.00     0.000 C
ATOM      6  O5  BGC B   1       4.306   4.380   7.6990  0.00  0.00     0.000 O
ATOM      7   O  BGC B   1       6.675   1.598   7.8210  0.00  0.00     0.000 O
ATOM      9  HD  BGC B   1       6.671   0.783   8.1130  0.00  0.00     0.000 HD
ATOM      9   O  BGC B   1       4.647   0.792   9.6700  0.00  0.00     0.000 O
ATOM     11  HD  BGC B   1       4.642  -0.023   9.9620  0.00  0.00     0.000 HD
ATOM     11   O  BGC B   1       2.054   1.885   9.0810  0.00  0.00     0.000 O
ATOM     13  HD  BGC B   1       2.050   1.069   9.3730  0.00  0.00     0.000 HD
ATOM     13   C  BGC B   1       1.926   4.610   7.9550  0.00  0.00     0.000 C
ATOM     14   O  BGC B   1       1.998   5.330   9.1810  0.00  0.00     0.000 O
ATOM     16  HD  BGC B   1       1.993   4.515   9.4740  0.00  0.00     0.000 HD
ENDROOT
BRANCH 1 16
ATOM     16  O4  BGC B   2       6.524   4.423   7.2630  0.00  0.00     0.000 O
BRANCH 16 20
ATOM     17  C1  BGC B   2       8.768   6.735   4.7830  0.00  0.00     0.000 C
ATOM     18  C2  BGC B   2       7.436   7.363   5.1650  0.00  0.00     0.000 C
ATOM     19  C3  BGC B   2       6.863   6.598   6.3550  0.00  0.00     0.000 C
ATOM     20  C4  BGC B   2       6.788   5.116   6.0470  0.00  0.00     0.000 C
ATOM     21  C5  BGC B   2       8.102   4.571   5.4850  0.00  0.00     0.000 C
ATOM     22  O5  BGC B   2       8.494   5.383   4.3710  0.00  0.00     0.000 O
ATOM     23   O  BGC B   2       7.626   8.738   5.5370  0.00  0.00     0.000 O
ATOM     25  HD  BGC B   2       7.500   8.010   5.9880  0.00  0.00     0.000 HD
ATOM     25   O  BGC B   2       5.571   7.099   6.6770  0.00  0.00     0.000 O
ATOM     27  HD  BGC B   2       5.444   6.371   7.1280  0.00  0.00     0.000 HD
ATOM     27   C  BGC B   2       7.988   3.134   4.9940  0.00  0.00     0.000 C
ATOM     28   O  BGC B   2       6.974   2.952   4.0190  0.00  0.00     0.000 O
ATOM     30  HD  BGC B   2       6.848   2.224   4.4700  0.00  0.00     0.000 HD
BRANCH 17 30
ATOM     30  O4  BGC B   3       9.211   7.396   3.6130  0.00  0.00     0.000 O
BRANCH 30 34
ATOM     31  C1  BGC B   3      12.737   8.490   1.7970  0.00  0.00     0.000 C
ATOM     32  C2  BGC B   3      12.336   7.031   1.5770  0.00  0.00     0.000 C
ATOM     33  C3  BGC B   3      10.870   6.865   1.9390  0.00  0.00     0.000 C
ATOM     34  C4  BGC B   3      10.620   7.348   3.3670  0.00  0.00     0.000 C
ATOM     35  C5  BGC B   3      11.172   8.750   3.5550  0.00  0.00     0.000 C
ATOM     36  O5  BGC B   3      12.551   8.775   3.1740  0.00  0.00     0.000 O
ATOM     37   O  BGC B   3      12.503   6.694   0.2020  0.00  0.00     0.000 O
ATOM     39  HD  BGC B   3      12.358   5.865   0.4040  0.00  0.00     0.000 HD
ATOM     39   O  BGC B   3      10.527   5.494   1.8060  0.00  0.00     0.000 O
ATOM     41  HD  BGC B   3      10.382   4.665   2.0080  0.00  0.00     0.000 HD
ATOM     41   C  BGC B   3      11.048   9.279   4.9790  0.00  0.00     0.000 C
ATOM     42   O  BGC B   3      11.705   8.416   5.8770  0.00  0.00     0.000 O
ATOM     44  HD  BGC B   3      11.560   7.586   6.0790  0.00  0.00     0.000 HD
BRANCH 31 44
ATOM     44  O4  BGC B   4      14.117   8.582   1.5520  0.00  0.00     0.000 O
BRANCH 44 48
ATOM     45  C1  BGC B   4      17.074  11.421   1.4850  0.00  0.00     0.000 C
ATOM     46  C2  BGC B   4      16.876  10.738   2.8300  0.00  0.00     0.000 C
ATOM     47  C3  BGC B   4      16.068   9.477   2.6410  0.00  0.00     0.000 C
ATOM     48  C4  BGC B   4      14.760   9.789   1.9070  0.00  0.00     0.000 C
ATOM     49  C5  BGC B   4      15.039  10.566   0.6150  0.00  0.00     0.000 C
ATOM     50  O5  BGC B   4      15.805  11.743   0.9120  0.00  0.00     0.000 O
ATOM     51   O  BGC B   4      18.153  10.397   3.4030  0.00  0.00     0.000 O
ATOM     53  HD  BGC B   4      17.919   9.615   3.1130  0.00  0.00     0.000 HD
ATOM     53   O  BGC B   4      15.779   8.916   3.9290  0.00  0.00     0.000 O
ATOM     55  HD  BGC B   4      15.545   8.134   3.6390  0.00  0.00     0.000 HD
ATOM     55   C  BGC B   4      13.794  11.022  -0.1240  0.00  0.00     0.000 C
ATOM     56   O  BGC B   4      13.000  11.783   0.7880  0.00  0.00     0.000 O
ATOM     58  HD  BGC B   4      12.767  11.002   0.4980  0.00  0.00     0.000 HD
BRANCH 45 58
ATOM     58  O4  BGC B   5      17.609  12.711   1.7760  0.00  0.00     0.000 O
BRANCH 58 62
ATOM     59  C1  BGC B   5      20.781  15.153   0.7150  0.00  0.00     0.000 C
ATOM     60  C2  BGC B   5      19.532  15.308  -0.1270  0.00  0.00     0.000 C
ATOM     61  C3  BGC B   5      18.334  14.703   0.5800  0.00  0.00     0.000 C
ATOM     62  C4  BGC B   5      18.636  13.258   0.9440  0.00  0.00     0.000 C
ATOM     63  C5  BGC B   5      19.953  13.162   1.7270  0.00  0.00     0.000 C
ATOM     64  O5  BGC B   5      20.991  13.758   0.9560  0.00  0.00     0.000 O
ATOM     65   O  BGC B   5      20.450  11.081   0.7670  0.00  0.00     0.000 O
ATOM     67  HD  BGC B   5      20.070  10.409   0.3750  0.00  0.00     0.000 HD
ATOM     67   O  BGC B   5      20.450  11.081   0.7670  0.00  0.00     0.000 O
ATOM     69  HD  BGC B   5      20.070  10.409   0.3750  0.00  0.00     0.000 HD
ENDBRANCH 58 62
ENDBRANCH 45 58
ENDBRANCH 44 48
ENDBRANCH 31 44
ENDBRANCH 30 34
ENDBRANCH 17 30
ENDBRANCH 16 20
ENDBRANCH 1 16
TORSDOF 8
ENDMDL
MODEL 23
REMARK VINA RESULT:      -2.8      4.562      9.847
ROOT
ATOM      1  C1  BGC B   1      12.266   6.749   2.2140  0.00  0.00     0.000 C
ATOM      2  C2  BGC B   1      11.475   5.793   3.1050  0.00  0.00     0.000 C
ATOM      3  C3  BGC B   1      10.382   5.114   2.3010  0.00  0.00     0.000 C
ATOM      4  C4  BGC B   1       9.535   6.145   1.5650  0.00  0.00     0.000 C
ATOM      5  C5  BGC B   1      10.456   7.006   0.7130  0.00  0.00     0.000 C
ATOM      6  O5  BGC B   1      11.371   7.670   1.6050  0.00  0.00     0.000 O
ATOM      7   O  BGC B   1      12.363   4.794   3.6330  0.00  0.00     0.000 O
ATOM      9  HD  BGC B   1      12.027   4.021   3.8320  0.00  0.00     0.000 HD
ATOM      9   O  BGC B   1       9.577   4.329   3.1850  0.00  0.00     0.000 O
ATOM     11  HD  BGC B   1       9.241   3.557   3.3840  0.00  0.00     0.000 HD
ATOM     11   O  BGC B   1       8.596   5.487   0.7430  0.00  0.00     0.000 O
ATOM     13  HD  BGC B   1       8.260   4.714   0.9420  0.00  0.00     0.000 HD
ATOM     13   C  BGC B   1       9.749   8.060  -0.1260  0.00  0.00     0.000 C
ATOM     14   O  BGC B   1       8.926   8.917   0.6590  0.00  0.00     0.000 O
ATOM     16  HD  BGC B   1       8.590   8.144   0.8590  0.00  0.00     0.000 HD
ENDROOT
BRANCH 1 16
ATOM     16  O4  BGC B   2      13.070   7.536   3.0900  0.00  0.00     0.000 O
BRANCH 16 20
ATOM     17  C1  BGC B   2      16.711   9.328   3.3520  0.00  0.00     0.000 C
ATOM     18  C2  BGC B   2      15.866   9.828   2.1900  0.00  0.00     0.000 C
ATOM     19  C3  BGC B   2      14.425   9.370   2.4070  0.00  0.00     0.000 C
ATOM     20  C4  BGC B   2      14.372   7.871   2.6160  0.00  0.00     0.000 C
ATOM     21  C5  BGC B   2      15.378   7.392   3.6630  0.00  0.00     0.000 C
ATOM     22  O5  BGC B   2      16.675   7.889   3.3090  0.00  0.00     0.000 O
ATOM     23   O  BGC B   2      15.900  11.264   2.1370  0.00  0.00     0.000 O
ATOM     25  HD  BGC B   2      15.314  10.691   2.4170  0.00  0.00     0.000 HD
ATOM     25   O  BGC B   2      13.626   9.741   1.2890  0.00  0.00     0.000 O
ATOM     27  HD  BGC B   2      13.040   9.168   1.5690  0.00  0.00     0.000 HD
ATOM     27   C  BGC B   2      15.470   5.874   3.7480  0.00  0.00     0.000 C
ATOM     28   O  BGC B   2      15.786   5.259   2.5090  0.00  0.00     0.000 O
ATOM     30  HD  BGC B   2      15.200   4.686   2.7890  0.00  0.00     0.000 HD
BRANCH 17 30
ATOM     30  O4  BGC B   3      18.052   9.672   3.0600  0.00  0.00     0.000 O
BRANCH 30 34
ATOM     31  C1  BGC B   3      21.721   9.839   4.9140  0.00  0.00     0.000 C
ATOM     32  C2  BGC B   3      21.263   8.430   4.5400  0.00  0.00     0.000 C
ATOM     33  C3  BGC B   3      20.129   8.533   3.5350  0.00  0.00     0.000 C
ATOM     34  C4  BGC B   3      19.004   9.402   4.0950  0.00  0.00     0.000 C
ATOM     35  C5  BGC B   3      19.554  10.732   4.5790  0.00  0.00     0.000 C
ATOM     36  O5  BGC B   3      20.615  10.498   5.5100  0.00  0.00     0.000 O
ATOM     37   O  BGC B   3      22.342   7.724   3.9330  0.00  0.00     0.000 O
ATOM     39  HD  BGC B   3      21.868   7.000   3.9710  0.00  0.00     0.000 HD
ATOM     39   O  BGC B   3      19.658   7.224   3.2530  0.00  0.00     0.000 O
ATOM     41  HD  BGC B   3      19.184   6.500   3.2910  0.00  0.00     0.000 HD
ATOM     41   C  BGC B   3      18.513  11.630   5.2380  0.00  0.00     0.000 C
ATOM     42   O  BGC B   3      17.922  10.966   6.3300  0.00  0.00     0.000 O
ATOM     44  HD  BGC B   3      17.448  10.242   6.3690  0.00  0.00     0.000 HD
BRANCH 31 44
ATOM     44  O4  BGC B   4      22.695   9.706   5.9170  0.00  0.00     0.000 O
BRANCH 44 48
ATOM     45  C1  BGC B   4      26.053  11.582   7.3380  0.00  0.00     0.000 C
ATOM     46  C2  BGC B   4      24.738  12.228   7.7510  0.00  0.00     0.000 C
ATOM     47  C3  BGC B   4      23.605  11.259   7.5160  0.00  0.00     0.000 C
ATOM     48  C4  BGC B   4      23.622  10.763   6.0670  0.00  0.00     0.000 C
ATOM     49  C5  BGC B   4      25.008  10.221   5.6980  0.00  0.00     0.000 C
ATOM     50  O5  BGC B   4      26.004  11.223   5.9560  0.00  0.00     0.000 O
ATOM     51   O  BGC B   4      24.777  12.575   9.1480  0.00  0.00     0.000 O
ATOM     53  HD  BGC B   4      24.296  11.857   9.1990  0.00  0.00     0.000 HD
ATOM     53   O  BGC B   4      22.363  11.925   7.7860  0.00  0.00     0.000 O
ATOM     55  HD  BGC B   4      21.882  11.207   7.8370  0.00  0.00     0.000 HD
ATOM     55   C  BGC B   4      25.156   9.813   4.2440  0.00  0.00     0.000 C
ATOM     56   O  BGC B   4      24.796  10.936   3.4370  0.00  0.00     0.000 O
ATOM     58  HD  BGC B   4      24.315  10.217   3.4880  0.00  0.00     0.000 HD
BRANCH 45 58
ATOM     58  O4  BGC B   5      27.022  12.629   7.3440  0.00  0.00     0.000 O
BRANCH 58 62
ATOM     59  C1  BGC B   5      30.846  13.510   8.6660  0.00  0.00     0.000 C
ATOM     60  C2  BGC B   5      30.770  12.605   7.4520  0.00  0.00     0.000 C
ATOM     61  C3  BGC B   5      29.396  12.685   6.8140  0.00  0.00     0.000 C
ATOM     62  C4  BGC B   5      28.333  12.380   7.8560  0.00  0.00     0.000 C
ATOM     63  C5  BGC B   5      28.514  13.274   9.0920  0.00  0.00     0.000 C
ATOM     64  O5  BGC B   5      29.835  13.103   9.5940  0.00  0.00     0.000 O
ATOM     65   O  BGC B   5      27.763  11.572  10.5180  0.00  0.00     0.000 O
ATOM     67  HD  BGC B   5      27.297  10.842  10.5140  0.00  0.00     0.000 HD
ATOM     67   O  BGC B   5      27.763  11.572  10.5180  0.00  0.00     0.000 O
ATOM     69  HD  BGC B   5      27.297  10.842  10.5140  0.00  0.00     0.000 HD
ENDBRANCH 58 62
ENDBRANCH 45 58
ENDBRANCH 44 48
ENDBRANCH 31 44
ENDBRANCH 30 34
ENDBRANCH 17 30
ENDBRANCH 16 20
ENDBRANCH 1 16
TORSDOF 8
ENDMDL
MODEL 24
REMARK VINA RESULT:      -2.7      4.428      9.886
ROOT
ATOM      1  C1  BGC B   1      13.008   6.501   3.0580  0.00  0.00     0.000 C
ATOM      2  C2  BGC B   1      12.030   7.444   2.3600  0.00  0.00     0.000 C
ATOM      3  C3  BGC B   1      10.603   7.005   2.6230  0.00  0.00     0.000 C
ATOM      4  C4  BGC B   1      10.420   5.532   2.2790  0.00  0.00     0.000 C
ATOM      5  C5  BGC B   1      11.448   4.724   3.0590  0.00  0.00     0.000 C
ATOM      6  O5  BGC B   1      12.751   5.167   2.6400  0.00  0.00     0.000 O
ATOM      7   O  BGC B   1      12.216   8.777   2.8650  0.00  0.00     0.000 O
ATOM      9  HD  BGC B   1      11.536   9.312   2.8480  0.00  0.00     0.000 HD
ATOM      9   O  BGC B   1       9.717   7.822   1.8520  0.00  0.00     0.000 O
ATOM     11  HD  BGC B   1       9.037   8.357   1.8350  0.00  0.00     0.000 HD
ATOM     11   O  BGC B   1       9.117   5.121   2.6320  0.00  0.00     0.000 O
ATOM     13  HD  BGC B   1       8.437   5.656   2.6140  0.00  0.00     0.000 HD
ATOM     13   C  BGC B   1      11.361   3.217   2.8580  0.00  0.00     0.000 C
ATOM     14   O  BGC B   1      11.442   2.848   1.4850  0.00  0.00     0.000 O
ATOM     16  HD  BGC B   1      10.761   3.383   1.4680  0.00  0.00     0.000 HD
ENDROOT
BRANCH 1 16
ATOM     16  O4  BGC B   2      14.300   6.811   2.5400  0.00  0.00     0.000 O
BRANCH 16 20
ATOM     17  C1  BGC B   2      18.207   7.026   3.6490  0.00  0.00     0.000 C
ATOM     18  C2  BGC B   2      17.526   5.729   4.0580  0.00  0.00     0.000 C
ATOM     19  C3  BGC B   2      16.213   5.606   3.2880  0.00  0.00     0.000 C
ATOM     20  C4  BGC B   2      15.364   6.845   3.4870  0.00  0.00     0.000 C
ATOM     21  C5  BGC B   2      16.150   8.135   3.2470  0.00  0.00     0.000 C
ATOM     22  O5  BGC B   2      17.337   8.102   4.0490  0.00  0.00     0.000 O
ATOM     23   O  BGC B   2      18.366   4.608   3.7360  0.00  0.00     0.000 O
ATOM     25  HD  BGC B   2      17.661   4.950   3.3670  0.00  0.00     0.000 HD
ATOM     25   O  BGC B   2      15.505   4.450   3.7180  0.00  0.00     0.000 O
ATOM     27  HD  BGC B   2      14.801   4.793   3.3490  0.00  0.00     0.000 HD
ATOM     27   C  BGC B   2      15.368   9.386   3.6260  0.00  0.00     0.000 C
ATOM     28   O  BGC B   2      14.916   9.382   4.9700  0.00  0.00     0.000 O
ATOM     30  HD  BGC B   2      14.212   9.724   4.6010  0.00  0.00     0.000 HD
BRANCH 17 30
ATOM     30  O4  BGC B   3      19.357   7.159   4.4620  0.00  0.00     0.000 O
BRANCH 30 34
ATOM     31  C1  BGC B   3      23.175   8.685   4.3080  0.00  0.00     0.000 C
ATOM     32  C2  BGC B   3      22.068   9.730   4.1740  0.00  0.00     0.000 C
ATOM     33  C3  BGC B   3      20.757   9.120   4.6390  0.00  0.00     0.000 C
ATOM     34  C4  BGC B   3      20.467   7.835   3.8630  0.00  0.00     0.000 C
ATOM     35  C5  BGC B   3      21.664   6.902   3.9200  0.00  0.00     0.000 C
ATOM     36  O5  BGC B   3      22.831   7.596   3.4650  0.00  0.00     0.000 O
ATOM     37   O  BGC B   3      22.366  10.848   5.0060  0.00  0.00     0.000 O
ATOM     39  HD  BGC B   3      21.711  11.278   4.6360  0.00  0.00     0.000 HD
ATOM     39   O  BGC B   3      19.722  10.071   4.4380  0.00  0.00     0.000 O
ATOM     41  HD  BGC B   3      19.068  10.500   4.0670  0.00  0.00     0.000 HD
ATOM     41   C  BGC B   3      21.498   5.631   3.0950  0.00  0.00     0.000 C
ATOM     42   O  BGC B   3      21.247   5.956   1.7480  0.00  0.00     0.000 O
ATOM     44  HD  BGC B   3      20.593   6.385   1.3780  0.00  0.00     0.000 HD
BRANCH 31 44
ATOM     44  O4  BGC B   4      24.345   9.249   3.7750  0.00  0.00     0.000 O
BRANCH 44 48
ATOM     45  C1  BGC B   4      28.420   9.103   4.2010  0.00  0.00     0.000 C
ATOM     46  C2  BGC B   4      27.808   7.896   3.5040  0.00  0.00     0.000 C
ATOM     47  C3  BGC B   4      26.405   8.230   3.0590  0.00  0.00     0.000 C
ATOM     48  C4  BGC B   4      25.580   8.745   4.2420  0.00  0.00     0.000 C
ATOM     49  C5  BGC B   4      26.312   9.891   4.9510  0.00  0.00     0.000 C
ATOM     50  O5  BGC B   4      27.627   9.463   5.3340  0.00  0.00     0.000 O
ATOM     51   O  BGC B   4      28.595   7.540   2.3520  0.00  0.00     0.000 O
ATOM     53  HD  BGC B   4      27.942   7.945   1.9520  0.00  0.00     0.000 HD
ATOM     53   O  BGC B   4      25.797   7.046   2.5230  0.00  0.00     0.000 O
ATOM     55  HD  BGC B   4      25.144   7.451   2.1230  0.00  0.00     0.000 HD
ATOM     55   C  BGC B   4      25.624  10.391   6.2090  0.00  0.00     0.000 C
ATOM     56   O  BGC B   4      25.433   9.271   7.0750  0.00  0.00     0.000 O
ATOM     58  HD  BGC B   4      24.780   9.676   6.6760  0.00  0.00     0.000 HD
BRANCH 45 58
ATOM     58  O4  BGC B   5      29.622   8.634   4.8110  0.00  0.00     0.000 O
BRANCH 58 62
ATOM     59  C1  BGC B   5      32.970  10.007   6.8250  0.00  0.00     0.000 C
ATOM     60  C2  BGC B   5      31.719   9.859   7.6680  0.00  0.00     0.000 C
ATOM     61  C3  BGC B   5      30.703   8.981   6.9640  0.00  0.00     0.000 C
ATOM     62  C4  BGC B   5      30.428   9.535   5.5750  0.00  0.00     0.000 C
ATOM     63  C5  BGC B   5      31.741   9.735   4.8030  0.00  0.00     0.000 C
ATOM     64  O5  BGC B   5      32.599  10.576   5.5660  0.00  0.00     0.000 O
ATOM     65   O  BGC B   5      30.886  11.621   3.7040  0.00  0.00     0.000 O
ATOM     67  HD  BGC B   5      30.136  11.997   3.4890  0.00  0.00     0.000 HD
ATOM     67   O  BGC B   5      30.886  11.621   3.7040  0.00  0.00     0.000 O
ATOM     69  HD  BGC B   5      30.136  11.997   3.4890  0.00  0.00     0.000 HD
ENDBRANCH 58 62
ENDBRANCH 45 58
ENDBRANCH 44 48
ENDBRANCH 31 44
ENDBRANCH 30 34
ENDBRANCH 17 30
ENDBRANCH 16 20
ENDBRANCH 1 16
TORSDOF 8
ENDMDL
MODEL 25
REMARK VINA RESULT:      -2.7      5.358     11.177
ROOT
ATOM      1  C1  BGC B   1      13.844   3.717   5.1220  0.00  0.00     0.000 C
ATOM      2  C2  BGC B   1      12.935   3.854   6.3420  0.00  0.00     0.000 C
ATOM      3  C3  BGC B   1      11.556   3.306   6.0280  0.00  0.00     0.000 C
ATOM      4  C4  BGC B   1      11.006   3.929   4.7520  0.00  0.00     0.000 C
ATOM      5  C5  BGC B   1      12.009   3.698   3.6310  0.00  0.00     0.000 C
ATOM      6  O5  BGC B   1      13.234   4.354   4.0090  0.00  0.00     0.000 O
ATOM      7   O  BGC B   1      13.499   3.116   7.4390  0.00  0.00     0.000 O
ATOM      9  HD  BGC B   1      12.956   2.807   8.0380  0.00  0.00     0.000 HD
ATOM      9   O  BGC B   1      10.691   3.568   7.1370  0.00  0.00     0.000 O
ATOM     11  HD  BGC B   1      10.147   3.258   7.7360  0.00  0.00     0.000 HD
ATOM     11   O  BGC B   1       9.772   3.328   4.4240  0.00  0.00     0.000 O
ATOM     13  HD  BGC B   1       9.229   3.018   5.0230  0.00  0.00     0.000 HD
ATOM     13   C  BGC B   1      11.579   4.224   2.2700  0.00  0.00     0.000 C
ATOM     14   O  BGC B   1      11.249   5.609   2.3030  0.00  0.00     0.000 O
ATOM     16  HD  BGC B   1      10.705   5.300   2.9020  0.00  0.00     0.000 HD
ENDROOT
BRANCH 1 16
ATOM     16  O4  BGC B   2      15.007   4.493   5.4040  0.00  0.00     0.000 O
BRANCH 16 20
ATOM     17  C1  BGC B   2      19.027   4.475   4.7870  0.00  0.00     0.000 C
ATOM     18  C2  BGC B   2      18.233   5.061   3.6290  0.00  0.00     0.000 C
ATOM     19  C3  BGC B   2      16.814   5.350   4.1100  0.00  0.00     0.000 C
ATOM     20  C4  BGC B   2      16.199   4.108   4.7230  0.00  0.00     0.000 C
ATOM     21  C5  BGC B   2      17.120   3.447   5.7490  0.00  0.00     0.000 C
ATOM     22  O5  BGC B   2      18.399   3.229   5.1400  0.00  0.00     0.000 O
ATOM     23   O  BGC B   2      18.838   6.287   3.1850  0.00  0.00     0.000 O
ATOM     25  HD  BGC B   2      18.144   6.105   3.6690  0.00  0.00     0.000 HD
ATOM     25   O  BGC B   2      16.018   5.810   3.0240  0.00  0.00     0.000 O
ATOM     27  HD  BGC B   2      15.323   5.628   3.5090  0.00  0.00     0.000 HD
ATOM     27   C  BGC B   2      16.600   2.099   6.2330  0.00  0.00     0.000 C
ATOM     28   O  BGC B   2      16.366   1.177   5.1810  0.00  0.00     0.000 O
ATOM     30  HD  BGC B   2      15.671   0.995   5.6660  0.00  0.00     0.000 HD
BRANCH 17 30
ATOM     30  O4  BGC B   3      20.296   4.117   4.2750  0.00  0.00     0.000 O
BRANCH 30 34
ATOM     31  C1  BGC B   3      24.214   3.856   5.5020  0.00  0.00     0.000 C
ATOM     32  C2  BGC B   3      23.316   2.726   6.0030  0.00  0.00     0.000 C
ATOM     33  C3  BGC B   3      22.040   2.711   5.1800  0.00  0.00     0.000 C
ATOM     34  C4  BGC B   3      21.365   4.081   5.2260  0.00  0.00     0.000 C
ATOM     35  C5  BGC B   3      22.354   5.171   4.8550  0.00  0.00     0.000 C
ATOM     36  O5  BGC B   3      23.509   5.072   5.6940  0.00  0.00     0.000 O
ATOM     37   O  BGC B   3      23.980   1.477   5.8290  0.00  0.00     0.000 O
ATOM     39  HD  BGC B   3      23.354   1.098   6.2920  0.00  0.00     0.000 HD
ATOM     39   O  BGC B   3      21.179   1.710   5.7020  0.00  0.00     0.000 O
ATOM     41  HD  BGC B   3      20.553   1.331   6.1650  0.00  0.00     0.000 HD
ATOM     41   C  BGC B   3      21.790   6.584   4.9630  0.00  0.00     0.000 C
ATOM     42   O  BGC B   3      21.331   6.824   6.2720  0.00  0.00     0.000 O
ATOM     44  HD  BGC B   3      20.704   6.445   6.7350  0.00  0.00     0.000 HD
BRANCH 31 44
ATOM     44  O4  BGC B   4      25.333   3.905   6.3500  0.00  0.00     0.000 O
BRANCH 44 48
ATOM     45  C1  BGC B   4      29.341   4.763   6.2610  0.00  0.00     0.000 C
ATOM     46  C2  BGC B   4      28.427   5.981   6.2560  0.00  0.00     0.000 C
ATOM     47  C3  BGC B   4      27.039   5.570   6.6820  0.00  0.00     0.000 C
ATOM     48  C4  BGC B   4      26.535   4.416   5.8100  0.00  0.00     0.000 C
ATOM     49  C5  BGC B   4      27.557   3.272   5.7860  0.00  0.00     0.000 C
ATOM     50  O5  BGC B   4      28.834   3.773   5.3640  0.00  0.00     0.000 O
ATOM     51   O  BGC B   4      28.925   6.974   7.1720  0.00  0.00     0.000 O
ATOM     53  HD  BGC B   4      28.284   6.651   7.6560  0.00  0.00     0.000 HD
ATOM     53   O  BGC B   4      26.162   6.697   6.5480  0.00  0.00     0.000 O
ATOM     55  HD  BGC B   4      25.521   6.374   7.0320  0.00  0.00     0.000 HD
ATOM     55   C  BGC B   4      27.198   2.129   4.8540  0.00  0.00     0.000 C
ATOM     56   O  BGC B   4      26.990   2.679   3.5510  0.00  0.00     0.000 O
ATOM     58  HD  BGC B   4      26.349   2.355   4.0350  0.00  0.00     0.000 HD
BRANCH 45 58
ATOM     58  O4  BGC B   5      30.543   5.173   5.6090  0.00  0.00     0.000 O
BRANCH 58 62
ATOM     59  C1  BGC B   5      34.658   4.769   5.8340  0.00  0.00     0.000 C
ATOM     60  C2  BGC B   5      33.917   3.574   5.2680  0.00  0.00     0.000 C
ATOM     61  C3  BGC B   5      32.514   3.968   4.8470  0.00  0.00     0.000 C
ATOM     62  C4  BGC B   5      31.796   4.619   6.0170  0.00  0.00     0.000 C
ATOM     63  C5  BGC B   5      32.634   5.770   6.5940  0.00  0.00     0.000 C
ATOM     64  O5  BGC B   5      33.918   5.269   6.9520  0.00  0.00     0.000 O
ATOM     65   O  BGC B   5      31.868   5.330   8.7660  0.00  0.00     0.000 O
ATOM     67  HD  BGC B   5      31.217   4.947   9.1890  0.00  0.00     0.000 HD
ATOM     67   O  BGC B   5      31.868   5.330   8.7660  0.00  0.00     0.000 O
ATOM     69  HD  BGC B   5      31.217   4.947   9.1890  0.00  0.00     0.000 HD
ENDBRANCH 58 62
ENDBRANCH 45 58
ENDBRANCH 44 48
ENDBRANCH 31 44
ENDBRANCH 30 34
ENDBRANCH 17 30
ENDBRANCH 16 20
ENDBRANCH 1 16
TORSDOF 8
ENDMDL
MODEL 26
REMARK VINA RESULT:      -2.7      7.101     10.699
ROOT
ATOM      1  C1  BGC B   1      11.162   8.427   1.5350  0.00  0.00     0.000 C
ATOM      2  C2  BGC B   1       9.984   8.829   0.6490  0.00  0.00     0.000 C
ATOM      3  C3  BGC B   1       8.849   7.837   0.8100  0.00  0.00     0.000 C
ATOM      4  C4  BGC B   1       9.344   6.412   0.6010  0.00  0.00     0.000 C
ATOM      5  C5  BGC B   1      10.499   6.158   1.5590  0.00  0.00     0.000 C
ATOM      6  O5  BGC B   1      11.543   7.093   1.2310  0.00  0.00     0.000 O
ATOM      7   O  BGC B   1       9.528  10.137   1.0330  0.00  0.00     0.000 O
ATOM      9  HD  BGC B   1       8.696  10.330   0.8920  0.00  0.00     0.000 HD
ATOM      9   O  BGC B   1       7.816   8.160  -0.1260  0.00  0.00     0.000 O
ATOM     11  HD  BGC B   1       6.984   8.353  -0.2660  0.00  0.00     0.000 HD
ATOM     11   O  BGC B   1       8.296   5.503   0.8590  0.00  0.00     0.000 O
ATOM     13  HD  BGC B   1       7.464   5.696   0.7190  0.00  0.00     0.000 HD
ATOM     13   C  BGC B   1      11.076   4.750   1.5040  0.00  0.00     0.000 C
ATOM     14   O  BGC B   1      11.488   4.383   0.1910  0.00  0.00     0.000 O
ATOM     16  HD  BGC B   1      10.655   4.576   0.0510  0.00  0.00     0.000 HD
ENDROOT
BRANCH 1 16
ATOM     16  O4  BGC B   2      12.264   9.233   1.1220  0.00  0.00     0.000 O
BRANCH 16 20
ATOM     17  C1  BGC B   2      15.454  11.290   2.5820  0.00  0.00     0.000 C
ATOM     18  C2  BGC B   2      15.535   9.789   2.8160  0.00  0.00     0.000 C
ATOM     19  C3  BGC B   2      14.501   9.103   1.9270  0.00  0.00     0.000 C
ATOM     20  C4  BGC B   2      13.127   9.696   2.1580  0.00  0.00     0.000 C
ATOM     21  C5  BGC B   2      13.134  11.224   2.1000  0.00  0.00     0.000 C
ATOM     22  O5  BGC B   2      14.140  11.710   2.9960  0.00  0.00     0.000 O
ATOM     23   O  BGC B   2      16.845   9.306   2.4730  0.00  0.00     0.000 O
ATOM     25  HD  BGC B   2      16.076   9.280   2.0750  0.00  0.00     0.000 HD
ATOM     25   O  BGC B   2      14.486   7.705   2.1920  0.00  0.00     0.000 O
ATOM     27  HD  BGC B   2      13.717   7.679   1.7940  0.00  0.00     0.000 HD
ATOM     27   C  BGC B   2      11.804  11.840   2.5160  0.00  0.00     0.000 C
ATOM     28   O  BGC B   2      11.381  11.444   3.8100  0.00  0.00     0.000 O
ATOM     30  HD  BGC B   2      10.612  11.417   3.4120  0.00  0.00     0.000 HD
BRANCH 17 30
ATOM     30  O4  BGC B   3      16.343  11.897   3.5010  0.00  0.00     0.000 O
BRANCH 30 34
ATOM     31  C1  BGC B   3      18.788  15.189   3.8260  0.00  0.00     0.000 C
ATOM     32  C2  BGC B   3      17.304  15.515   3.6600  0.00  0.00     0.000 C
ATOM     33  C3  BGC B   3      16.491  14.266   3.9520  0.00  0.00     0.000 C
ATOM     34  C4  BGC B   3      16.956  13.114   3.0620  0.00  0.00     0.000 C
ATOM     35  C5  BGC B   3      18.461  12.938   3.1670  0.00  0.00     0.000 C
ATOM     36  O5  BGC B   3      19.106  14.183   2.8780  0.00  0.00     0.000 O
ATOM     37   O  BGC B   3      16.931  16.525   4.5960  0.00  0.00     0.000 O
ATOM     39  HD  BGC B   3      16.166  16.590   4.1960  0.00  0.00     0.000 HD
ATOM     39   O  BGC B   3      15.121  14.556   3.7210  0.00  0.00     0.000 O
ATOM     41  HD  BGC B   3      14.356  14.621   3.3210  0.00  0.00     0.000 HD
ATOM     41   C  BGC B   3      19.026  11.867   2.2410  0.00  0.00     0.000 C
ATOM     42   O  BGC B   3      18.702  12.162   0.9030  0.00  0.00     0.000 O
ATOM     44  HD  BGC B   3      17.937  12.227   0.5030  0.00  0.00     0.000 HD
BRANCH 31 44
ATOM     44  O4  BGC B   4      19.509  16.335   3.4500  0.00  0.00     0.000 O
BRANCH 44 48
ATOM     45  C1  BGC B   4      23.113  18.183   4.0840  0.00  0.00     0.000 C
ATOM     46  C2  BGC B   4      23.196  16.867   3.3230  0.00  0.00     0.000 C
ATOM     47  C3  BGC B   4      21.825  16.493   2.8150  0.00  0.00     0.000 C
ATOM     48  C4  BGC B   4      20.816  16.478   3.9670  0.00  0.00     0.000 C
ATOM     49  C5  BGC B   4      20.867  17.799   4.7450  0.00  0.00     0.000 C
ATOM     50  O5  BGC B   4      22.210  18.052   5.1840  0.00  0.00     0.000 O
ATOM     51   O  BGC B   4      24.092  17.001   2.2040  0.00  0.00     0.000 O
ATOM     53  HD  BGC B   4      23.338  17.053   1.7820  0.00  0.00     0.000 HD
ATOM     53   O  BGC B   4      21.895  15.191   2.2150  0.00  0.00     0.000 O
ATOM     55  HD  BGC B   4      21.140  15.244   1.7930  0.00  0.00     0.000 HD
ATOM     55   C  BGC B   4      19.983  17.834   5.9790  0.00  0.00     0.000 C
ATOM     56   O  BGC B   4      20.339  16.722   6.8020  0.00  0.00     0.000 O
ATOM     58  HD  BGC B   4      19.585  16.775   6.3810  0.00  0.00     0.000 HD
BRANCH 45 58
ATOM     58  O4  BGC B   5      24.370  18.334   4.7430  0.00  0.00     0.000 O
BRANCH 58 62
ATOM     59  C1  BGC B   5      27.400  21.092   5.3420  0.00  0.00     0.000 C
ATOM     60  C2  BGC B   5      26.168  21.282   6.2040  0.00  0.00     0.000 C
ATOM     61  C3  BGC B   5      25.325  20.021   6.2140  0.00  0.00     0.000 C
ATOM     62  C4  BGC B   5      25.000  19.616   4.7850  0.00  0.00     0.000 C
ATOM     63  C5  BGC B   5      26.283  19.518   3.9450  0.00  0.00     0.000 C
ATOM     64  O5  BGC B   5      26.975  20.761   4.0160  0.00  0.00     0.000 O
ATOM     65   O  BGC B   5      25.164  20.263   2.0250  0.00  0.00     0.000 O
ATOM     67  HD  BGC B   5      24.369  20.329   1.6870  0.00  0.00     0.000 HD
ATOM     67   O  BGC B   5      25.164  20.263   2.0250  0.00  0.00     0.000 O
ATOM     69  HD  BGC B   5      24.369  20.329   1.6870  0.00  0.00     0.000 HD
ENDBRANCH 58 62
ENDBRANCH 45 58
ENDBRANCH 44 48
ENDBRANCH 31 44
ENDBRANCH 30 34
ENDBRANCH 17 30
ENDBRANCH 16 20
ENDBRANCH 1 16
TORSDOF 8
ENDMDL
MODEL 27
REMARK VINA RESULT:      -2.6      8.062     11.678
ROOT
ATOM      1  C1  BGC B   1      11.857   7.902   2.8160  0.00  0.00     0.000 C
ATOM      2  C2  BGC B   1      10.349   8.082   2.9860  0.00  0.00     0.000 C
ATOM      3  C3  BGC B   1       9.715   6.779   3.4320  0.00  0.00     0.000 C
ATOM      4  C4  BGC B   1      10.119   5.639   2.5050  0.00  0.00     0.000 C
ATOM      5  C5  BGC B   1      11.638   5.576   2.4520  0.00  0.00     0.000 C
ATOM      6  O5  BGC B   1      12.102   6.830   1.9170  0.00  0.00     0.000 O
ATOM      7   O  BGC B   1      10.102   9.092   3.9790  0.00  0.00     0.000 O
ATOM      9  HD  BGC B   1       9.363   9.044   4.4270  0.00  0.00     0.000 HD
ATOM      9   O  BGC B   1       8.294   6.939   3.4540  0.00  0.00     0.000 O
ATOM     11  HD  BGC B   1       7.554   6.891   3.9020  0.00  0.00     0.000 HD
ATOM     11   O  BGC B   1       9.605   4.421   3.0000  0.00  0.00     0.000 O
ATOM     13  HD  BGC B   1       8.865   4.373   3.4480  0.00  0.00     0.000 HD
ATOM     13   C  BGC B   1      12.201   4.449   1.5980  0.00  0.00     0.000 C
ATOM     14   O  BGC B   1      11.702   4.477   0.2650  0.00  0.00     0.000 O
ATOM     16  HD  BGC B   1      10.962   4.429   0.7120  0.00  0.00     0.000 HD
ENDROOT
BRANCH 1 16
ATOM     16  O4  BGC B   2      12.323   9.068   2.1410  0.00  0.00     0.000 O
BRANCH 16 20
ATOM     17  C1  BGC B   2      15.526  11.571   2.0160  0.00  0.00     0.000 C
ATOM     18  C2  BGC B   2      15.703  10.310   1.1830  0.00  0.00     0.000 C
ATOM     19  C3  BGC B   2      14.338   9.648   1.0110  0.00  0.00     0.000 C
ATOM     20  C4  BGC B   2      13.688   9.417   2.3600  0.00  0.00     0.000 C
ATOM     21  C5  BGC B   2      13.705  10.669   3.2370  0.00  0.00     0.000 C
ATOM     22  O5  BGC B   2      15.051  11.156   3.3110  0.00  0.00     0.000 O
ATOM     23   O  BGC B   2      16.229  10.644  -0.1120  0.00  0.00     0.000 O
ATOM     25  HD  BGC B   2      15.439  10.436   0.1750  0.00  0.00     0.000 HD
ATOM     25   O  BGC B   2      14.482   8.414   0.3160  0.00  0.00     0.000 O
ATOM     27  HD  BGC B   2      13.692   8.206   0.6040  0.00  0.00     0.000 HD
ATOM     27   C  BGC B   2      13.229  10.405   4.6600  0.00  0.00     0.000 C
ATOM     28   O  BGC B   2      13.964   9.386   5.3190  0.00  0.00     0.000 O
ATOM     30  HD  BGC B   2      13.174   9.178   5.6060  0.00  0.00     0.000 HD
BRANCH 17 30
ATOM     30  O4  BGC B   3      16.821  12.093   2.2480  0.00  0.00     0.000 O
BRANCH 30 34
ATOM     31  C1  BGC B   3      18.714  15.712   2.7420  0.00  0.00     0.000 C
ATOM     32  C2  BGC B   3      17.835  15.290   3.9180  0.00  0.00     0.000 C
ATOM     33  C3  BGC B   3      17.528  13.808   3.7960  0.00  0.00     0.000 C
ATOM     34  C4  BGC B   3      16.896  13.510   2.4370  0.00  0.00     0.000 C
ATOM     35  C5  BGC B   3      17.751  14.082   1.3190  0.00  0.00     0.000 C
ATOM     36  O5  BGC B   3      17.973  15.476   1.5560  0.00  0.00     0.000 O
ATOM     37   O  BGC B   3      18.538  15.506   5.1400  0.00  0.00     0.000 O
ATOM     39  HD  BGC B   3      17.807  15.336   5.5720  0.00  0.00     0.000 HD
ATOM     39   O  BGC B   3      16.648  13.442   4.8480  0.00  0.00     0.000 O
ATOM     41  HD  BGC B   3      15.917  13.272   5.2800  0.00  0.00     0.000 HD
ATOM     41   C  BGC B   3      17.150  13.910  -0.0710  0.00  0.00     0.000 C
ATOM     42   O  BGC B   3      15.878  14.512  -0.1270  0.00  0.00     0.000 O
ATOM     44  HD  BGC B   3      15.147  14.342   0.3040  0.00  0.00     0.000 HD
BRANCH 31 44
ATOM     44  O4  BGC B   4      18.891  17.102   2.8330  0.00  0.00     0.000 O
BRANCH 44 48
ATOM     45  C1  BGC B   4      21.636  20.019   1.9610  0.00  0.00     0.000 C
ATOM     46  C2  BGC B   4      20.906  19.449   0.7530  0.00  0.00     0.000 C
ATOM     47  C3  BGC B   4      19.680  18.700   1.2140  0.00  0.00     0.000 C
ATOM     48  C4  BGC B   4      20.062  17.647   2.2600  0.00  0.00     0.000 C
ATOM     49  C5  BGC B   4      20.881  18.282   3.3900  0.00  0.00     0.000 C
ATOM     50  O5  BGC B   4      22.020  18.961   2.8410  0.00  0.00     0.000 O
ATOM     51   O  BGC B   4      20.503  20.514  -0.1270  0.00  0.00     0.000 O
ATOM     53  HD  BGC B   4      19.741  20.354   0.2520  0.00  0.00     0.000 HD
ATOM     53   O  BGC B   4      19.077  18.059   0.0810  0.00  0.00     0.000 O
ATOM     55  HD  BGC B   4      18.315  17.899   0.4600  0.00  0.00     0.000 HD
ATOM     55   C  BGC B   4      21.405  17.295   4.4170  0.00  0.00     0.000 C
ATOM     56   O  BGC B   4      22.153  16.297   3.7190  0.00  0.00     0.000 O
ATOM     58  HD  BGC B   4      21.391  16.137   4.0990  0.00  0.00     0.000 HD
BRANCH 45 58
ATOM     58  O4  BGC B   5      22.897  20.479   1.4750  0.00  0.00     0.000 O
BRANCH 58 62
ATOM     59  C1  BGC B   5      25.899  23.160   2.4490  0.00  0.00     0.000 C
ATOM     60  C2  BGC B   5      26.056  21.769   3.0290  0.00  0.00     0.000 C
ATOM     61  C3  BGC B   5      25.168  20.783   2.2950  0.00  0.00     0.000 C
ATOM     62  C4  BGC B   5      23.732  21.281   2.3140  0.00  0.00     0.000 C
ATOM     63  C5  BGC B   5      23.652  22.722   1.7900  0.00  0.00     0.000 C
ATOM     64  O5  BGC B   5      24.524  23.541   2.5620  0.00  0.00     0.000 O
ATOM     65   O  BGC B   5      21.894  23.230   3.2560  0.00  0.00     0.000 O
ATOM     67  HD  BGC B   5      21.272  22.851   3.7240  0.00  0.00     0.000 HD
ATOM     67   O  BGC B   5      21.894  23.230   3.2560  0.00  0.00     0.000 O
ATOM     69  HD  BGC B   5      21.272  22.851   3.7240  0.00  0.00     0.000 HD
ENDBRANCH 58 62
ENDBRANCH 45 58
ENDBRANCH 44 48
ENDBRANCH 31 44
ENDBRANCH 30 34
ENDBRANCH 17 30
ENDBRANCH 16 20
ENDBRANCH 1 16
TORSDOF 8
ENDMDL
MODEL 28
REMARK VINA RESULT:      -2.5      1.897     14.480
ROOT
ATOM      1  C1  BGC B   1      19.384   8.237   4.4500  0.00  0.00     0.000 C
ATOM      2  C2  BGC B   1      20.460   8.638   5.4580  0.00  0.00     0.000 C
ATOM      3  C3  BGC B   1      21.731   9.035   4.7320  0.00  0.00     0.000 C
ATOM      4  C4  BGC B   1      22.153   7.949   3.7510  0.00  0.00     0.000 C
ATOM      5  C5  BGC B   1      20.990   7.672   2.8090  0.00  0.00     0.000 C
ATOM      6  O5  BGC B   1      19.888   7.208   3.6110  0.00  0.00     0.000 O
ATOM      7   O  BGC B   1      19.989   9.753   6.2330  0.00  0.00     0.000 O
ATOM      9  HD  BGC B   1      20.581  10.295   6.5590  0.00  0.00     0.000 HD
ATOM      9   O  BGC B   1      22.758   9.276   5.6980  0.00  0.00     0.000 O
ATOM     11  HD  BGC B   1      23.350   9.818   6.0240  0.00  0.00     0.000 HD
ATOM     11   O  BGC B   1      23.274   8.386   3.0140  0.00  0.00     0.000 O
ATOM     13  HD  BGC B   1      23.866   8.927   3.3400  0.00  0.00     0.000 HD
ATOM     13   C  BGC B   1      21.274   6.637   1.7300  0.00  0.00     0.000 C
ATOM     14   O  BGC B   1      21.722   5.398   2.2720  0.00  0.00     0.000 O
ATOM     16  HD  BGC B   1      22.314   5.940   2.5980  0.00  0.00     0.000 HD
ENDROOT
BRANCH 1 16
ATOM     16  O4  BGC B   2      18.340   7.624   5.2050  0.00  0.00     0.000 O
BRANCH 16 20
ATOM     17  C1  BGC B   2      14.460   6.492   4.7590  0.00  0.00     0.000 C
ATOM     18  C2  BGC B   2      15.458   5.384   4.4570  0.00  0.00     0.000 C
ATOM     19  C3  BGC B   2      16.823   5.800   5.0010  0.00  0.00     0.000 C
ATOM     20  C4  BGC B   2      17.217   7.159   4.4600  0.00  0.00     0.000 C
ATOM     21  C5  BGC B   2      16.103   8.195   4.6180  0.00  0.00     0.000 C
ATOM     22  O5  BGC B   2      14.901   7.662   4.0460  0.00  0.00     0.000 O
ATOM     23   O  BGC B   2      15.050   4.163   5.0960  0.00  0.00     0.000 O
ATOM     25  HD  BGC B   2      15.650   4.760   5.2780  0.00  0.00     0.000 HD
ATOM     25   O  BGC B   2      17.801   4.828   4.6500  0.00  0.00     0.000 O
ATOM     27  HD  BGC B   2      18.401   5.425   4.8330  0.00  0.00     0.000 HD
ATOM     27   C  BGC B   2      16.409   9.509   3.9120  0.00  0.00     0.000 C
ATOM     28   O  BGC B   2      16.684   9.355   2.5290  0.00  0.00     0.000 O
ATOM     30  HD  BGC B   2      17.285   9.951   2.7120  0.00  0.00     0.000 HD
BRANCH 17 30
ATOM     30  O4  BGC B   3      13.240   6.123   4.1440  0.00  0.00     0.000 O
BRANCH 30 34
ATOM     31  C1  BGC B   3       9.182   6.394   4.7610  0.00  0.00     0.000 C
ATOM     32  C2  BGC B   3       9.889   7.738   4.5900  0.00  0.00     0.000 C
ATOM     33  C3  BGC B   3      11.260   7.498   3.9840  0.00  0.00     0.000 C
ATOM     34  C4  BGC B   3      12.050   6.508   4.8400  0.00  0.00     0.000 C
ATOM     35  C5  BGC B   3      11.231   5.254   5.0890  0.00  0.00     0.000 C
ATOM     36  O5  BGC B   3       9.966   5.615   5.6510  0.00  0.00     0.000 O
ATOM     37   O  BGC B   3       9.139   8.560   3.6990  0.00  0.00     0.000 O
ATOM     39  HD  BGC B   3       9.655   9.225   3.9040  0.00  0.00     0.000 HD
ATOM     39   O  BGC B   3      11.939   8.742   3.9010  0.00  0.00     0.000 O
ATOM     41  HD  BGC B   3      12.455   9.406   4.1060  0.00  0.00     0.000 HD
ATOM     41   C  BGC B   3      11.907   4.246   6.0120  0.00  0.00     0.000 C
ATOM     42   O  BGC B   3      12.199   4.844   7.2530  0.00  0.00     0.000 O
ATOM     44  HD  BGC B   3      12.715   5.509   7.4580  0.00  0.00     0.000 HD
BRANCH 31 44
ATOM     44  O4  BGC B   4       7.965   6.645   5.4160  0.00  0.00     0.000 O
BRANCH 44 48
ATOM     45  C1  BGC B   4       4.349   4.870   4.6520  0.00  0.00     0.000 C
ATOM     46  C2  BGC B   4       4.682   5.030   6.1290  0.00  0.00     0.000 C
ATOM     47  C3  BGC B   4       5.809   6.021   6.2860  0.00  0.00     0.000 C
ATOM     48  C4  BGC B   4       7.005   5.607   5.4240  0.00  0.00     0.000 C
ATOM     49  C5  BGC B   4       6.567   5.368   3.9730  0.00  0.00     0.000 C
ATOM     50  O5  BGC B   4       5.499   4.409   3.9420  0.00  0.00     0.000 O
ATOM     51   O  BGC B   4       3.529   5.511   6.8450  0.00  0.00     0.000 O
ATOM     53  HD  BGC B   4       3.976   6.251   6.7930  0.00  0.00     0.000 HD
ATOM     53   O  BGC B   4       6.198   6.063   7.6660  0.00  0.00     0.000 O
ATOM     55  HD  BGC B   4       6.646   6.802   7.6140  0.00  0.00     0.000 HD
ATOM     55   C  BGC B   4       7.664   4.841   3.0650  0.00  0.00     0.000 C
ATOM     56   O  BGC B   4       8.189   3.653   3.6610  0.00  0.00     0.000 O
ATOM     58  HD  BGC B   4       8.637   4.393   3.6090  0.00  0.00     0.000 HD
BRANCH 45 58
ATOM     58  O4  BGC B   5       3.472   3.747   4.5680  0.00  0.00     0.000 O
BRANCH 58 62
ATOM     59  C1  BGC B   5       1.434   1.423   1.8130  0.00  0.00     0.000 C
ATOM     60  C2  BGC B   5       2.918   1.139   1.9320  0.00  0.00     0.000 C
ATOM     61  C3  BGC B   5       3.470   1.722   3.2180  0.00  0.00     0.000 C
ATOM     62  C4  BGC B   5       3.136   3.204   3.2890  0.00  0.00     0.000 C
ATOM     63  C5  BGC B   5       1.631   3.429   3.0820  0.00  0.00     0.000 C
ATOM     64  O5  BGC B   5       1.243   2.841   1.8450  0.00  0.00     0.000 O
ATOM     65   O  BGC B   5       2.017   5.463   1.9830  0.00  0.00     0.000 O
ATOM     67  HD  BGC B   5       2.615   6.084   1.8980  0.00  0.00     0.000 HD
ATOM     67   O  BGC B   5       2.017   5.463   1.9830  0.00  0.00     0.000 O
ATOM     69  HD  BGC B   5       2.615   6.084   1.8980  0.00  0.00     0.000 HD
ENDBRANCH 58 62
ENDBRANCH 45 58
ENDBRANCH 44 48
ENDBRANCH 31 44
ENDBRANCH 30 34
ENDBRANCH 17 30
ENDBRANCH 16 20
ENDBRANCH 1 16
TORSDOF 8
ENDMDL
MODEL 29
REMARK VINA RESULT:      -2.5      6.356     10.643
ROOT
ATOM      1  C1  BGC B   1      12.307   6.507   3.4240  0.00  0.00     0.000 C
ATOM      2  C2  BGC B   1      11.869   5.978   4.7890  0.00  0.00     0.000 C
ATOM      3  C3  BGC B   1      10.980   4.762   4.6150  0.00  0.00     0.000 C
ATOM      4  C4  BGC B   1       9.837   5.063   3.6540  0.00  0.00     0.000 C
ATOM      5  C5  BGC B   1      10.428   5.562   2.3430  0.00  0.00     0.000 C
ATOM      6  O5  BGC B   1      11.157   6.769   2.6330  0.00  0.00     0.000 O
ATOM      7   O  BGC B   1      13.033   5.609   5.5480  0.00  0.00     0.000 O
ATOM      9  HD  BGC B   1      12.943   4.987   6.1450  0.00  0.00     0.000 HD
ATOM      9   O  BGC B   1      10.479   4.368   5.8960  0.00  0.00     0.000 O
ATOM     11  HD  BGC B   1      10.389   3.747   6.4930  0.00  0.00     0.000 HD
ATOM     11   O  BGC B   1       9.088   3.889   3.4270  0.00  0.00     0.000 O
ATOM     13  HD  BGC B   1       8.998   3.268   4.0230  0.00  0.00     0.000 HD
ATOM     13   C  BGC B   1       9.407   5.862   1.2550  0.00  0.00     0.000 C
ATOM     14   O  BGC B   1       8.413   6.786   1.6850  0.00  0.00     0.000 O
ATOM     16  HD  BGC B   1       8.323   6.165   2.2820  0.00  0.00     0.000 HD
ENDROOT
BRANCH 1 16
ATOM     16  O4  BGC B   2      12.894   7.785   3.6630  0.00  0.00     0.000 O
BRANCH 16 20
ATOM     17  C1  BGC B   2      15.840  10.242   2.3140  0.00  0.00     0.000 C
ATOM     18  C2  BGC B   2      14.633  10.170   1.3900  0.00  0.00     0.000 C
ATOM     19  C3  BGC B   2      13.475   9.533   2.1540  0.00  0.00     0.000 C
ATOM     20  C4  BGC B   2      13.895   8.199   2.7360  0.00  0.00     0.000 C
ATOM     21  C5  BGC B   2      15.217   8.287   3.5000  0.00  0.00     0.000 C
ATOM     22  O5  BGC B   2      16.198   8.888   2.6450  0.00  0.00     0.000 O
ATOM     23   O  BGC B   2      14.251  11.491   0.9720  0.00  0.00     0.000 O
ATOM     25  HD  BGC B   2      13.934  10.935   1.5550  0.00  0.00     0.000 HD
ATOM     25   O  BGC B   2      12.359   9.363   1.2880  0.00  0.00     0.000 O
ATOM     27  HD  BGC B   2      12.042   8.807   1.8710  0.00  0.00     0.000 HD
ATOM     27   C  BGC B   2      15.747   6.924   3.9280  0.00  0.00     0.000 C
ATOM     28   O  BGC B   2      15.913   6.020   2.8480  0.00  0.00     0.000 O
ATOM     30  HD  BGC B   2      15.596   5.464   3.4310  0.00  0.00     0.000 HD
BRANCH 17 30
ATOM     30  O4  BGC B   3      16.919  10.731   1.5400  0.00  0.00     0.000 O
BRANCH 30 34
ATOM     31  C1  BGC B   3      20.349  12.962   1.9720  0.00  0.00     0.000 C
ATOM     32  C2  BGC B   3      20.240  11.774   2.9280  0.00  0.00     0.000 C
ATOM     33  C3  BGC B   3      19.169  10.827   2.4150  0.00  0.00     0.000 C
ATOM     34  C4  BGC B   3      17.848  11.573   2.2300  0.00  0.00     0.000 C
ATOM     35  C5  BGC B   3      18.058  12.820   1.3890  0.00  0.00     0.000 C
ATOM     36  O5  BGC B   3      19.092  13.620   1.9720  0.00  0.00     0.000 O
ATOM     37   O  BGC B   3      21.482  11.075   2.9620  0.00  0.00     0.000 O
ATOM     39  HD  BGC B   3      21.182  10.607   3.6260  0.00  0.00     0.000 HD
ATOM     39   O  BGC B   3      19.021   9.768   3.3480  0.00  0.00     0.000 O
ATOM     41  HD  BGC B   3      18.720   9.300   4.0120  0.00  0.00     0.000 HD
ATOM     41   C  BGC B   3      16.808  13.677   1.2290  0.00  0.00     0.000 C
ATOM     42   O  BGC B   3      16.321  14.066   2.4920  0.00  0.00     0.000 O
ATOM     44  HD  BGC B   3      16.021  13.598   3.1560  0.00  0.00     0.000 HD
BRANCH 31 44
ATOM     44  O4  BGC B   4      21.271  13.862   2.5310  0.00  0.00     0.000 O
BRANCH 44 48
ATOM     45  C1  BGC B   4      24.085  16.628   1.4200  0.00  0.00     0.000 C
ATOM     46  C2  BGC B   4      22.642  17.073   1.2280  0.00  0.00     0.000 C
ATOM     47  C3  BGC B   4      21.727  16.168   2.0160  0.00  0.00     0.000 C
ATOM     48  C4  BGC B   4      21.977  14.704   1.6430  0.00  0.00     0.000 C
ATOM     49  C5  BGC B   4      23.468  14.364   1.7650  0.00  0.00     0.000 C
ATOM     50  O5  BGC B   4      24.240  15.280   0.9750  0.00  0.00     0.000 O
ATOM     51   O  BGC B   4      22.477  18.427   1.6910  0.00  0.00     0.000 O
ATOM     53  HD  BGC B   4      22.127  18.009   2.3630  0.00  0.00     0.000 HD
ATOM     53   O  BGC B   4      20.366  16.517   1.7220  0.00  0.00     0.000 O
ATOM     55  HD  BGC B   4      20.016  16.098   2.3940  0.00  0.00     0.000 HD
ATOM     55   C  BGC B   4      23.832  12.964   1.3050  0.00  0.00     0.000 C
ATOM     56   O  BGC B   4      23.364  12.811  -0.0370  0.00  0.00     0.000 O
ATOM     58  HD  BGC B   4      23.014  12.393   0.6360  0.00  0.00     0.000 HD
BRANCH 45 58
ATOM     58  O4  BGC B   5      24.849  17.354   0.4570  0.00  0.00     0.000 O
BRANCH 58 62
ATOM     59  C1  BGC B   5      28.288  19.631   0.0910  0.00  0.00     0.000 C
ATOM     60  C2  BGC B   5      28.506  18.135   0.1840  0.00  0.00     0.000 C
ATOM     61  C3  BGC B   5      27.217  17.389  -0.1040  0.00  0.00     0.000 C
ATOM     62  C4  BGC B   5      26.121  17.894   0.8220  0.00  0.00     0.000 C
ATOM     63  C5  BGC B   5      26.005  19.423   0.7400  0.00  0.00     0.000 C
ATOM     64  O5  BGC B   5      27.275  19.997   1.0330  0.00  0.00     0.000 O
ATOM     65   O  BGC B   5      25.427  19.569   3.0070  0.00  0.00     0.000 O
ATOM     67  HD  BGC B   5      25.104  19.093   3.6550  0.00  0.00     0.000 HD
ATOM     67   O  BGC B   5      25.427  19.569   3.0070  0.00  0.00     0.000 O
ATOM     69  HD  BGC B   5      25.104  19.093   3.6550  0.00  0.00     0.000 HD
ENDBRANCH 58 62
ENDBRANCH 45 58
ENDBRANCH 44 48
ENDBRANCH 31 44
ENDBRANCH 30 34
ENDBRANCH 17 30
ENDBRANCH 16 20
ENDBRANCH 1 16
TORSDOF 8
ENDMDL
MODEL 30
REMARK VINA RESULT:      -2.5      4.797      6.896
ROOT
ATOM      1  C1  BGC B   1       9.079   6.245   9.2600  0.00  0.00     0.000 C
ATOM      2  C2  BGC B   1       7.837   5.579   8.6710  0.00  0.00     0.000 C
ATOM      3  C3  BGC B   1       6.587   6.147   9.3150  0.00  0.00     0.000 C
ATOM      4  C4  BGC B   1       6.685   6.081  10.8340  0.00  0.00     0.000 C
ATOM      5  C5  BGC B   1       7.957   6.795  11.2670  0.00  0.00     0.000 C
ATOM      6  O5  BGC B   1       9.066   6.097  10.6720  0.00  0.00     0.000 O
ATOM      7   O  BGC B   1       7.794   5.825   7.2560  0.00  0.00     0.000 O
ATOM      9  HD  BGC B   1       7.017   5.837   6.8730  0.00  0.00     0.000 HD
ATOM      9   O  BGC B   1       5.451   5.416   8.8450  0.00  0.00     0.000 O
ATOM     11  HD  BGC B   1       4.674   5.428   8.4620  0.00  0.00     0.000 HD
ATOM     11   O  BGC B   1       5.560   6.709  11.4090  0.00  0.00     0.000 O
ATOM     13  HD  BGC B   1       4.784   6.721  11.0260  0.00  0.00     0.000 HD
ATOM     13   C  BGC B   1       8.174   6.857  12.7720  0.00  0.00     0.000 C
ATOM     14   O  BGC B   1       8.151   5.568  13.3760  0.00  0.00     0.000 O
ATOM     16  HD  BGC B   1       7.374   5.580  12.9940  0.00  0.00     0.000 HD
ENDROOT
BRANCH 1 16
ATOM     16  O4  BGC B   2      10.193   5.474   8.8150  0.00  0.00     0.000 O
BRANCH 16 20
ATOM     17  C1  BGC B   2      14.071   5.849   7.6490  0.00  0.00     0.000 C
ATOM     18  C2  BGC B   2      13.864   6.014   9.1480  0.00  0.00     0.000 C
ATOM     19  C3  BGC B   2      12.472   5.499   9.5050  0.00  0.00     0.000 C
ATOM     20  C4  BGC B   2      11.421   6.179   8.6520  0.00  0.00     0.000 C
ATOM     21  C5  BGC B   2      11.771   6.152   7.1630  0.00  0.00     0.000 C
ATOM     22  O5  BGC B   2      13.093   6.680   6.9960  0.00  0.00     0.000 O
ATOM     23   O  BGC B   2      14.847   5.252   9.8680  0.00  0.00     0.000 O
ATOM     25  HD  BGC B   2      14.009   5.127   9.6890  0.00  0.00     0.000 HD
ATOM     25   O  BGC B   2      12.210   5.727  10.8840  0.00  0.00     0.000 O
ATOM     27  HD  BGC B   2      11.372   5.602  10.7050  0.00  0.00     0.000 HD
ATOM     27   C  BGC B   2      10.825   6.993   6.3150  0.00  0.00     0.000 C
ATOM     28   O  BGC B   2      10.748   8.346   6.7330  0.00  0.00     0.000 O
ATOM     30  HD  BGC B   2       9.910   8.221   6.5530  0.00  0.00     0.000 HD
BRANCH 17 30
ATOM     30  O4  BGC B   3      15.320   6.439   7.3410  0.00  0.00     0.000 O
BRANCH 30 34
ATOM     31  C1  BGC B   3      18.430   6.014   4.6810  0.00  0.00     0.000 C
ATOM     32  C2  BGC B   3      17.148   6.582   4.0730  0.00  0.00     0.000 C
ATOM     33  C3  BGC B   3      16.241   7.057   5.1950  0.00  0.00     0.000 C
ATOM     34  C4  BGC B   3      15.984   5.921   6.1840  0.00  0.00     0.000 C
ATOM     35  C5  BGC B   3      17.297   5.308   6.6370  0.00  0.00     0.000 C
ATOM     36  O5  BGC B   3      18.058   4.911   5.4920  0.00  0.00     0.000 O
ATOM     37   O  BGC B   3      17.468   7.700   3.2470  0.00  0.00     0.000 O
ATOM     39  HD  BGC B   3      16.650   7.703   2.9630  0.00  0.00     0.000 HD
ATOM     39   O  BGC B   3      15.022   7.512   4.6260  0.00  0.00     0.000 O
ATOM     41  HD  BGC B   3      14.204   7.515   4.3410  0.00  0.00     0.000 HD
ATOM     41   C  BGC B   3      17.134   4.104   7.5580  0.00  0.00     0.000 C
ATOM     42   O  BGC B   3      16.371   3.106   6.9210  0.00  0.00     0.000 O
ATOM     44  HD  BGC B   3      15.553   3.109   6.6370  0.00  0.00     0.000 HD
BRANCH 31 44
ATOM     44  O4  BGC B   4      19.195   5.494   3.6240  0.00  0.00     0.000 O
BRANCH 44 48
ATOM     45  C1  BGC B   4      23.093   4.964   2.4700  0.00  0.00     0.000 C
ATOM     46  C2  BGC B   4      22.675   4.161   3.6940  0.00  0.00     0.000 C
ATOM     47  C3  BGC B   4      21.169   4.126   3.7820  0.00  0.00     0.000 C
ATOM     48  C4  BGC B   4      20.601   5.548   3.7530  0.00  0.00     0.000 C
ATOM     49  C5  BGC B   4      21.149   6.322   2.5480  0.00  0.00     0.000 C
ATOM     50  O5  BGC B   4      22.584   6.296   2.5660  0.00  0.00     0.000 O
ATOM     51   O  BGC B   4      23.172   2.813   3.5920  0.00  0.00     0.000 O
ATOM     53  HD  BGC B   4      22.346   2.672   3.3720  0.00  0.00     0.000 HD
ATOM     53   O  BGC B   4      20.794   3.480   5.0070  0.00  0.00     0.000 O
ATOM     55  HD  BGC B   4      19.968   3.338   4.7880  0.00  0.00     0.000 HD
ATOM     55   C  BGC B   4      20.733   7.782   2.4980  0.00  0.00     0.000 C
ATOM     56   O  BGC B   4      21.118   8.387   3.7330  0.00  0.00     0.000 O
ATOM     58  HD  BGC B   4      20.292   8.246   3.5140  0.00  0.00     0.000 HD
BRANCH 45 58
ATOM     58  O4  BGC B   5      24.499   5.169   2.5980  0.00  0.00     0.000 O
BRANCH 58 62
ATOM     59  C1  BGC B   5      27.932   4.792   0.3120  0.00  0.00     0.000 C
ATOM     60  C2  BGC B   5      27.346   6.188   0.3790  0.00  0.00     0.000 C
ATOM     61  C3  BGC B   5      26.375   6.302   1.5390  0.00  0.00     0.000 C
ATOM     62  C4  BGC B   5      25.320   5.214   1.4280  0.00  0.00     0.000 C
ATOM     63  C5  BGC B   5      25.979   3.834   1.2830  0.00  0.00     0.000 C
ATOM     64  O5  BGC B   5      26.857   3.859   0.1630  0.00  0.00     0.000 O
ATOM     65   O  BGC B   5      24.247   3.077  -0.1050  0.00  0.00     0.000 O
ATOM     67  HD  BGC B   5      23.422   3.242  -0.3080  0.00  0.00     0.000 HD
ATOM     67   O  BGC B   5      24.247   3.077  -0.1050  0.00  0.00     0.000 O
ATOM     69  HD  BGC B   5      23.422   3.242  -0.3080  0.00  0.00     0.000 HD
ENDBRANCH 58 62
ENDBRANCH 45 58
ENDBRANCH 44 48
ENDBRANCH 31 44
ENDBRANCH 30 34
ENDBRANCH 17 30
ENDBRANCH 16 20
ENDBRANCH 1 16
TORSDOF 8
ENDMDL
MODEL 31
REMARK VINA RESULT:      -2.5      5.510     10.039
ROOT
ATOM      1  C1  BGC B   1      12.758   4.663   4.4610  0.00  0.00     0.000 C
ATOM      2  C2  BGC B   1      11.527   4.490   5.3500  0.00  0.00     0.000 C
ATOM      3  C3  BGC B   1      10.833   3.180   5.0290  0.00  0.00     0.000 C
ATOM      4  C4  BGC B   1      10.558   3.068   3.5350  0.00  0.00     0.000 C
ATOM      5  C5  BGC B   1      11.872   3.245   2.7890  0.00  0.00     0.000 C
ATOM      6  O5  BGC B   1      12.369   4.560   3.0990  0.00  0.00     0.000 O
ATOM      7   O  BGC B   1      11.936   4.483   6.7280  0.00  0.00     0.000 O
ATOM      9  HD  BGC B   1      11.444   4.048   7.2920  0.00  0.00     0.000 HD
ATOM      9   O  BGC B   1       9.616   3.107   5.7780  0.00  0.00     0.000 O
ATOM     11  HD  BGC B   1       9.124   2.671   6.3420  0.00  0.00     0.000 HD
ATOM     11   O  BGC B   1      10.009   1.800   3.2480  0.00  0.00     0.000 O
ATOM     13  HD  BGC B   1       9.517   1.365   3.8120  0.00  0.00     0.000 HD
ATOM     13   C  BGC B   1      11.771   3.110   1.2760  0.00  0.00     0.000 C
ATOM     14   O  BGC B   1      10.809   3.998   0.7160  0.00  0.00     0.000 O
ATOM     16  HD  BGC B   1      10.317   3.563   1.2800  0.00  0.00     0.000 HD
ENDROOT
BRANCH 1 16
ATOM     16  O4  BGC B   2      13.181   6.015   4.6270  0.00  0.00     0.000 O
BRANCH 16 20
ATOM     17  C1  BGC B   2      16.536   8.302   4.8460  0.00  0.00     0.000 C
ATOM     18  C2  BGC B   2      16.225   7.806   3.4420  0.00  0.00     0.000 C
ATOM     19  C3  BGC B   2      14.789   7.288   3.4170  0.00  0.00     0.000 C
ATOM     20  C4  BGC B   2      14.581   6.253   4.5040  0.00  0.00     0.000 C
ATOM     21  C5  BGC B   2      15.085   6.730   5.8670  0.00  0.00     0.000 C
ATOM     22  O5  BGC B   2      16.443   7.165   5.7240  0.00  0.00     0.000 O
ATOM     23   O  BGC B   2      16.353   8.882   2.4980  0.00  0.00     0.000 O
ATOM     25  HD  BGC B   2      15.675   8.491   2.8690  0.00  0.00     0.000 HD
ATOM     25   O  BGC B   2      14.498   6.728   2.1420  0.00  0.00     0.000 O
ATOM     27  HD  BGC B   2      13.820   6.337   2.5130  0.00  0.00     0.000 HD
ATOM     27   C  BGC B   2      15.057   5.637   6.9270  0.00  0.00     0.000 C
ATOM     28   O  BGC B   2      15.789   4.478   6.5590  0.00  0.00     0.000 O
ATOM     30  HD  BGC B   2      15.111   4.088   6.9310  0.00  0.00     0.000 HD
BRANCH 17 30
ATOM     30  O4  BGC B   3      17.903   8.668   4.8580  0.00  0.00     0.000 O
BRANCH 30 34
ATOM     31  C1  BGC B   3      20.422  11.400   6.6230  0.00  0.00     0.000 C
ATOM     32  C2  BGC B   3      19.859  10.347   7.5770  0.00  0.00     0.000 C
ATOM     33  C3  BGC B   3      19.293   9.198   6.7620  0.00  0.00     0.000 C
ATOM     34  C4  BGC B   3      18.259   9.717   5.7640  0.00  0.00     0.000 C
ATOM     35  C5  BGC B   3      18.840  10.858   4.9470  0.00  0.00     0.000 C
ATOM     36  O5  BGC B   3      19.343  11.867   5.8280  0.00  0.00     0.000 O
ATOM     37   O  BGC B   3      20.908   9.842   8.4010  0.00  0.00     0.000 O
ATOM     39  HD  BGC B   3      20.314   9.428   8.8760  0.00  0.00     0.000 HD
ATOM     39   O  BGC B   3      18.704   8.261   7.6520  0.00  0.00     0.000 O
ATOM     41  HD  BGC B   3      18.110   7.848   8.1270  0.00  0.00     0.000 HD
ATOM     41   C  BGC B   3      17.846  11.500   3.9850  0.00  0.00     0.000 C
ATOM     42   O  BGC B   3      16.727  11.980   4.6930  0.00  0.00     0.000 O
ATOM     44  HD  BGC B   3      16.133  11.567   5.1680  0.00  0.00     0.000 HD
BRANCH 31 44
ATOM     44  O4  BGC B   4      20.841  12.488   7.4060  0.00  0.00     0.000 O
BRANCH 44 48
ATOM     45  C1  BGC B   4      23.686  15.439   7.4740  0.00  0.00     0.000 C
ATOM     46  C2  BGC B   4      22.552  15.668   6.4840  0.00  0.00     0.000 C
ATOM     47  C3  BGC B   4      21.399  14.755   6.8200  0.00  0.00     0.000 C
ATOM     48  C4  BGC B   4      21.875  13.300   6.8890  0.00  0.00     0.000 C
ATOM     49  C5  BGC B   4      23.081  13.172   7.8270  0.00  0.00     0.000 C
ATOM     50  O5  BGC B   4      24.115  14.078   7.4140  0.00  0.00     0.000 O
ATOM     51   O  BGC B   4      22.105  17.035   6.5540  0.00  0.00     0.000 O
ATOM     53  HD  BGC B   4      21.468  16.660   7.0050  0.00  0.00     0.000 HD
ATOM     53   O  BGC B   4      20.393  14.888   5.8050  0.00  0.00     0.000 O
ATOM     55  HD  BGC B   4      19.757  14.512   6.2560  0.00  0.00     0.000 HD
ATOM     55   C  BGC B   4      23.698  11.785   7.8710  0.00  0.00     0.000 C
ATOM     56   O  BGC B   4      24.028  11.413   6.5310  0.00  0.00     0.000 O
ATOM     58  HD  BGC B   4      23.392  11.038   6.9820  0.00  0.00     0.000 HD
BRANCH 45 58
ATOM     58  O4  BGC B   5      24.813  16.135   6.9440  0.00  0.00     0.000 O
BRANCH 58 62
ATOM     59  C1  BGC B   5      28.744  17.062   7.8590  0.00  0.00     0.000 C
ATOM     60  C2  BGC B   5      28.526  15.698   7.2380  0.00  0.00     0.000 C
ATOM     61  C3  BGC B   5      27.164  15.626   6.5730  0.00  0.00     0.000 C
ATOM     62  C4  BGC B   5      26.088  16.007   7.5780  0.00  0.00     0.000 C
ATOM     63  C5  BGC B   5      26.410  17.360   8.2290  0.00  0.00     0.000 C
ATOM     64  O5  BGC B   5      27.705  17.292   8.8160  0.00  0.00     0.000 O
ATOM     65   O  BGC B   5      25.463  16.683  10.2640  0.00  0.00     0.000 O
ATOM     67  HD  BGC B   5      24.904  16.109  10.5930  0.00  0.00     0.000 HD
ATOM     67   O  BGC B   5      25.463  16.683  10.2640  0.00  0.00     0.000 O
ATOM     69  HD  BGC B   5      24.904  16.109  10.5930  0.00  0.00     0.000 HD
ENDBRANCH 58 62
ENDBRANCH 45 58
ENDBRANCH 44 48
ENDBRANCH 31 44
ENDBRANCH 30 34
ENDBRANCH 17 30
ENDBRANCH 16 20
ENDBRANCH 1 16
TORSDOF 8
ENDMDL
MODEL 32
REMARK VINA RESULT:      -2.5      4.838      6.828
ROOT
ATOM      1  C1  BGC B   1       6.199   6.069   2.6730  0.00  0.00     0.000 C
ATOM      2  C2  BGC B   1       6.228   4.805   3.5290  0.00  0.00     0.000 C
ATOM      3  C3  BGC B   1       5.029   3.933   3.2110  0.00  0.00     0.000 C
ATOM      4  C4  BGC B   1       3.738   4.736   3.3060  0.00  0.00     0.000 C
ATOM      5  C5  BGC B   1       3.855   5.947   2.3920  0.00  0.00     0.000 C
ATOM      6  O5  BGC B   1       4.960   6.738   2.8650  0.00  0.00     0.000 O
ATOM      7   O  BGC B   1       7.433   4.072   3.2510  0.00  0.00     0.000 O
ATOM      9  HD  BGC B   1       7.417   3.214   3.3650  0.00  0.00     0.000 HD
ATOM      9   O  BGC B   1       5.008   2.826   4.1170  0.00  0.00     0.000 O
ATOM     11  HD  BGC B   1       4.993   1.967   4.2310  0.00  0.00     0.000 HD
ATOM     11   O  BGC B   1       2.649   3.933   2.9040  0.00  0.00     0.000 O
ATOM     13  HD  BGC B   1       2.634   3.074   3.0180  0.00  0.00     0.000 HD
ATOM     13   C  BGC B   1       2.616   6.829   2.3390  0.00  0.00     0.000 C
ATOM     14   O  BGC B   1       2.212   7.274   3.6310  0.00  0.00     0.000 O
ATOM     16  HD  BGC B   1       2.196   6.416   3.7440  0.00  0.00     0.000 HD
ENDROOT
BRANCH 1 16
ATOM     16  O4  BGC B   2       7.183   6.944   3.2220  0.00  0.00     0.000 O
BRANCH 16 20
ATOM     17  C1  BGC B   2      10.208   9.432   2.1290  0.00  0.00     0.000 C
ATOM     18  C2  BGC B   2       8.823   9.981   1.8180  0.00  0.00     0.000 C
ATOM     19  C3  BGC B   2       7.792   9.156   2.5860  0.00  0.00     0.000 C
ATOM     20  C4  BGC B   2       7.961   7.682   2.2830  0.00  0.00     0.000 C
ATOM     21  C5  BGC B   2       9.412   7.219   2.4260  0.00  0.00     0.000 C
ATOM     22  O5  BGC B   2      10.244   8.079   1.6380  0.00  0.00     0.000 O
ATOM     23   O  BGC B   2       8.731  11.353   2.2330  0.00  0.00     0.000 O
ATOM     25  HD  BGC B   2       8.445  10.608   2.5690  0.00  0.00     0.000 HD
ATOM     25   O  BGC B   2       6.479   9.583   2.2430  0.00  0.00     0.000 O
ATOM     27  HD  BGC B   2       6.193   8.838   2.5780  0.00  0.00     0.000 HD
ATOM     27   C  BGC B   2       9.631   5.791   1.9440  0.00  0.00     0.000 C
ATOM     28   O  BGC B   2       9.225   5.583   0.6010  0.00  0.00     0.000 O
ATOM     30  HD  BGC B   2       8.939   4.838   0.9360  0.00  0.00     0.000 HD
BRANCH 17 30
ATOM     30  O4  BGC B   3      11.122  10.144   1.3160  0.00  0.00     0.000 O
BRANCH 30 34
ATOM     31  C1  BGC B   3      15.040  11.397   1.3850  0.00  0.00     0.000 C
ATOM     32  C2  BGC B   3      14.850   9.929   1.0040  0.00  0.00     0.000 C
ATOM     33  C3  BGC B   3      13.396   9.704   0.6290  0.00  0.00     0.000 C
ATOM     34  C4  BGC B   3      12.481  10.152   1.7670  0.00  0.00     0.000 C
ATOM     35  C5  BGC B   3      12.820  11.570   2.1920  0.00  0.00     0.000 C
ATOM     36  O5  BGC B   3      14.214  11.651   2.5100  0.00  0.00     0.000 O
ATOM     37   O  BGC B   3      15.661   9.623  -0.1270  0.00  0.00     0.000 O
ATOM     39  HD  BGC B   3      15.471   8.785  -0.0160  0.00  0.00     0.000 HD
ATOM     39   O  BGC B   3      13.212   8.324   0.3520  0.00  0.00     0.000 O
ATOM     41  HD  BGC B   3      13.022   7.486   0.4630  0.00  0.00     0.000 HD
ATOM     41   C  BGC B   3      12.016  12.069   3.3870  0.00  0.00     0.000 C
ATOM     42   O  BGC B   3      12.204  11.214   4.4900  0.00  0.00     0.000 O
ATOM     44  HD  BGC B   3      12.014  10.377   4.6010  0.00  0.00     0.000 HD
BRANCH 31 44
ATOM     44  O4  BGC B   4      16.367  11.544   1.8230  0.00  0.00     0.000 O
BRANCH 44 48
ATOM     45  C1  BGC B   4      18.960  14.463   3.0710  0.00  0.00     0.000 C
ATOM     46  C2  BGC B   4      18.036  13.925   4.1550  0.00  0.00     0.000 C
ATOM     47  C3  BGC B   4      17.427  12.623   3.6950  0.00  0.00     0.000 C
ATOM     48  C4  BGC B   4      16.745  12.805   2.3360  0.00  0.00     0.000 C
ATOM     49  C5  BGC B   4      17.710  13.446   1.3300  0.00  0.00     0.000 C
ATOM     50  O5  BGC B   4      18.223  14.674   1.8660  0.00  0.00     0.000 O
ATOM     51   O  BGC B   4      18.779  13.694   5.3670  0.00  0.00     0.000 O
ATOM     53  HD  BGC B   4      18.720  12.878   5.0850  0.00  0.00     0.000 HD
ATOM     53   O  BGC B   4      16.462  12.195   4.6680  0.00  0.00     0.000 O
ATOM     55  HD  BGC B   4      16.403  11.379   4.3860  0.00  0.00     0.000 HD
ATOM     55   C  BGC B   4      17.088  13.773  -0.0150  0.00  0.00     0.000 C
ATOM     56   O  BGC B   4      15.948  14.600   0.2220  0.00  0.00     0.000 O
ATOM     58  HD  BGC B   4      15.888  13.783  -0.0600  0.00  0.00     0.000 HD
BRANCH 45 58
ATOM     58  O4  BGC B   5      19.287  15.796   3.4630  0.00  0.00     0.000 O
BRANCH 58 62
ATOM     59  C1  BGC B   5      22.367  18.561   3.3510  0.00  0.00     0.000 C
ATOM     60  C2  BGC B   5      22.055  17.882   2.0330  0.00  0.00     0.000 C
ATOM     61  C3  BGC B   5      20.687  17.229   2.0810  0.00  0.00     0.000 C
ATOM     62  C4  BGC B   5      20.616  16.287   3.2720  0.00  0.00     0.000 C
ATOM     63  C5  BGC B   5      21.020  17.015   4.5630  0.00  0.00     0.000 C
ATOM     64  O5  BGC B   5      22.317  17.576   4.3880  0.00  0.00     0.000 O
ATOM     65   O  BGC B   5      21.991  15.069   5.4370  0.00  0.00     0.000 O
ATOM     67  HD  BGC B   5      21.973  14.207   5.3540  0.00  0.00     0.000 HD
ATOM     67   O  BGC B   5      21.991  15.069   5.4370  0.00  0.00     0.000 O
ATOM     69  HD  BGC B   5      21.973  14.207   5.3540  0.00  0.00     0.000 HD
ENDBRANCH 58 62
ENDBRANCH 45 58
ENDBRANCH 44 48
ENDBRANCH 31 44
ENDBRANCH 30 34
ENDBRANCH 17 30
ENDBRANCH 16 20
ENDBRANCH 1 16
TORSDOF 8
ENDMDL
MODEL 33
REMARK VINA RESULT:      -2.5      8.341     15.468
ROOT
ATOM      1  C1  BGC B   1      12.141   4.621   3.8530  0.00  0.00     0.000 C
ATOM      2  C2  BGC B   1      11.416   5.087   2.5910  0.00  0.00     0.000 C
ATOM      3  C3  BGC B   1      12.319   4.927   1.3830  0.00  0.00     0.000 C
ATOM      4  C4  BGC B   1      13.667   5.595   1.6260  0.00  0.00     0.000 C
ATOM      5  C5  BGC B   1      14.267   5.019   2.9000  0.00  0.00     0.000 C
ATOM      6  O5  BGC B   1      13.366   5.329   3.9780  0.00  0.00     0.000 O
ATOM      7   O  BGC B   1      10.232   4.294   2.4050  0.00  0.00     0.000 O
ATOM      9  HD  BGC B   1       9.941   4.188   1.5970  0.00  0.00     0.000 HD
ATOM      9   O  BGC B   1      11.668   5.493   0.2420  0.00  0.00     0.000 O
ATOM     11  HD  BGC B   1      11.377   5.388  -0.5670  0.00  0.00     0.000 HD
ATOM     11   O  BGC B   1      14.523   5.342   0.5330  0.00  0.00     0.000 O
ATOM     13  HD  BGC B   1      14.232   5.237  -0.2760  0.00  0.00     0.000 HD
ATOM     13   C  BGC B   1      15.647   5.555   3.2540  0.00  0.00     0.000 C
ATOM     14   O  BGC B   1      15.671   6.976   3.3440  0.00  0.00     0.000 O
ATOM     16  HD  BGC B   1      15.380   6.871   2.5350  0.00  0.00     0.000 HD
ENDROOT
BRANCH 1 16
ATOM     16  O4  BGC B   2      11.345   5.057   4.9530  0.00  0.00     0.000 O
BRANCH 16 20
ATOM     17  C1  BGC B   2       9.972   3.855   8.5880  0.00  0.00     0.000 C
ATOM     18  C2  BGC B   2      11.480   4.047   8.5370  0.00  0.00     0.000 C
ATOM     19  C3  BGC B   2      11.827   4.832   7.2740  0.00  0.00     0.000 C
ATOM     20  C4  BGC B   2      11.243   4.154   6.0520  0.00  0.00     0.000 C
ATOM     21  C5  BGC B   2       9.764   3.810   6.2270  0.00  0.00     0.000 C
ATOM     22  O5  BGC B   2       9.610   3.064   7.4410  0.00  0.00     0.000 O
ATOM     23   O  BGC B   2      11.923   4.786   9.6870  0.00  0.00     0.000 O
ATOM     25  HD  BGC B   2      11.791   4.996   8.8570  0.00  0.00     0.000 HD
ATOM     25   O  BGC B   2      13.240   4.946   7.1470  0.00  0.00     0.000 O
ATOM     27  HD  BGC B   2      13.108   5.156   6.3180  0.00  0.00     0.000 HD
ATOM     27   C  BGC B   2       9.212   2.962   5.0880  0.00  0.00     0.000 C
ATOM     28   O  BGC B   2       9.932   1.756   4.8850  0.00  0.00     0.000 O
ATOM     30  HD  BGC B   2       9.800   1.966   4.0550  0.00  0.00     0.000 HD
BRANCH 17 30
ATOM     30  O4  BGC B   3       9.701   3.031   9.7060  0.00  0.00     0.000 O
BRANCH 30 34
ATOM     31  C1  BGC B   3       6.753   2.399  12.5040  0.00  0.00     0.000 C
ATOM     32  C2  BGC B   3       6.425   1.874  11.1070  0.00  0.00     0.000 C
ATOM     33  C3  BGC B   3       7.706   1.803  10.2950  0.00  0.00     0.000 C
ATOM     34  C4  BGC B   3       8.396   3.166  10.2770  0.00  0.00     0.000 C
ATOM     35  C5  BGC B   3       8.562   3.693  11.6920  0.00  0.00     0.000 C
ATOM     36  O5  BGC B   3       7.290   3.703  12.3490  0.00  0.00     0.000 O
ATOM     37   O  BGC B   3       5.881   0.559  11.2090  0.00  0.00     0.000 O
ATOM     39  HD  BGC B   3       5.681   0.595  10.3670  0.00  0.00     0.000 HD
ATOM     39   O  BGC B   3       7.381   1.388   8.9770  0.00  0.00     0.000 O
ATOM     41  HD  BGC B   3       7.181   1.424   8.1350  0.00  0.00     0.000 HD
ATOM     41   C  BGC B   3       9.161   5.093  11.7650  0.00  0.00     0.000 C
ATOM     42   O  BGC B   3       8.365   6.000  11.0400  0.00  0.00     0.000 O
ATOM     44  HD  BGC B   3       8.165   6.036  10.1980  0.00  0.00     0.000 HD
BRANCH 31 44
ATOM     44  O4  BGC B   4       5.536   2.547  13.1890  0.00  0.00     0.000 O
BRANCH 44 48
ATOM     45  C1  BGC B   4       3.994   2.378  16.9840  0.00  0.00     0.000 C
ATOM     46  C2  BGC B   4       4.762   3.653  16.6640  0.00  0.00     0.000 C
ATOM     47  C3  BGC B   4       4.932   3.776  15.1690  0.00  0.00     0.000 C
ATOM     48  C4  BGC B   4       5.575   2.507  14.6010  0.00  0.00     0.000 C
ATOM     49  C5  BGC B   4       4.802   1.262  15.0520  0.00  0.00     0.000 C
ATOM     50  O5  BGC B   4       4.706   1.244  16.4840  0.00  0.00     0.000 O
ATOM     51   O  BGC B   4       4.039   4.799  17.1510  0.00  0.00     0.000 O
ATOM     53  HD  BGC B   4       3.839   4.858  16.3100  0.00  0.00     0.000 HD
ATOM     53   O  BGC B   4       5.767   4.909  14.8910  0.00  0.00     0.000 O
ATOM     55  HD  BGC B   4       5.567   4.967  14.0500  0.00  0.00     0.000 HD
ATOM     55   C  BGC B   4       5.433  -0.054  14.6340  0.00  0.00     0.000 C
ATOM     56   O  BGC B   4       6.778  -0.065  15.1150  0.00  0.00     0.000 O
ATOM     58  HD  BGC B   4       6.578  -0.007  14.2740  0.00  0.00     0.000 HD
BRANCH 45 58
ATOM     58  O4  BGC B   5       4.100   2.202  18.3960  0.00  0.00     0.000 O
BRANCH 58 62
ATOM     59  C1  BGC B   5       1.793   1.367  21.7320  0.00  0.00     0.000 C
ATOM     60  C2  BGC B   5       2.179   0.166  20.8910  0.00  0.00     0.000 C
ATOM     61  C3  BGC B   5       3.333   0.511  19.9690  0.00  0.00     0.000 C
ATOM     62  C4  BGC B   5       2.972   1.733  19.1390  0.00  0.00     0.000 C
ATOM     63  C5  BGC B   5       2.515   2.886  20.0450  0.00  0.00     0.000 C
ATOM     64  O5  BGC B   5       1.431   2.435  20.8510  0.00  0.00     0.000 O
ATOM     65   O  BGC B   5       0.988   3.637  18.4320  0.00  0.00     0.000 O
ATOM     67  HD  BGC B   5       0.827   3.596  17.5820  0.00  0.00     0.000 HD
ATOM     67   O  BGC B   5       0.988   3.637  18.4320  0.00  0.00     0.000 O
ATOM     69  HD  BGC B   5       0.827   3.596  17.5820  0.00  0.00     0.000 HD
ENDBRANCH 58 62
ENDBRANCH 45 58
ENDBRANCH 44 48
ENDBRANCH 31 44
ENDBRANCH 30 34
ENDBRANCH 17 30
ENDBRANCH 16 20
ENDBRANCH 1 16
TORSDOF 8
ENDMDL
MODEL 34
REMARK VINA RESULT:      -2.4      9.604     13.153
ROOT
ATOM      1  C1  BGC B   1      11.562   8.012   1.7120  0.00  0.00     0.000 C
ATOM      2  C2  BGC B   1      10.414   7.504   0.8410  0.00  0.00     0.000 C
ATOM      3  C3  BGC B   1      10.171   6.031   1.1080  0.00  0.00     0.000 C
ATOM      4  C4  BGC B   1      11.465   5.238   0.9770  0.00  0.00     0.000 C
ATOM      5  C5  BGC B   1      12.501   5.850   1.9100  0.00  0.00     0.000 C
ATOM      6  O5  BGC B   1      12.713   7.209   1.4850  0.00  0.00     0.000 O
ATOM      7   O  BGC B   1       9.222   8.244   1.1520  0.00  0.00     0.000 O
ATOM      9  HD  BGC B   1       8.460   7.851   1.0270  0.00  0.00     0.000 HD
ATOM      9   O  BGC B   1       9.185   5.551   0.1880  0.00  0.00     0.000 O
ATOM     11  HD  BGC B   1       8.423   5.159   0.0640  0.00  0.00     0.000 HD
ATOM     11   O  BGC B   1      11.234   3.892   1.3320  0.00  0.00     0.000 O
ATOM     13  HD  BGC B   1      10.473   3.499   1.2080  0.00  0.00     0.000 HD
ATOM     13   C  BGC B   1      13.844   5.134   1.9300  0.00  0.00     0.000 C
ATOM     14   O  BGC B   1      14.416   5.018   0.6320  0.00  0.00     0.000 O
ATOM     16  HD  BGC B   1      13.655   4.626   0.5070  0.00  0.00     0.000 HD
ENDROOT
BRANCH 1 16
ATOM     16  O4  BGC B   2      11.904   9.301   1.2080  0.00  0.00     0.000 O
BRANCH 16 20
ATOM     17  C1  BGC B   2      13.798  12.744   2.2540  0.00  0.00     0.000 C
ATOM     18  C2  BGC B   2      14.739  11.565   2.0550  0.00  0.00     0.000 C
ATOM     19  C3  BGC B   2      13.981  10.459   1.3240  0.00  0.00     0.000 C
ATOM     20  C4  BGC B   2      12.702  10.118   2.0610  0.00  0.00     0.000 C
ATOM     21  C5  BGC B   2      11.880  11.360   2.4070  0.00  0.00     0.000 C
ATOM     22  O5  BGC B   2      12.725  12.288   3.0990  0.00  0.00     0.000 O
ATOM     23   O  BGC B   2      15.869  11.964   1.2620  0.00  0.00     0.000 O
ATOM     25  HD  BGC B   2      15.148  11.516   1.0900  0.00  0.00     0.000 HD
ATOM     25   O  BGC B   2      14.805   9.304   1.2070  0.00  0.00     0.000 O
ATOM     27  HD  BGC B   2      14.084   8.857   1.0350  0.00  0.00     0.000 HD
ATOM     27   C  BGC B   2      10.691  11.053   3.3090  0.00  0.00     0.000 C
ATOM     28   O  BGC B   2      11.054  10.406   4.5170  0.00  0.00     0.000 O
ATOM     30  HD  BGC B   2      10.333   9.958   4.3460  0.00  0.00     0.000 HD
BRANCH 17 30
ATOM     30  O4  BGC B   3      14.498  13.699   3.0300  0.00  0.00     0.000 O
BRANCH 30 34
ATOM     31  C1  BGC B   3      14.647  17.765   3.6380  0.00  0.00     0.000 C
ATOM     32  C2  BGC B   3      13.384  17.090   4.1700  0.00  0.00     0.000 C
ATOM     33  C3  BGC B   3      13.623  15.593   4.2490  0.00  0.00     0.000 C
ATOM     34  C4  BGC B   3      14.063  15.055   2.8880  0.00  0.00     0.000 C
ATOM     35  C5  BGC B   3      15.232  15.864   2.3530  0.00  0.00     0.000 C
ATOM     36  O5  BGC B   3      14.883  17.252   2.3360  0.00  0.00     0.000 O
ATOM     37   O  BGC B   3      13.103  17.572   5.4820  0.00  0.00     0.000 O
ATOM     39  HD  BGC B   3      12.339  17.166   5.4510  0.00  0.00     0.000 HD
ATOM     39   O  BGC B   3      12.420  14.967   4.6700  0.00  0.00     0.000 O
ATOM     41  HD  BGC B   3      11.656  14.560   4.6380  0.00  0.00     0.000 HD
ATOM     41   C  BGC B   3      15.679  15.455   0.9540  0.00  0.00     0.000 C
ATOM     42   O  BGC B   3      14.607  15.567   0.0490  0.00  0.00     0.000 O
ATOM     44  HD  BGC B   3      13.843  15.160   0.0170  0.00  0.00     0.000 HD
BRANCH 31 44
ATOM     44  O4  BGC B   4      14.355  19.130   3.4820  0.00  0.00     0.000 O
BRANCH 44 48
ATOM     45  C1  BGC B   4      16.162  22.805   3.6710  0.00  0.00     0.000 C
ATOM     46  C2  BGC B   4      16.488  21.997   2.4230  0.00  0.00     0.000 C
ATOM     47  C3  BGC B   4      15.489  20.876   2.2740  0.00  0.00     0.000 C
ATOM     48  C4  BGC B   4      15.435  20.039   3.5550  0.00  0.00     0.000 C
ATOM     49  C5  BGC B   4      15.204  20.937   4.7770  0.00  0.00     0.000 C
ATOM     50  O5  BGC B   4      16.210  21.960   4.8220  0.00  0.00     0.000 O
ATOM     51   O  BGC B   4      16.424  22.842   1.2580  0.00  0.00     0.000 O
ATOM     53  HD  BGC B   4      15.666  22.433   1.1730  0.00  0.00     0.000 HD
ATOM     53   O  BGC B   4      15.885  20.048   1.1710  0.00  0.00     0.000 O
ATOM     55  HD  BGC B   4      15.126  19.639   1.0850  0.00  0.00     0.000 HD
ATOM     55   C  BGC B   4      15.251  20.209   6.1080  0.00  0.00     0.000 C
ATOM     56   O  BGC B   4      16.501  19.523   6.1860  0.00  0.00     0.000 O
ATOM     58  HD  BGC B   4      15.743  19.114   6.1010  0.00  0.00     0.000 HD
BRANCH 45 58
ATOM     58  O4  BGC B   5      17.280  23.666   3.8820  0.00  0.00     0.000 O
BRANCH 58 62
ATOM     59  C1  BGC B   5      18.228  27.595   4.7830  0.00  0.00     0.000 C
ATOM     60  C2  BGC B   5      17.739  26.761   5.9490  0.00  0.00     0.000 C
ATOM     61  C3  BGC B   5      17.822  25.283   5.6190  0.00  0.00     0.000 C
ATOM     62  C4  BGC B   5      17.068  25.008   4.3270  0.00  0.00     0.000 C
ATOM     63  C5  BGC B   5      17.556  25.939   3.2080  0.00  0.00     0.000 C
ATOM     64  O5  BGC B   5      17.422  27.289   3.6410  0.00  0.00     0.000 O
ATOM     65   O  BGC B   5      15.412  26.040   2.2650  0.00  0.00     0.000 O
ATOM     67  HD  BGC B   5      14.661  25.608   2.2420  0.00  0.00     0.000 HD
ATOM     67   O  BGC B   5      15.412  26.040   2.2650  0.00  0.00     0.000 O
ATOM     69  HD  BGC B   5      14.661  25.608   2.2420  0.00  0.00     0.000 HD
ENDBRANCH 58 62
ENDBRANCH 45 58
ENDBRANCH 44 48
ENDBRANCH 31 44
ENDBRANCH 30 34
ENDBRANCH 17 30
ENDBRANCH 16 20
ENDBRANCH 1 16
TORSDOF 8
ENDMDL
MODEL 35
REMARK VINA RESULT:      -2.4      9.880     12.456
ROOT
ATOM      1  C1  BGC B   1      13.996   5.320   4.0920  0.00  0.00     0.000 C
ATOM      2  C2  BGC B   1      14.821   5.239   2.8080  0.00  0.00     0.000 C
ATOM      3  C3  BGC B   1      13.949   5.552   1.6080  0.00  0.00     0.000 C
ATOM      4  C4  BGC B   1      12.694   4.688   1.6130  0.00  0.00     0.000 C
ATOM      5  C5  BGC B   1      11.977   4.887   2.9400  0.00  0.00     0.000 C
ATOM      6  O5  BGC B   1      12.873   4.458   3.9820  0.00  0.00     0.000 O
ATOM      7   O  BGC B   1      15.895   6.192   2.8750  0.00  0.00     0.000 O
ATOM      9  HD  BGC B   1      16.198   6.509   2.1280  0.00  0.00     0.000 HD
ATOM      9   O  BGC B   1      14.710   5.339   0.4150  0.00  0.00     0.000 O
ATOM     11  HD  BGC B   1      15.013   5.656  -0.3310  0.00  0.00     0.000 HD
ATOM     11   O  BGC B   1      11.851   5.070   0.5480  0.00  0.00     0.000 O
ATOM     13  HD  BGC B   1      12.154   5.388  -0.1980  0.00  0.00     0.000 HD
ATOM     13   C  BGC B   1      10.669   4.122   3.0810  0.00  0.00     0.000 C
ATOM     14   O  BGC B   1      10.832   2.724   2.8600  0.00  0.00     0.000 O
ATOM     16  HD  BGC B   1      11.135   3.042   2.1130  0.00  0.00     0.000 HD
ENDROOT
BRANCH 1 16
ATOM     16  O4  BGC B   2      14.803   4.750   5.1210  0.00  0.00     0.000 O
BRANCH 16 20
ATOM     17  C1  BGC B   2      15.620   5.094   9.0900  0.00  0.00     0.000 C
ATOM     18  C2  BGC B   2      14.277   4.440   8.7960  0.00  0.00     0.000 C
ATOM     19  C3  BGC B   2      14.246   4.038   7.3230  0.00  0.00     0.000 C
ATOM     20  C4  BGC B   2      14.566   5.228   6.4420  0.00  0.00     0.000 C
ATOM     21  C5  BGC B   2      15.826   5.967   6.8950  0.00  0.00     0.000 C
ATOM     22  O5  BGC B   2      15.692   6.286   8.2860  0.00  0.00     0.000 O
ATOM     23   O  BGC B   2      14.111   3.266   9.6080  0.00  0.00     0.000 O
ATOM     25  HD  BGC B   2      14.319   3.392   8.7760  0.00  0.00     0.000 HD
ATOM     25   O  BGC B   2      12.967   3.510   6.9930  0.00  0.00     0.000 O
ATOM     27  HD  BGC B   2      13.174   3.636   6.1610  0.00  0.00     0.000 HD
ATOM     27   C  BGC B   2      16.055   7.270   6.1400  0.00  0.00     0.000 C
ATOM     28   O  BGC B   2      14.958   8.166   6.2180  0.00  0.00     0.000 O
ATOM     30  HD  BGC B   2      15.165   8.292   5.3870  0.00  0.00     0.000 HD
BRANCH 17 30
ATOM     30  O4  BGC B   3      15.568   5.552  10.4270  0.00  0.00     0.000 O
BRANCH 30 34
ATOM     31  C1  BGC B   3      18.059   6.168  13.6430  0.00  0.00     0.000 C
ATOM     32  C2  BGC B   3      18.246   7.161  12.4960  0.00  0.00     0.000 C
ATOM     33  C3  BGC B   3      17.038   7.085  11.5790  0.00  0.00     0.000 C
ATOM     34  C4  BGC B   3      16.827   5.649  11.1010  0.00  0.00     0.000 C
ATOM     35  C5  BGC B   3      16.794   4.698  12.2850  0.00  0.00     0.000 C
ATOM     36  O5  BGC B   3      17.978   4.873  13.0700  0.00  0.00     0.000 O
ATOM     37   O  BGC B   3      18.331   8.484  13.0220  0.00  0.00     0.000 O
ATOM     39  HD  BGC B   3      18.560   8.764  12.2350  0.00  0.00     0.000 HD
ATOM     39   O  BGC B   3      17.255   7.953  10.4770  0.00  0.00     0.000 O
ATOM     41  HD  BGC B   3      17.484   8.233   9.6900  0.00  0.00     0.000 HD
ATOM     41   C  BGC B   3      16.678   3.228  11.8950  0.00  0.00     0.000 C
ATOM     42   O  BGC B   3      17.748   2.862  11.0560  0.00  0.00     0.000 O
ATOM     44  HD  BGC B   3      17.977   3.142  10.2700  0.00  0.00     0.000 HD
BRANCH 31 44
ATOM     44  O4  BGC B   4      19.235   6.193  14.4100  0.00  0.00     0.000 O
BRANCH 44 48
ATOM     45  C1  BGC B   4      20.517   5.717  18.2750  0.00  0.00     0.000 C
ATOM     46  C2  BGC B   4      20.145   4.424  17.5620  0.00  0.00     0.000 C
ATOM     47  C3  BGC B   4      20.076   4.671  16.0750  0.00  0.00     0.000 C
ATOM     48  C4  BGC B   4      19.130   5.838  15.7730  0.00  0.00     0.000 C
ATOM     49  C5  BGC B   4      19.509   7.069  16.6050  0.00  0.00     0.000 C
ATOM     50  O5  BGC B   4      19.540   6.722  17.9980  0.00  0.00     0.000 O
ATOM     51   O  BGC B   4      21.137   3.414  17.8250  0.00  0.00     0.000 O
ATOM     53  HD  BGC B   4      21.379   3.639  17.0250  0.00  0.00     0.000 HD
ATOM     53   O  BGC B   4      19.599   3.482  15.4310  0.00  0.00     0.000 O
ATOM     55  HD  BGC B   4      19.841   3.707  14.6300  0.00  0.00     0.000 HD
ATOM     55   C  BGC B   4      18.556   8.242  16.4610  0.00  0.00     0.000 C
ATOM     56   O  BGC B   4      17.242   7.777  16.7750  0.00  0.00     0.000 O
ATOM     58  HD  BGC B   4      17.485   8.002  15.9750  0.00  0.00     0.000 HD
BRANCH 45 58
ATOM     58  O4  BGC B   5      20.310   5.471  19.6650  0.00  0.00     0.000 O
BRANCH 58 62
ATOM     59  C1  BGC B   5      21.049   7.139  23.3830  0.00  0.00     0.000 C
ATOM     60  C2  BGC B   5      19.841   7.689  22.6520  0.00  0.00     0.000 C
ATOM     61  C3  BGC B   5      19.423   6.753  21.5340  0.00  0.00     0.000 C
ATOM     62  C4  BGC B   5      20.609   6.492  20.6190  0.00  0.00     0.000 C
ATOM     63  C5  BGC B   5      21.823   6.014  21.4300  0.00  0.00     0.000 C
ATOM     64  O5  BGC B   5      22.111   6.978  22.4380  0.00  0.00     0.000 O
ATOM     65   O  BGC B   5      23.307   7.102  19.9780  0.00  0.00     0.000 O
ATOM     67  HD  BGC B   5      23.358   7.418  19.1730  0.00  0.00     0.000 HD
ATOM     67   O  BGC B   5      23.307   7.102  19.9780  0.00  0.00     0.000 O
ATOM     69  HD  BGC B   5      23.358   7.418  19.1730  0.00  0.00     0.000 HD
ENDBRANCH 58 62
ENDBRANCH 45 58
ENDBRANCH 44 48
ENDBRANCH 31 44
ENDBRANCH 30 34
ENDBRANCH 17 30
ENDBRANCH 16 20
ENDBRANCH 1 16
TORSDOF 8
ENDMDL
MODEL 36
REMARK VINA RESULT:      -2.2      4.642     14.004
ROOT
ATOM      1  C1  BGC B   1      20.725   4.053   7.8920  0.00  0.00     0.000 C
ATOM      2  C2  BGC B   1      21.790   5.096   8.2250  0.00  0.00     0.000 C
ATOM      3  C3  BGC B   1      23.089   4.411   8.6060  0.00  0.00     0.000 C
ATOM      4  C4  BGC B   1      22.851   3.375   9.6980  0.00  0.00     0.000 C
ATOM      5  C5  BGC B   1      21.783   2.404   9.2160  0.00  0.00     0.000 C
ATOM      6  O5  BGC B   1      20.581   3.163   8.9910  0.00  0.00     0.000 O
ATOM      7   O  BGC B   1      22.014   5.927   7.0740  0.00  0.00     0.000 O
ATOM      9  HD  BGC B   1      22.795   6.291   6.9860  0.00  0.00     0.000 HD
ATOM      9   O  BGC B   1      24.024   5.402   9.0400  0.00  0.00     0.000 O
ATOM     11  HD  BGC B   1      24.805   5.766   8.9520  0.00  0.00     0.000 HD
ATOM     11   O  BGC B   1      24.050   2.679   9.9600  0.00  0.00     0.000 O
ATOM     13  HD  BGC B   1      24.831   3.043   9.8720  0.00  0.00     0.000 HD
ATOM     13   C  BGC B   1      21.466   1.272  10.1830  0.00  0.00     0.000 C
ATOM     14   O  BGC B   1      21.096   1.748  11.4730  0.00  0.00     0.000 O
ATOM     16  HD  BGC B   1      21.877   2.112  11.3850  0.00  0.00     0.000 HD
ENDROOT
BRANCH 1 16
ATOM     16  O4  BGC B   2      19.487   4.757   7.8200  0.00  0.00     0.000 O
BRANCH 16 20
ATOM     17  C1  BGC B   2      15.949   4.819   5.8160  0.00  0.00     0.000 C
ATOM     18  C2  BGC B   2      16.145   3.576   6.6710  0.00  0.00     0.000 C
ATOM     19  C3  BGC B   2      17.302   3.829   7.6350  0.00  0.00     0.000 C
ATOM     20  C4  BGC B   2      18.538   4.266   6.8770  0.00  0.00     0.000 C
ATOM     21  C5  BGC B   2      18.247   5.395   5.8880  0.00  0.00     0.000 C
ATOM     22  O5  BGC B   2      17.155   4.998   5.0500  0.00  0.00     0.000 O
ATOM     23   O  BGC B   2      14.954   3.304   7.4270  0.00  0.00     0.000 O
ATOM     25  HD  BGC B   2      15.720   3.656   7.6260  0.00  0.00     0.000 HD
ATOM     25   O  BGC B   2      17.574   2.651   8.3850  0.00  0.00     0.000 O
ATOM     27  HD  BGC B   2      18.340   3.003   8.5840  0.00  0.00     0.000 HD
ATOM     27   C  BGC B   2      19.432   5.715   4.9860  0.00  0.00     0.000 C
ATOM     28   O  BGC B   2      19.904   4.593   4.2570  0.00  0.00     0.000 O
ATOM     30  HD  BGC B   2      20.669   4.945   4.4570  0.00  0.00     0.000 HD
BRANCH 17 30
ATOM     30  O4  BGC B   3      14.950   4.507   4.8640  0.00  0.00     0.000 O
BRANCH 30 34
ATOM     31  C1  BGC B   3      11.972   6.438   2.7820  0.00  0.00     0.000 C
ATOM     32  C2  BGC B   3      13.339   6.455   2.0980  0.00  0.00     0.000 C
ATOM     33  C3  BGC B   3      14.223   5.401   2.7400  0.00  0.00     0.000 C
ATOM     34  C4  BGC B   3      14.304   5.627   4.2490  0.00  0.00     0.000 C
ATOM     35  C5  BGC B   3      12.911   5.743   4.8420  0.00  0.00     0.000 C
ATOM     36  O5  BGC B   3      12.181   6.760   4.1480  0.00  0.00     0.000 O
ATOM     37   O  BGC B   3      13.184   6.134   0.7170  0.00  0.00     0.000 O
ATOM     39  HD  BGC B   3      14.013   6.350   0.5900  0.00  0.00     0.000 HD
ATOM     39   O  BGC B   3      15.513   5.477   2.1520  0.00  0.00     0.000 O
ATOM     41  HD  BGC B   3      16.342   5.693   2.0250  0.00  0.00     0.000 HD
ATOM     41   C  BGC B   3      12.897   6.061   6.3330  0.00  0.00     0.000 C
ATOM     42   O  BGC B   3      13.589   7.262   6.5790  0.00  0.00     0.000 O
ATOM     44  HD  BGC B   3      14.418   7.478   6.4530  0.00  0.00     0.000 HD
BRANCH 31 44
ATOM     44  O4  BGC B   4      11.220   7.490   2.2340  0.00  0.00     0.000 O
BRANCH 44 48
ATOM     45  C1  BGC B   4       7.337   8.678   1.6710  0.00  0.00     0.000 C
ATOM     46  C2  BGC B   4       7.768   8.574   3.1270  0.00  0.00     0.000 C
ATOM     47  C3  BGC B   4       9.274   8.522   3.2040  0.00  0.00     0.000 C
ATOM     48  C4  BGC B   4       9.813   7.394   2.3180  0.00  0.00     0.000 C
ATOM     49  C5  BGC B   4       9.252   7.512   0.8950  0.00  0.00     0.000 C
ATOM     50  O5  BGC B   4       7.818   7.548   0.9410  0.00  0.00     0.000 O
ATOM     51   O  BGC B   4       7.299   9.720   3.8630  0.00  0.00     0.000 O
ATOM     53  HD  BGC B   4       8.128   9.950   3.7640  0.00  0.00     0.000 HD
ATOM     53   O  BGC B   4       9.660   8.293   4.5670  0.00  0.00     0.000 O
ATOM     55  HD  BGC B   4      10.489   8.523   4.4680  0.00  0.00     0.000 HD
ATOM     55   C  BGC B   4       9.638   6.370  -0.0280  0.00  0.00     0.000 C
ATOM     56   O  BGC B   4       9.238   5.150   0.5980  0.00  0.00     0.000 O
ATOM     58  HD  BGC B   4      10.067   5.380   0.4990  0.00  0.00     0.000 HD
BRANCH 45 58
ATOM     58  O4  BGC B   5       5.926   8.463   1.6640  0.00  0.00     0.000 O
BRANCH 58 62
ATOM     59  C1  BGC B   5       2.754  10.885   0.5600  0.00  0.00     0.000 C
ATOM     60  C2  BGC B   5       2.812   9.536  -0.1270  0.00  0.00     0.000 C
ATOM     61  C3  BGC B   5       3.728   8.592   0.6280  0.00  0.00     0.000 C
ATOM     62  C4  BGC B   5       5.094   9.238   0.7980  0.00  0.00     0.000 C
ATOM     63  C5  BGC B   5       4.959  10.632   1.4260  0.00  0.00     0.000 C
ATOM     64  O5  BGC B   5       4.082  11.416   0.6230  0.00  0.00     0.000 O
ATOM     65   O  BGC B   5       6.786  11.438   0.1960  0.00  0.00     0.000 O
ATOM     67  HD  BGC B   5       7.490  11.164  -0.2270  0.00  0.00     0.000 HD
ATOM     67   O  BGC B   5       6.786  11.438   0.1960  0.00  0.00     0.000 O
ATOM     69  HD  BGC B   5       7.490  11.164  -0.2270  0.00  0.00     0.000 HD
ENDBRANCH 58 62
ENDBRANCH 45 58
ENDBRANCH 44 48
ENDBRANCH 31 44
ENDBRANCH 30 34
ENDBRANCH 17 30
ENDBRANCH 16 20
ENDBRANCH 1 16
TORSDOF 8
ENDMDL
MODEL 37
REMARK VINA RESULT:      -2.1      8.786     15.356
ROOT
ATOM      1  C1  BGC B   1      11.830   5.734   3.6560  0.00  0.00     0.000 C
ATOM      2  C2  BGC B   1      11.358   6.210   2.2830  0.00  0.00     0.000 C
ATOM      3  C3  BGC B   1      12.249   5.637   1.1980  0.00  0.00     0.000 C
ATOM      4  C4  BGC B   1      13.716   5.920   1.5000  0.00  0.00     0.000 C
ATOM      5  C5  BGC B   1      14.037   5.377   2.8840  0.00  0.00     0.000 C
ATOM      6  O5  BGC B   1      13.199   6.074   3.8250  0.00  0.00     0.000 O
ATOM      7   O  BGC B   1      10.007   5.769   2.0680  0.00  0.00     0.000 O
ATOM      9  HD  BGC B   1       9.751   5.642   1.2510  0.00  0.00     0.000 HD
ATOM      9   O  BGC B   1      11.869   6.203  -0.0590  0.00  0.00     0.000 O
ATOM     11  HD  BGC B   1      11.612   6.075  -0.8770  0.00  0.00     0.000 HD
ATOM     11   O  BGC B   1      14.528   5.287   0.5350  0.00  0.00     0.000 O
ATOM     13  HD  BGC B   1      14.272   5.160  -0.2820  0.00  0.00     0.000 HD
ATOM     13   C  BGC B   1      15.487   5.540   3.3140  0.00  0.00     0.000 C
ATOM     14   O  BGC B   1      15.924   6.894   3.2470  0.00  0.00     0.000 O
ATOM     16  HD  BGC B   1      15.667   6.767   2.4290  0.00  0.00     0.000 HD
ENDROOT
BRANCH 1 16
ATOM     16  O4  BGC B   2      11.130   6.525   4.6140  0.00  0.00     0.000 O
BRANCH 16 20
ATOM     17  C1  BGC B   2       9.357   6.250   8.2640  0.00  0.00     0.000 C
ATOM     18  C2  BGC B   2      10.872   6.369   8.3280  0.00  0.00     0.000 C
ATOM     19  C3  BGC B   2      11.381   6.827   6.9630  0.00  0.00     0.000 C
ATOM     20  C4  BGC B   2      10.873   5.906   5.8720  0.00  0.00     0.000 C
ATOM     21  C5  BGC B   2       9.366   5.667   5.9660  0.00  0.00     0.000 C
ATOM     22  O5  BGC B   2       9.055   5.228   7.2950  0.00  0.00     0.000 O
ATOM     23   O  BGC B   2      11.250   7.338   9.3200  0.00  0.00     0.000 O
ATOM     25  HD  BGC B   2      11.208   7.354   8.4550  0.00  0.00     0.000 HD
ATOM     25   O  BGC B   2      12.803   6.856   6.9610  0.00  0.00     0.000 O
ATOM     27  HD  BGC B   2      12.762   6.872   6.0960  0.00  0.00     0.000 HD
ATOM     27   C  BGC B   2       8.872   4.599   4.9980  0.00  0.00     0.000 C
ATOM     28   O  BGC B   2       9.534   3.353   5.1500  0.00  0.00     0.000 O
ATOM     30  HD  BGC B   2       9.492   3.370   4.2850  0.00  0.00     0.000 HD
BRANCH 17 30
ATOM     30  O4  BGC B   3       8.935   5.718   9.5050  0.00  0.00     0.000 O
BRANCH 30 34
ATOM     31  C1  BGC B   3       5.743   5.909  12.0940  0.00  0.00     0.000 C
ATOM     32  C2  BGC B   3       5.456   5.171  10.7860  0.00  0.00     0.000 C
ATOM     33  C3  BGC B   3       6.775   4.825  10.1180  0.00  0.00     0.000 C
ATOM     34  C4  BGC B   3       7.617   6.086   9.9250  0.00  0.00     0.000 C
ATOM     35  C5  BGC B   3       7.742   6.844  11.2340  0.00  0.00     0.000 C
ATOM     36  O5  BGC B   3       6.436   7.101  11.7620  0.00  0.00     0.000 O
ATOM     37   O  BGC B   3       4.760   3.959  11.0670  0.00  0.00     0.000 O
ATOM     39  HD  BGC B   3       4.625   3.860  10.2170  0.00  0.00     0.000 HD
ATOM     39   O  BGC B   3       6.499   4.210   8.8690  0.00  0.00     0.000 O
ATOM     41  HD  BGC B   3       6.364   4.111   8.0190  0.00  0.00     0.000 HD
ATOM     41   C  BGC B   3       8.491   8.167  11.1150  0.00  0.00     0.000 C
ATOM     42   O  BGC B   3       7.857   9.000  10.1740  0.00  0.00     0.000 O
ATOM     44  HD  BGC B   3       7.722   8.901   9.3240  0.00  0.00     0.000 HD
BRANCH 31 44
ATOM     44  O4  BGC B   4       4.506   6.301  12.6290  0.00  0.00     0.000 O
BRANCH 44 48
ATOM     45  C1  BGC B   4       2.797   7.389  16.1940  0.00  0.00     0.000 C
ATOM     46  C2  BGC B   4       3.639   8.471  15.5330  0.00  0.00     0.000 C
ATOM     47  C3  BGC B   4       3.878   8.111  14.0880  0.00  0.00     0.000 C
ATOM     48  C4  BGC B   4       4.483   6.707  13.9830  0.00  0.00     0.000 C
ATOM     49  C5  BGC B   4       3.631   5.694  14.7580  0.00  0.00     0.000 C
ATOM     50  O5  BGC B   4       3.473   6.133  16.1150  0.00  0.00     0.000 O
ATOM     51   O  BGC B   4       2.953   9.736  15.5950  0.00  0.00     0.000 O
ATOM     53  HD  BGC B   4       2.792   9.533  14.7690  0.00  0.00     0.000 HD
ATOM     53   O  BGC B   4       4.779   9.070  13.5150  0.00  0.00     0.000 O
ATOM     55  HD  BGC B   4       4.618   8.867  12.6890  0.00  0.00     0.000 HD
ATOM     55   C  BGC B   4       4.214   4.293  14.8090  0.00  0.00     0.000 C
ATOM     56   O  BGC B   4       5.535   4.391  15.3430  0.00  0.00     0.000 O
ATOM     58  HD  BGC B   4       5.374   4.187  14.5170  0.00  0.00     0.000 HD
BRANCH 45 58
ATOM     58  O4  BGC B   5       2.833   7.664  17.5930  0.00  0.00     0.000 O
BRANCH 58 62
ATOM     59  C1  BGC B   5       0.361   8.019  20.8960  0.00  0.00     0.000 C
ATOM     60  C2  BGC B   5       0.654   6.600  20.4530  0.00  0.00     0.000 C
ATOM     61  C3  BGC B   5       1.862   6.567  19.5360  0.00  0.00     0.000 C
ATOM     62  C4  BGC B   5       1.645   7.525  18.3760  0.00  0.00     0.000 C
ATOM     63  C5  BGC B   5       1.274   8.923  18.8900  0.00  0.00     0.000 C
ATOM     64  O5  BGC B   5       0.129   8.816  19.7300  0.00  0.00     0.000 O
ATOM     65   O  BGC B   5      -0.126   9.304  17.0480  0.00  0.00     0.000 O
ATOM     67  HD  BGC B   5      -0.266   9.034  16.2370  0.00  0.00     0.000 HD
ATOM     67   O  BGC B   5      -0.126   9.304  17.0480  0.00  0.00     0.000 O
ATOM     69  HD  BGC B   5      -0.266   9.034  16.2370  0.00  0.00     0.000 HD
ENDBRANCH 58 62
ENDBRANCH 45 58
ENDBRANCH 44 48
ENDBRANCH 31 44
ENDBRANCH 30 34
ENDBRANCH 17 30
ENDBRANCH 16 20
ENDBRANCH 1 16
TORSDOF 8
ENDMDL
MODEL 38
REMARK VINA RESULT:      -2.1      8.341     12.934
ROOT
ATOM      1  C1  BGC B   1      12.855   9.950   1.9720  0.00  0.00     0.000 C
ATOM      2  C2  BGC B   1      11.611  10.147   1.1090  0.00  0.00     0.000 C
ATOM      3  C3  BGC B   1      10.744   8.904   1.1530  0.00  0.00     0.000 C
ATOM      4  C4  BGC B   1      11.562   7.664   0.8150  0.00  0.00     0.000 C
ATOM      5  C5  BGC B   1      12.750   7.597   1.7630  0.00  0.00     0.000 C
ATOM      6  O5  BGC B   1      13.540   8.780   1.5460  0.00  0.00     0.000 O
ATOM      7   O  BGC B   1      10.860  11.265   1.6100  0.00  0.00     0.000 O
ATOM      9  HD  BGC B   1      10.004  11.269   1.4750  0.00  0.00     0.000 HD
ATOM      9   O  BGC B   1       9.658   9.064   0.2350  0.00  0.00     0.000 O
ATOM     11  HD  BGC B   1       8.803   9.068   0.1000  0.00  0.00     0.000 HD
ATOM     11   O  BGC B   1      10.761   6.512   0.9650  0.00  0.00     0.000 O
ATOM     13  HD  BGC B   1       9.905   6.516   0.8300  0.00  0.00     0.000 HD
ATOM     13   C  BGC B   1      13.644   6.378   1.5820  0.00  0.00     0.000 C
ATOM     14   O  BGC B   1      14.122   6.250   0.2470  0.00  0.00     0.000 O
ATOM     16  HD  BGC B   1      13.267   6.254   0.1110  0.00  0.00     0.000 HD
ENDROOT
BRANCH 1 16
ATOM     16  O4  BGC B   2      13.733  11.030   1.6580  0.00  0.00     0.000 O
BRANCH 16 20
ATOM     17  C1  BGC B   2      17.175  12.747   2.9770  0.00  0.00     0.000 C
ATOM     18  C2  BGC B   2      17.398  11.613   1.9870  0.00  0.00     0.000 C
ATOM     19  C3  BGC B   2      16.071  11.303   1.2990  0.00  0.00     0.000 C
ATOM     20  C4  BGC B   2      14.992  11.030   2.3270  0.00  0.00     0.000 C
ATOM     21  C5  BGC B   2      14.934  12.107   3.4110  0.00  0.00     0.000 C
ATOM     22  O5  BGC B   2      16.246  12.265   3.9660  0.00  0.00     0.000 O
ATOM     23   O  BGC B   2      18.361  12.005   0.9960  0.00  0.00     0.000 O
ATOM     25  HD  BGC B   2      17.498  11.939   0.9950  0.00  0.00     0.000 HD
ATOM     25   O  BGC B   2      16.223  10.183   0.4350  0.00  0.00     0.000 O
ATOM     27  HD  BGC B   2      15.360  10.116   0.4350  0.00  0.00     0.000 HD
ATOM     27   C  BGC B   2      13.988  11.752   4.5510  0.00  0.00     0.000 C
ATOM     28   O  BGC B   2      14.290  10.511   5.1680  0.00  0.00     0.000 O
ATOM     30  HD  BGC B   2      13.427  10.445   5.1670  0.00  0.00     0.000 HD
BRANCH 17 30
ATOM     30  O4  BGC B   3      18.394  12.928   3.6730  0.00  0.00     0.000 O
BRANCH 30 34
ATOM     31  C1  BGC B   3      20.583  15.916   5.4640  0.00  0.00     0.000 C
ATOM     32  C2  BGC B   3      19.313  15.521   6.2170  0.00  0.00     0.000 C
ATOM     33  C3  BGC B   3      18.828  14.181   5.6930  0.00  0.00     0.000 C
ATOM     34  C4  BGC B   3      18.631  14.246   4.1790  0.00  0.00     0.000 C
ATOM     35  C5  BGC B   3      19.883  14.782   3.5060  0.00  0.00     0.000 C
ATOM     36  O5  BGC B   3      20.238  16.039   4.0930  0.00  0.00     0.000 O
ATOM     37   O  BGC B   3      19.608  15.382   7.6060  0.00  0.00     0.000 O
ATOM     39  HD  BGC B   3      18.759  15.312   7.7620  0.00  0.00     0.000 HD
ATOM     39   O  BGC B   3      17.608  13.859   6.3430  0.00  0.00     0.000 O
ATOM     41  HD  BGC B   3      16.759  13.789   6.4990  0.00  0.00     0.000 HD
ATOM     41   C  BGC B   3      19.745  14.968   1.9990  0.00  0.00     0.000 C
ATOM     42   O  BGC B   3      18.675  15.838   1.7130  0.00  0.00     0.000 O
ATOM     44  HD  BGC B   3      17.826  15.768   1.8690  0.00  0.00     0.000 HD
BRANCH 31 44
ATOM     44  O4  BGC B   4      20.943  17.201   5.9020  0.00  0.00     0.000 O
BRANCH 44 48
ATOM     45  C1  BGC B   4      24.259  19.532   6.5140  0.00  0.00     0.000 C
ATOM     46  C2  BGC B   4      23.859  19.362   5.0560  0.00  0.00     0.000 C
ATOM     47  C3  BGC B   4      22.446  18.839   4.9790  0.00  0.00     0.000 C
ATOM     48  C4  BGC B   4      22.306  17.561   5.8110  0.00  0.00     0.000 C
ATOM     49  C5  BGC B   4      22.824  17.786   7.2370  0.00  0.00     0.000 C
ATOM     50  O5  BGC B   4      24.172  18.276   7.1910  0.00  0.00     0.000 O
ATOM     51   O  BGC B   4      23.929  20.630   4.3750  0.00  0.00     0.000 O
ATOM     53  HD  BGC B   4      23.072  20.581   4.4860  0.00  0.00     0.000 HD
ATOM     53   O  BGC B   4      22.130  18.561   3.6070  0.00  0.00     0.000 O
ATOM     55  HD  BGC B   4      21.272  18.512   3.7180  0.00  0.00     0.000 HD
ATOM     55   C  BGC B   4      22.834  16.540   8.1050  0.00  0.00     0.000 C
ATOM     56   O  BGC B   4      23.589  15.539   7.4210  0.00  0.00     0.000 O
ATOM     58  HD  BGC B   4      22.732  15.490   7.5320  0.00  0.00     0.000 HD
BRANCH 45 58
ATOM     58  O4  BGC B   5      25.665  19.775   6.5090  0.00  0.00     0.000 O
BRANCH 58 62
ATOM     59  C1  BGC B   5      28.518  22.316   8.1060  0.00  0.00     0.000 C
ATOM     60  C2  BGC B   5      28.031  21.221   9.0330  0.00  0.00     0.000 C
ATOM     61  C3  BGC B   5      27.332  20.128   8.2460  0.00  0.00     0.000 C
ATOM     62  C4  BGC B   5      26.223  20.739   7.4050  0.00  0.00     0.000 C
ATOM     63  C5  BGC B   5      26.765  21.893   6.5490  0.00  0.00     0.000 C
ATOM     64  O5  BGC B   5      27.389  22.846   7.4040  0.00  0.00     0.000 O
ATOM     65   O  BGC B   5      24.745  23.068   6.7320  0.00  0.00     0.000 O
ATOM     67  HD  BGC B   5      23.905  22.947   6.9040  0.00  0.00     0.000 HD
ATOM     67   O  BGC B   5      24.745  23.068   6.7320  0.00  0.00     0.000 O
ATOM     69  HD  BGC B   5      23.905  22.947   6.9040  0.00  0.00     0.000 HD
ENDBRANCH 58 62
ENDBRANCH 45 58
ENDBRANCH 44 48
ENDBRANCH 31 44
ENDBRANCH 30 34
ENDBRANCH 17 30
ENDBRANCH 16 20
ENDBRANCH 1 16
TORSDOF 8
ENDMDL
MODEL 39
REMARK VINA RESULT:      -2.0      7.208      9.685
ROOT
ATOM      1  C1  BGC B   1      11.208   8.568  12.6850  0.00  0.00     0.000 C
ATOM      2  C2  BGC B   1      11.349   9.692  13.7100  0.00  0.00     0.000 C
ATOM      3  C3  BGC B   1      10.213   9.629  14.7130  0.00  0.00     0.000 C
ATOM      4  C4  BGC B   1       8.867   9.583  14.0000  0.00  0.00     0.000 C
ATOM      5  C5  BGC B   1       8.875   8.410  13.0310  0.00  0.00     0.000 C
ATOM      6  O5  BGC B   1       9.927   8.647  12.0770  0.00  0.00     0.000 O
ATOM      7   O  BGC B   1      12.600   9.547  14.4030  0.00  0.00     0.000 O
ATOM      9  HD  BGC B   1      12.652   9.856  15.2100  0.00  0.00     0.000 HD
ATOM      9   O  BGC B   1      10.295  10.766  15.5770  0.00  0.00     0.000 O
ATOM     11  HD  BGC B   1      10.346  11.075  16.3840  0.00  0.00     0.000 HD
ATOM     11   O  BGC B   1       7.835   9.418  14.9480  0.00  0.00     0.000 O
ATOM     13  HD  BGC B   1       7.887   9.727  15.7550  0.00  0.00     0.000 HD
ATOM     13   C  BGC B   1       7.572   8.201  12.2720  0.00  0.00     0.000 C
ATOM     14   O  BGC B   1       7.161   9.368  11.5670  0.00  0.00     0.000 O
ATOM     16  HD  BGC B   1       7.213   9.678  12.3740  0.00  0.00     0.000 HD
ENDROOT
BRANCH 1 16
ATOM     16  O4  BGC B   2      12.134   8.864  11.6410  0.00  0.00     0.000 O
BRANCH 16 20
ATOM     17  C1  BGC B   2      14.659   7.059   9.0130  0.00  0.00     0.000 C
ATOM     18  C2  BGC B   2      13.189   6.905   8.6520  0.00  0.00     0.000 C
ATOM     19  C3  BGC B   2      12.380   7.905   9.4750  0.00  0.00     0.000 C
ATOM     20  C4  BGC B   2      12.681   7.742  10.9510  0.00  0.00     0.000 C
ATOM     21  C5  BGC B   2      14.182   7.714  11.2410  0.00  0.00     0.000 C
ATOM     22  O5  BGC B   2      14.788   6.719  10.4060  0.00  0.00     0.000 O
ATOM     23   O  BGC B   2      12.992   7.177   7.2550  0.00  0.00     0.000 O
ATOM     25  HD  BGC B   2      12.846   7.631   7.9780  0.00  0.00     0.000 HD
ATOM     25   O  BGC B   2      10.990   7.721   9.2320  0.00  0.00     0.000 O
ATOM     27  HD  BGC B   2      10.845   8.175   9.9550  0.00  0.00     0.000 HD
ATOM     27   C  BGC B   2      14.501   7.362  12.6880  0.00  0.00     0.000 C
ATOM     28   O  BGC B   2      13.941   6.127  13.1030  0.00  0.00     0.000 O
ATOM     30  HD  BGC B   2      13.796   6.581  13.8260  0.00  0.00     0.000 HD
BRANCH 17 30
ATOM     30  O4  BGC B   3      15.359   6.045   8.3180  0.00  0.00     0.000 O
BRANCH 30 34
ATOM     31  C1  BGC B   3      19.011   5.374   6.5450  0.00  0.00     0.000 C
ATOM     32  C2  BGC B   3      19.075   5.643   8.0480  0.00  0.00     0.000 C
ATOM     33  C3  BGC B   3      17.686   5.475   8.6370  0.00  0.00     0.000 C
ATOM     34  C4  BGC B   3      16.690   6.376   7.9080  0.00  0.00     0.000 C
ATOM     35  C5  BGC B   3      16.781   6.159   6.4080  0.00  0.00     0.000 C
ATOM     36  O5  BGC B   3      18.135   6.338   5.9820  0.00  0.00     0.000 O
ATOM     37   O  BGC B   3      19.944   4.695   8.6640  0.00  0.00     0.000 O
ATOM     39  HD  BGC B   3      19.895   5.152   9.3980  0.00  0.00     0.000 HD
ATOM     39   O  BGC B   3      17.740   5.802  10.0170  0.00  0.00     0.000 O
ATOM     41  HD  BGC B   3      17.691   6.259  10.7520  0.00  0.00     0.000 HD
ATOM     41   C  BGC B   3      15.885   7.085   5.5920  0.00  0.00     0.000 C
ATOM     42   O  BGC B   3      16.196   8.430   5.8690  0.00  0.00     0.000 O
ATOM     44  HD  BGC B   3      16.147   8.887   6.6040  0.00  0.00     0.000 HD
BRANCH 31 44
ATOM     44  O4  BGC B   4      20.287   5.638   6.0210  0.00  0.00     0.000 O
BRANCH 44 48
ATOM     45  C1  BGC B   4      22.852   4.345   3.0960  0.00  0.00     0.000 C
ATOM     46  C2  BGC B   4      21.655   5.138   2.5900  0.00  0.00     0.000 C
ATOM     47  C3  BGC B   4      21.020   5.879   3.7400  0.00  0.00     0.000 C
ATOM     48  C4  BGC B   4      20.682   4.909   4.8770  0.00  0.00     0.000 C
ATOM     49  C5  BGC B   4      21.913   4.077   5.2580  0.00  0.00     0.000 C
ATOM     50  O5  BGC B   4      22.430   3.414   4.0950  0.00  0.00     0.000 O
ATOM     51   O  BGC B   4      22.079   6.089   1.5950  0.00  0.00     0.000 O
ATOM     53  HD  BGC B   4      21.991   6.626   2.2690  0.00  0.00     0.000 HD
ATOM     53   O  BGC B   4      19.821   6.515   3.2750  0.00  0.00     0.000 O
ATOM     55  HD  BGC B   4      19.733   7.052   3.9490  0.00  0.00     0.000 HD
ATOM     55   C  BGC B   4      21.647   3.004   6.2990  0.00  0.00     0.000 C
ATOM     56   O  BGC B   4      20.584   2.182   5.8140  0.00  0.00     0.000 O
ATOM     58  HD  BGC B   4      20.496   2.718   6.4880  0.00  0.00     0.000 HD
BRANCH 45 58
ATOM     58  O4  BGC B   5      23.232   3.484   2.0230  0.00  0.00     0.000 O
BRANCH 58 62
ATOM     59  C1  BGC B   5      26.567   1.878   0.1670  0.00  0.00     0.000 C
ATOM     60  C2  BGC B   5      26.217   1.273   1.5110  0.00  0.00     0.000 C
ATOM     61  C3  BGC B   5      24.791   1.620   1.8960  0.00  0.00     0.000 C
ATOM     62  C4  BGC B   5      24.606   3.128   1.8510  0.00  0.00     0.000 C
ATOM     63  C5  BGC B   5      25.053   3.688   0.4930  0.00  0.00     0.000 C
ATOM     64  O5  BGC B   5      26.401   3.297   0.2550  0.00  0.00     0.000 O
ATOM     65   O  BGC B   5      25.814   5.671   1.4840  0.00  0.00     0.000 O
ATOM     67  HD  BGC B   5      25.714   6.153   2.1970  0.00  0.00     0.000 HD
ATOM     67   O  BGC B   5      25.814   5.671   1.4840  0.00  0.00     0.000 O
ATOM     69  HD  BGC B   5      25.714   6.153   2.1970  0.00  0.00     0.000 HD
ENDBRANCH 58 62
ENDBRANCH 45 58
ENDBRANCH 44 48
ENDBRANCH 31 44
ENDBRANCH 30 34
ENDBRANCH 17 30
ENDBRANCH 16 20
ENDBRANCH 1 16
TORSDOF 8
ENDMDL
MODEL 40
REMARK VINA RESULT:      -2.0      6.991     15.643
ROOT
ATOM      1  C1  BGC B   1      20.743   9.926   3.4570  0.00  0.00     0.000 C
ATOM      2  C2  BGC B   1      21.638   9.693   4.6730  0.00  0.00     0.000 C
ATOM      3  C3  BGC B   1      23.042   9.336   4.2250  0.00  0.00     0.000 C
ATOM      4  C4  BGC B   1      23.014   8.186   3.2270  0.00  0.00     0.000 C
ATOM      5  C5  BGC B   1      22.099   8.571   2.0730  0.00  0.00     0.000 C
ATOM      6  O5  BGC B   1      20.783   8.780   2.6190  0.00  0.00     0.000 O
ATOM      7   O  BGC B   1      21.684  10.892   5.4640  0.00  0.00     0.000 O
ATOM      9  HD  BGC B   1      22.393  11.032   5.9420  0.00  0.00     0.000 HD
ATOM      9   O  BGC B   1      23.821   8.994   5.3750  0.00  0.00     0.000 O
ATOM     11  HD  BGC B   1      24.530   9.134   5.8530  0.00  0.00     0.000 HD
ATOM     11   O  BGC B   1      24.318   7.943   2.7460  0.00  0.00     0.000 O
ATOM     13  HD  BGC B   1      25.026   8.083   3.2240  0.00  0.00     0.000 HD
ATOM     13   C  BGC B   1      22.003   7.537   0.9610  0.00  0.00     0.000 C
ATOM     14   O  BGC B   1      21.608   6.257   1.4440  0.00  0.00     0.000 O
ATOM     16  HD  BGC B   1      22.316   6.397   1.9210  0.00  0.00     0.000 HD
ENDROOT
BRANCH 1 16
ATOM     16  O4  BGC B   2      19.406   9.978   3.9510  0.00  0.00     0.000 O
BRANCH 16 20
ATOM     17  C1  BGC B   2      15.642  10.781   2.6360  0.00  0.00     0.000 C
ATOM     18  C2  BGC B   2      16.021   9.310   2.5460  0.00  0.00     0.000 C
ATOM     19  C3  BGC B   2      17.274   9.079   3.3870  0.00  0.00     0.000 C
ATOM     20  C4  BGC B   2      18.375  10.033   2.9680  0.00  0.00     0.000 C
ATOM     21  C5  BGC B   2      17.893  11.482   2.8900  0.00  0.00     0.000 C
ATOM     22  O5  BGC B   2      16.727  11.530   2.0580  0.00  0.00     0.000 O
ATOM     23   O  BGC B   2      14.954   8.494   3.0590  0.00  0.00     0.000 O
ATOM     25  HD  BGC B   2      15.717   8.749   3.3800  0.00  0.00     0.000 HD
ATOM     25   O  BGC B   2      17.710   7.732   3.2470  0.00  0.00     0.000 O
ATOM     27  HD  BGC B   2      18.473   7.988   3.5680  0.00  0.00     0.000 HD
ATOM     27   C  BGC B   2      18.931  12.422   2.2910  0.00  0.00     0.000 C
ATOM     28   O  BGC B   2      19.370  12.026   1.0020  0.00  0.00     0.000 O
ATOM     30  HD  BGC B   2      20.133  12.282   1.3230  0.00  0.00     0.000 HD
BRANCH 17 30
ATOM     30  O4  BGC B   3      14.549  10.977   1.7590  0.00  0.00     0.000 O
BRANCH 30 34
ATOM     31  C1  BGC B   3      11.163  13.290   1.4350  0.00  0.00     0.000 C
ATOM     32  C2  BGC B   3      12.465  14.024   1.1190  0.00  0.00     0.000 C
ATOM     33  C3  BGC B   3      13.562  13.000   0.8830  0.00  0.00     0.000 C
ATOM     34  C4  BGC B   3      13.677  12.063   2.0850  0.00  0.00     0.000 C
ATOM     35  C5  BGC B   3      12.318  11.480   2.4320  0.00  0.00     0.000 C
ATOM     36  O5  BGC B   3      11.378  12.542   2.6210  0.00  0.00     0.000 O
ATOM     37   O  BGC B   3      12.302  14.792  -0.0710  0.00  0.00     0.000 O
ATOM     39  HD  BGC B   3      13.069  15.164   0.0830  0.00  0.00     0.000 HD
ATOM     39   O  BGC B   3      14.783  13.691   0.6680  0.00  0.00     0.000 O
ATOM     41  HD  BGC B   3      15.550  14.062   0.8220  0.00  0.00     0.000 HD
ATOM     41   C  BGC B   3      12.322  10.602   3.6790  0.00  0.00     0.000 C
ATOM     42   O  BGC B   3      12.791  11.333   4.7870  0.00  0.00     0.000 O
ATOM     44  HD  BGC B   3      13.558  11.705   4.9410  0.00  0.00     0.000 HD
BRANCH 31 44
ATOM     44  O4  BGC B   4      10.201  14.265   1.7460  0.00  0.00     0.000 O
BRANCH 44 48
ATOM     45  C1  BGC B   4       6.242  14.552   2.7690  0.00  0.00     0.000 C
ATOM     46  C2  BGC B   4       7.185  14.292   3.9360  0.00  0.00     0.000 C
ATOM     47  C3  BGC B   4       8.602  14.595   3.5150  0.00  0.00     0.000 C
ATOM     48  C4  BGC B   4       8.958  13.815   2.2450  0.00  0.00     0.000 C
ATOM     49  C5  BGC B   4       7.906  14.052   1.1540  0.00  0.00     0.000 C
ATOM     50  O5  BGC B   4       6.602  13.728   1.6600  0.00  0.00     0.000 O
ATOM     51   O  BGC B   4       6.835  15.134   5.0500  0.00  0.00     0.000 O
ATOM     53  HD  BGC B   4       7.521  15.573   4.7570  0.00  0.00     0.000 HD
ATOM     53   O  BGC B   4       9.490  14.222   4.5780  0.00  0.00     0.000 O
ATOM     55  HD  BGC B   4      10.176  14.661   4.2840  0.00  0.00     0.000 HD
ATOM     55   C  BGC B   4       8.111  13.228  -0.1040  0.00  0.00     0.000 C
ATOM     56   O  BGC B   4       8.173  11.853   0.2800  0.00  0.00     0.000 O
ATOM     58  HD  BGC B   4       8.859  12.293  -0.0140  0.00  0.00     0.000 HD
BRANCH 45 58
ATOM     58  O4  BGC B   5       4.982  14.004   3.1550  0.00  0.00     0.000 O
BRANCH 58 62
ATOM     59  C1  BGC B   5       1.024  13.835   1.9490  0.00  0.00     0.000 C
ATOM     60  C2  BGC B   5       1.962  12.881   1.2370  0.00  0.00     0.000 C
ATOM     61  C3  BGC B   5       3.254  12.724   2.0160  0.00  0.00     0.000 C
ATOM     62  C4  BGC B   5       3.866  14.093   2.2650  0.00  0.00     0.000 C
ATOM     63  C5  BGC B   5       2.841  15.034   2.9150  0.00  0.00     0.000 C
ATOM     64  O5  BGC B   5       1.685  15.097   2.0870  0.00  0.00     0.000 O
ATOM     65   O  BGC B   5       3.732  16.890   1.7920  0.00  0.00     0.000 O
ATOM     67  HD  BGC B   5       4.455  17.159   1.3980  0.00  0.00     0.000 HD
ATOM     67   O  BGC B   5       3.732  16.890   1.7920  0.00  0.00     0.000 O
ATOM     69  HD  BGC B   5       4.455  17.159   1.3980  0.00  0.00     0.000 HD
ENDBRANCH 58 62
ENDBRANCH 45 58
ENDBRANCH 44 48
ENDBRANCH 31 44
ENDBRANCH 30 34
ENDBRANCH 17 30
ENDBRANCH 16 20
ENDBRANCH 1 16
TORSDOF 8
ENDMDL
MODEL 41
REMARK VINA RESULT:      -1.9     10.412     14.164
ROOT
ATOM      1  C1  BGC B   1      10.557   7.852   2.5300  0.00  0.00     0.000 C
ATOM      2  C2  BGC B   1       9.434   7.326   1.6380  0.00  0.00     0.000 C
ATOM      3  C3  BGC B   1       9.747   5.914   1.1840  0.00  0.00     0.000 C
ATOM      4  C4  BGC B   1      11.137   5.842   0.5640  0.00  0.00     0.000 C
ATOM      5  C5  BGC B   1      12.142   6.382   1.5710  0.00  0.00     0.000 C
ATOM      6  O5  BGC B   1      11.793   7.753   1.8350  0.00  0.00     0.000 O
ATOM      7   O  BGC B   1       8.203   7.323   2.3800  0.00  0.00     0.000 O
ATOM      9  HD  BGC B   1       7.599   6.744   2.1560  0.00  0.00     0.000 HD
ATOM      9   O  BGC B   1       8.749   5.497   0.2470  0.00  0.00     0.000 O
ATOM     11  HD  BGC B   1       8.145   4.918   0.0230  0.00  0.00     0.000 HD
ATOM     11   O  BGC B   1      11.445   4.502   0.2470  0.00  0.00     0.000 O
ATOM     13  HD  BGC B   1      10.842   3.923   0.0230  0.00  0.00     0.000 HD
ATOM     13   C  BGC B   1      13.593   6.331   1.1150  0.00  0.00     0.000 C
ATOM     14   O  BGC B   1      13.794   6.997  -0.1270  0.00  0.00     0.000 O
ATOM     16  HD  BGC B   1      13.191   6.418  -0.3520  0.00  0.00     0.000 HD
ENDROOT
BRANCH 1 16
ATOM     16  O4  BGC B   2      10.326   9.251   2.6790  0.00  0.00     0.000 O
BRANCH 16 20
ATOM     17  C1  BGC B   2      10.798  12.290   5.3410  0.00  0.00     0.000 C
ATOM     18  C2  BGC B   2      12.089  11.876   4.6500  0.00  0.00     0.000 C
ATOM     19  C3  BGC B   2      11.737  11.011   3.4420  0.00  0.00     0.000 C
ATOM     20  C4  BGC B   2      10.854   9.853   3.8590  0.00  0.00     0.000 C
ATOM     21  C5  BGC B   2       9.668  10.302   4.7140  0.00  0.00     0.000 C
ATOM     22  O5  BGC B   2      10.165  11.083   5.8080  0.00  0.00     0.000 O
ATOM     23   O  BGC B   2      12.805  13.039   4.2040  0.00  0.00     0.000 O
ATOM     25  HD  BGC B   2      12.311  12.451   3.8020  0.00  0.00     0.000 HD
ATOM     25   O  BGC B   2      12.926  10.528   2.8290  0.00  0.00     0.000 O
ATOM     27  HD  BGC B   2      12.433   9.941   2.4270  0.00  0.00     0.000 HD
ATOM     27   C  BGC B   2       8.881   9.135   5.2970  0.00  0.00     0.000 C
ATOM     28   O  BGC B   2       9.676   8.248   6.0650  0.00  0.00     0.000 O
ATOM     30  HD  BGC B   2       9.183   7.660   5.6640  0.00  0.00     0.000 HD
BRANCH 17 30
ATOM     30  O4  BGC B   3      11.167  12.990   6.5130  0.00  0.00     0.000 O
BRANCH 30 34
ATOM     31  C1  BGC B   3       9.800  16.028   8.9280  0.00  0.00     0.000 C
ATOM     32  C2  BGC B   3       9.001  14.729   9.0280  0.00  0.00     0.000 C
ATOM     33  C3  BGC B   3       9.818  13.602   8.4220  0.00  0.00     0.000 C
ATOM     34  C4  BGC B   3      10.218  13.951   6.9890  0.00  0.00     0.000 C
ATOM     35  C5  BGC B   3      10.879  15.317   6.9430  0.00  0.00     0.000 C
ATOM     36  O5  BGC B   3      10.015  16.284   7.5490  0.00  0.00     0.000 O
ATOM     37   O  BGC B   3       8.759  14.424  10.4000  0.00  0.00     0.000 O
ATOM     39  HD  BGC B   3       8.221  13.794  10.1480  0.00  0.00     0.000 HD
ATOM     39   O  BGC B   3       9.038  12.416   8.4490  0.00  0.00     0.000 O
ATOM     41  HD  BGC B   3       8.500  11.786   8.1970  0.00  0.00     0.000 HD
ATOM     41   C  BGC B   3      11.231  15.789   5.5370  0.00  0.00     0.000 C
ATOM     42   O  BGC B   3      10.075  15.823   4.7330  0.00  0.00     0.000 O
ATOM     44  HD  BGC B   3       9.537  15.193   4.4810  0.00  0.00     0.000 HD
BRANCH 31 44
ATOM     44  O4  BGC B   4       8.975  17.061   9.4030  0.00  0.00     0.000 O
BRANCH 44 48
ATOM     45  C1  BGC B   4       9.194  20.659  11.3540  0.00  0.00     0.000 C
ATOM     46  C2  BGC B   4       9.654  20.691   9.9030  0.00  0.00     0.000 C
ATOM     47  C3  BGC B   4       9.168  19.451   9.1940  0.00  0.00     0.000 C
ATOM     48  C4  BGC B   4       9.609  18.197   9.9550  0.00  0.00     0.000 C
ATOM     49  C5  BGC B   4       9.197  18.288  11.4290  0.00  0.00     0.000 C
ATOM     50  O5  BGC B   4       9.714  19.498  12.0030  0.00  0.00     0.000 O
ATOM     51   O  BGC B   4       9.117  21.852   9.2410  0.00  0.00     0.000 O
ATOM     53  HD  BGC B   4       8.577  21.253   8.9260  0.00  0.00     0.000 HD
ATOM     53   O  BGC B   4       9.718  19.431   7.8690  0.00  0.00     0.000 O
ATOM     55  HD  BGC B   4       9.178  18.832   7.5540  0.00  0.00     0.000 HD
ATOM     55   C  BGC B   4       9.692  17.141  12.2920  0.00  0.00     0.000 C
ATOM     56   O  BGC B   4      11.111  17.066  12.1430  0.00  0.00     0.000 O
ATOM     58  HD  BGC B   4      10.572  16.467  11.8280  0.00  0.00     0.000 HD
BRANCH 45 58
ATOM     58  O4  BGC B   5       9.898  21.713  12.0100  0.00  0.00     0.000 O
BRANCH 58 62
ATOM     59  C1  BGC B   5       9.883  23.902  15.5250  0.00  0.00     0.000 C
ATOM     60  C2  BGC B   5      10.557  22.548  15.6060  0.00  0.00     0.000 C
ATOM     61  C3  BGC B   5      10.875  22.027  14.2170  0.00  0.00     0.000 C
ATOM     62  C4  BGC B   5       9.608  22.017  13.3770  0.00  0.00     0.000 C
ATOM     63  C5  BGC B   5       8.932  23.395  13.4010  0.00  0.00     0.000 C
ATOM     64  O5  BGC B   5       8.686  23.764  14.7540  0.00  0.00     0.000 O
ATOM     65   O  BGC B   5       6.799  22.427  13.2880  0.00  0.00     0.000 O
ATOM     67  HD  BGC B   5       6.400  21.696  13.0500  0.00  0.00     0.000 HD
ATOM     67   O  BGC B   5       6.799  22.427  13.2880  0.00  0.00     0.000 O
ATOM     69  HD  BGC B   5       6.400  21.696  13.0500  0.00  0.00     0.000 HD
ENDBRANCH 58 62
ENDBRANCH 45 58
ENDBRANCH 44 48
ENDBRANCH 31 44
ENDBRANCH 30 34
ENDBRANCH 17 30
ENDBRANCH 16 20
ENDBRANCH 1 16
TORSDOF 8
ENDMDL
MODEL 42
REMARK VINA RESULT:      -1.8      6.758     14.005
ROOT
ATOM      1  C1  BGC B   1      17.305   5.895   4.2510  0.00  0.00     0.000 C
ATOM      2  C2  BGC B   1      17.001   5.054   5.4910  0.00  0.00     0.000 C
ATOM      3  C3  BGC B   1      15.837   4.123   5.2150  0.00  0.00     0.000 C
ATOM      4  C4  BGC B   1      14.646   4.896   4.6650  0.00  0.00     0.000 C
ATOM      5  C5  BGC B   1      15.099   5.665   3.4320  0.00  0.00     0.000 C
ATOM      6  O5  BGC B   1      16.128   6.581   3.8510  0.00  0.00     0.000 O
ATOM      7   O  BGC B   1      18.161   4.276   5.8300  0.00  0.00     0.000 O
ATOM      9  HD  BGC B   1      18.035   3.526   6.2450  0.00  0.00     0.000 HD
ATOM      9   O  BGC B   1      15.489   3.447   6.4270  0.00  0.00     0.000 O
ATOM     11  HD  BGC B   1      15.363   2.697   6.8420  0.00  0.00     0.000 HD
ATOM     11   O  BGC B   1      13.616   3.996   4.3180  0.00  0.00     0.000 O
ATOM     13  HD  BGC B   1      13.490   3.247   4.7330  0.00  0.00     0.000 HD
ATOM     13   C  BGC B   1      14.002   6.456   2.7340  0.00  0.00     0.000 C
ATOM     14   O  BGC B   1      13.341   7.360   3.6140  0.00  0.00     0.000 O
ATOM     16  HD  BGC B   1      13.215   6.610   4.0290  0.00  0.00     0.000 HD
ENDROOT
BRANCH 1 16
ATOM     16  O4  BGC B   2      18.206   6.917   4.6740  0.00  0.00     0.000 O
BRANCH 16 20
ATOM     17  C1  BGC B   2      21.177   9.334   3.3100  0.00  0.00     0.000 C
ATOM     18  C2  BGC B   2      19.825   9.606   2.6680  0.00  0.00     0.000 C
ATOM     19  C3  BGC B   2      18.746   8.916   3.4990  0.00  0.00     0.000 C
ATOM     20  C4  BGC B   2      19.070   7.446   3.6720  0.00  0.00     0.000 C
ATOM     21  C5  BGC B   2      20.508   7.217   4.1400  0.00  0.00     0.000 C
ATOM     22  O5  BGC B   2      21.392   7.912   3.2510  0.00  0.00     0.000 O
ATOM     23   O  BGC B   2      19.566  11.020   2.6420  0.00  0.00     0.000 O
ATOM     25  HD  BGC B   2      19.284  10.371   3.1410  0.00  0.00     0.000 HD
ATOM     25   O  BGC B   2      17.478   9.071   2.8730  0.00  0.00     0.000 O
ATOM     27  HD  BGC B   2      17.197   8.422   3.3720  0.00  0.00     0.000 HD
ATOM     27   C  BGC B   2      20.907   5.747   4.1360  0.00  0.00     0.000 C
ATOM     28   O  BGC B   2      20.741   5.123   2.8730  0.00  0.00     0.000 O
ATOM     30  HD  BGC B   2      20.460   4.474   3.3730  0.00  0.00     0.000 HD
BRANCH 17 30
ATOM     30  O4  BGC B   3      22.156   9.891   2.4530  0.00  0.00     0.000 O
BRANCH 30 34
ATOM     31  C1  BGC B   3      25.910  11.564   2.6400  0.00  0.00     0.000 C
ATOM     32  C2  BGC B   3      25.881  10.047   2.8290  0.00  0.00     0.000 C
ATOM     33  C3  BGC B   3      24.541   9.518   2.3490  0.00  0.00     0.000 C
ATOM     34  C4  BGC B   3      23.401  10.235   3.0700  0.00  0.00     0.000 C
ATOM     35  C5  BGC B   3      23.571  11.740   2.9640  0.00  0.00     0.000 C
ATOM     36  O5  BGC B   3      24.871  12.107   3.4380  0.00  0.00     0.000 O
ATOM     37   O  BGC B   3      26.910   9.450   2.0430  0.00  0.00     0.000 O
ATOM     39  HD  BGC B   3      26.750   8.696   2.4370  0.00  0.00     0.000 HD
ATOM     39   O  BGC B   3      24.493   8.122   2.5990  0.00  0.00     0.000 O
ATOM     41  HD  BGC B   3      24.333   7.367   2.9930  0.00  0.00     0.000 HD
ATOM     41   C  BGC B   3      22.525  12.539   3.7340  0.00  0.00     0.000 C
ATOM     42   O  BGC B   3      22.548  12.181   5.0960  0.00  0.00     0.000 O
ATOM     44  HD  BGC B   3      22.389  11.427   5.4900  0.00  0.00     0.000 HD
BRANCH 31 44
ATOM     44  O4  BGC B   4      27.118  12.027   3.1870  0.00  0.00     0.000 O
BRANCH 44 48
ATOM     45  C1  BGC B   4      29.906  14.988   2.6740  0.00  0.00     0.000 C
ATOM     46  C2  BGC B   4      28.603  15.444   3.3140  0.00  0.00     0.000 C
ATOM     47  C3  BGC B   4      27.836  14.240   3.8050  0.00  0.00     0.000 C
ATOM     48  C4  BGC B   4      27.647  13.230   2.6680  0.00  0.00     0.000 C
ATOM     49  C5  BGC B   4      28.992  12.901   2.0100  0.00  0.00     0.000 C
ATOM     50  O5  BGC B   4      29.630  14.113   1.5790  0.00  0.00     0.000 O
ATOM     51   O  BGC B   4      28.878  16.313   4.4290  0.00  0.00     0.000 O
ATOM     53  HD  BGC B   4      28.692  15.587   4.8630  0.00  0.00     0.000 HD
ATOM     53   O  BGC B   4      26.555  14.673   4.2850  0.00  0.00     0.000 O
ATOM     55  HD  BGC B   4      26.369  13.948   4.7200  0.00  0.00     0.000 HD
ATOM     55   C  BGC B   4      28.892  11.996   0.7960  0.00  0.00     0.000 C
ATOM     56   O  BGC B   4      27.988  12.604  -0.1270  0.00  0.00     0.000 O
ATOM     58  HD  BGC B   4      27.802  11.878   0.3070  0.00  0.00     0.000 HD
BRANCH 45 58
ATOM     58  O4  BGC B   5      30.441  16.136   2.0150  0.00  0.00     0.000 O
BRANCH 58 62
ATOM     59  C1  BGC B   5      33.958  18.278   1.5840  0.00  0.00     0.000 C
ATOM     60  C2  BGC B   5      33.865  17.009   0.7600  0.00  0.00     0.000 C
ATOM     61  C3  BGC B   5      32.425  16.540   0.6660  0.00  0.00     0.000 C
ATOM     62  C4  BGC B   5      31.846  16.392   2.0630  0.00  0.00     0.000 C
ATOM     63  C5  BGC B   5      32.044  17.683   2.8710  0.00  0.00     0.000 C
ATOM     64  O5  BGC B   5      33.430  18.009   2.8860  0.00  0.00     0.000 O
ATOM     65   O  BGC B   5      32.316  16.477   4.8630  0.00  0.00     0.000 O
ATOM     67  HD  BGC B   5      32.137  15.707   5.2170  0.00  0.00     0.000 HD
ATOM     67   O  BGC B   5      32.316  16.477   4.8630  0.00  0.00     0.000 O
ATOM     69  HD  BGC B   5      32.137  15.707   5.2170  0.00  0.00     0.000 HD
ENDBRANCH 58 62
ENDBRANCH 45 58
ENDBRANCH 44 48
ENDBRANCH 31 44
ENDBRANCH 30 34
ENDBRANCH 17 30
ENDBRANCH 16 20
ENDBRANCH 1 16
TORSDOF 8
ENDMDL
MODEL 43
REMARK VINA RESULT:      -1.8      9.849     16.689
ROOT
ATOM      1  C1  BGC B   1      21.373   9.959  18.7460  0.00  0.00     0.000 C
ATOM      2  C2  BGC B   1      22.795  10.518  18.7970  0.00  0.00     0.000 C
ATOM      3  C3  BGC B   1      23.286  10.562  20.2310  0.00  0.00     0.000 C
ATOM      4  C4  BGC B   1      22.285  11.289  21.1220  0.00  0.00     0.000 C
ATOM      5  C5  BGC B   1      20.930  10.612  20.9760  0.00  0.00     0.000 C
ATOM      6  O5  BGC B   1      20.536  10.731  19.5960  0.00  0.00     0.000 O
ATOM      7   O  BGC B   1      23.663   9.672  18.0260  0.00  0.00     0.000 O
ATOM      9  HD  BGC B   1      24.499   9.641  18.2500  0.00  0.00     0.000 HD
ATOM      9   O  BGC B   1      24.561  11.210  20.2640  0.00  0.00     0.000 O
ATOM     11  HD  BGC B   1      25.397  11.180  20.4880  0.00  0.00     0.000 HD
ATOM     11   O  BGC B   1      22.712  11.225  22.4650  0.00  0.00     0.000 O
ATOM     13  HD  BGC B   1      23.548  11.194  22.6890  0.00  0.00     0.000 HD
ATOM     13   C  BGC B   1      19.827  11.197  21.8460  0.00  0.00     0.000 C
ATOM     14   O  BGC B   1      19.659  12.596  21.6410  0.00  0.00     0.000 O
ATOM     16  HD  BGC B   1      20.495  12.566  21.8650  0.00  0.00     0.000 HD
ENDROOT
BRANCH 1 16
ATOM     16  O4  BGC B   2      20.895  10.209  17.4260  0.00  0.00     0.000 O
BRANCH 16 20
ATOM     17  C1  BGC B   2      18.446   8.644  14.5810  0.00  0.00     0.000 C
ATOM     18  C2  BGC B   2      17.703   9.330  15.7170  0.00  0.00     0.000 C
ATOM     19  C3  BGC B   2      18.698  10.177  16.5070  0.00  0.00     0.000 C
ATOM     20  C4  BGC B   2      19.875   9.333  16.9520  0.00  0.00     0.000 C
ATOM     21  C5  BGC B   2      20.471   8.514  15.8070  0.00  0.00     0.000 C
ATOM     22  O5  BGC B   2      19.418   7.769  15.1830  0.00  0.00     0.000 O
ATOM     23   O  BGC B   2      16.674  10.184  15.1900  0.00  0.00     0.000 O
ATOM     25  HD  BGC B   2      17.463  10.331  15.5150  0.00  0.00     0.000 HD
ATOM     25   O  BGC B   2      18.053  10.757  17.6350  0.00  0.00     0.000 O
ATOM     27  HD  BGC B   2      18.843  10.904  17.9600  0.00  0.00     0.000 HD
ATOM     27   C  BGC B   2      21.529   7.521  16.2740  0.00  0.00     0.000 C
ATOM     28   O  BGC B   2      21.059   6.625  17.2680  0.00  0.00     0.000 O
ATOM     30  HD  BGC B   2      21.848   6.773  17.5930  0.00  0.00     0.000 HD
BRANCH 17 30
ATOM     30  O4  BGC B   3      17.519   7.785  13.9450  0.00  0.00     0.000 O
BRANCH 30 34
ATOM     31  C1  BGC B   3      16.690   6.256  10.2170  0.00  0.00     0.000 C
ATOM     32  C2  BGC B   3      17.944   5.681  10.8730  0.00  0.00     0.000 C
ATOM     33  C3  BGC B   3      17.917   6.009  12.3560  0.00  0.00     0.000 C
ATOM     34  C4  BGC B   3      17.768   7.516  12.5610  0.00  0.00     0.000 C
ATOM     35  C5  BGC B   3      16.587   8.044  11.7660  0.00  0.00     0.000 C
ATOM     36  O5  BGC B   3      16.728   7.663  10.3940  0.00  0.00     0.000 O
ATOM     37   O  BGC B   3      17.952   4.263  10.7250  0.00  0.00     0.000 O
ATOM     39  HD  BGC B   3      18.763   4.252  11.0280  0.00  0.00     0.000 HD
ATOM     39   O  BGC B   3      19.121   5.540  12.9430  0.00  0.00     0.000 O
ATOM     41  HD  BGC B   3      19.932   5.529  13.2460  0.00  0.00     0.000 HD
ATOM     41   C  BGC B   3      16.417   9.557  11.8390  0.00  0.00     0.000 C
ATOM     42   O  BGC B   3      17.585  10.199  11.3850  0.00  0.00     0.000 O
ATOM     44  HD  BGC B   3      18.397  10.188  11.6880  0.00  0.00     0.000 HD
BRANCH 31 44
ATOM     44  O4  BGC B   4      16.800   6.024   8.8360  0.00  0.00     0.000 O
BRANCH 44 48
ATOM     45  C1  BGC B   4      14.437   5.488   5.5290  0.00  0.00     0.000 C
ATOM     46  C2  BGC B   4      14.641   6.940   5.9390  0.00  0.00     0.000 C
ATOM     47  C3  BGC B   4      15.810   7.035   6.8890  0.00  0.00     0.000 C
ATOM     48  C4  BGC B   4      15.613   6.081   8.0710  0.00  0.00     0.000 C
ATOM     49  C5  BGC B   4      15.311   4.662   7.5740  0.00  0.00     0.000 C
ATOM     50  O5  BGC B   4      14.184   4.689   6.6860  0.00  0.00     0.000 O
ATOM     51   O  BGC B   4      14.913   7.747   4.7770  0.00  0.00     0.000 O
ATOM     53  HD  BGC B   4      15.719   7.676   5.0860  0.00  0.00     0.000 HD
ATOM     53   O  BGC B   4      15.909   8.384   7.3660  0.00  0.00     0.000 O
ATOM     55  HD  BGC B   4      16.715   8.314   7.6760  0.00  0.00     0.000 HD
ATOM     55   C  BGC B   4      14.986   3.668   8.6740  0.00  0.00     0.000 C
ATOM     56   O  BGC B   4      13.902   4.201   9.4370  0.00  0.00     0.000 O
ATOM     58  HD  BGC B   4      14.708   4.131   9.7470  0.00  0.00     0.000 HD
BRANCH 45 58
ATOM     58  O4  BGC B   5      13.180   5.446   4.8530  0.00  0.00     0.000 O
BRANCH 58 62
ATOM     59  C1  BGC B   5      11.491   4.115   1.3140  0.00  0.00     0.000 C
ATOM     60  C2  BGC B   5      11.558   3.090   2.4290  0.00  0.00     0.000 C
ATOM     61  C3  BGC B   5      11.792   3.770   3.7640  0.00  0.00     0.000 C
ATOM     62  C4  BGC B   5      13.033   4.645   3.6790  0.00  0.00     0.000 C
ATOM     63  C5  BGC B   5      12.937   5.604   2.4840  0.00  0.00     0.000 C
ATOM     64  O5  BGC B   5      12.723   4.844   1.2990  0.00  0.00     0.000 O
ATOM     65   O  BGC B   5      15.251   5.495   2.1230  0.00  0.00     0.000 O
ATOM     67  HD  BGC B   5      15.991   5.301   2.5290  0.00  0.00     0.000 HD
ATOM     67   O  BGC B   5      15.251   5.495   2.1230  0.00  0.00     0.000 O
ATOM     69  HD  BGC B   5      15.991   5.301   2.5290  0.00  0.00     0.000 HD
ENDBRANCH 58 62
ENDBRANCH 45 58
ENDBRANCH 44 48
ENDBRANCH 31 44
ENDBRANCH 30 34
ENDBRANCH 17 30
ENDBRANCH 16 20
ENDBRANCH 1 16
TORSDOF 8
ENDMDL
MODEL 44
REMARK VINA RESULT:      -1.7      5.994      8.183
ROOT
ATOM      1  C1  BGC B   1       8.782   6.827  12.8880  0.00  0.00     0.000 C
ATOM      2  C2  BGC B   1       8.607   7.982  13.8730  0.00  0.00     0.000 C
ATOM      3  C3  BGC B   1       7.554   7.631  14.9060  0.00  0.00     0.000 C
ATOM      4  C4  BGC B   1       6.268   7.172  14.2300  0.00  0.00     0.000 C
ATOM      5  C5  BGC B   1       6.600   6.015  13.2990  0.00  0.00     0.000 C
ATOM      6  O5  BGC B   1       7.524   6.509  12.3120  0.00  0.00     0.000 O
ATOM      7   O  BGC B   1       9.857   8.231  14.5370  0.00  0.00     0.000 O
ATOM      9  HD  BGC B   1       9.829   8.573  15.3330  0.00  0.00     0.000 HD
ATOM      9   O  BGC B   1       7.316   8.776  15.7310  0.00  0.00     0.000 O
ATOM     11  HD  BGC B   1       7.288   9.117  16.5260  0.00  0.00     0.000 HD
ATOM     11   O  BGC B   1       5.343   6.751  15.2090  0.00  0.00     0.000 O
ATOM     13  HD  BGC B   1       5.315   7.093  16.0040  0.00  0.00     0.000 HD
ATOM     13   C  BGC B   1       5.402   5.409  12.5810  0.00  0.00     0.000 C
ATOM     14   O  BGC B   1       4.660   6.380  11.8500  0.00  0.00     0.000 O
ATOM     16  HD  BGC B   1       4.632   6.722  12.6450  0.00  0.00     0.000 HD
ENDROOT
BRANCH 1 16
ATOM     16  O4  BGC B   2       9.566   7.338  11.8120  0.00  0.00     0.000 O
BRANCH 16 20
ATOM     17  C1  BGC B   2      12.409   6.177   9.1460  0.00  0.00     0.000 C
ATOM     18  C2  BGC B   2      10.994   5.799   8.7330  0.00  0.00     0.000 C
ATOM     19  C3  BGC B   2      10.011   6.588   9.5960  0.00  0.00     0.000 C
ATOM     20  C4  BGC B   2      10.310   6.377  11.0660  0.00  0.00     0.000 C
ATOM     21  C5  BGC B   2      11.788   6.585  11.3970  0.00  0.00     0.000 C
ATOM     22  O5  BGC B   2      12.571   5.769  10.5170  0.00  0.00     0.000 O
ATOM     23   O  BGC B   2      10.777   6.130   7.3520  0.00  0.00     0.000 O
ATOM     25  HD  BGC B   2      10.543   6.502   8.0980  0.00  0.00     0.000 HD
ATOM     25   O  BGC B   2       8.678   6.186   9.3010  0.00  0.00     0.000 O
ATOM     27  HD  BGC B   2       8.444   6.558  10.0480  0.00  0.00     0.000 HD
ATOM     27   C  BGC B   2      12.138   6.194  12.8270  0.00  0.00     0.000 C
ATOM     28   O  BGC B   2      11.793   4.855  13.1440  0.00  0.00     0.000 O
ATOM     30  HD  BGC B   2      11.558   5.227  13.8910  0.00  0.00     0.000 HD
BRANCH 17 30
ATOM     30  O4  BGC B   3      13.286   5.348   8.4070  0.00  0.00     0.000 O
BRANCH 30 34
ATOM     31  C1  BGC B   3      17.119   5.358   6.9130  0.00  0.00     0.000 C
ATOM     32  C2  BGC B   3      17.031   5.228   8.4330  0.00  0.00     0.000 C
ATOM     33  C3  BGC B   3      15.613   4.838   8.8110  0.00  0.00     0.000 C
ATOM     34  C4  BGC B   3      14.617   5.845   8.2360  0.00  0.00     0.000 C
ATOM     35  C5  BGC B   3      14.855   6.033   6.7480  0.00  0.00     0.000 C
ATOM     36  O5  BGC B   3      16.224   6.389   6.5260  0.00  0.00     0.000 O
ATOM     37   O  BGC B   3      17.915   4.199   8.8740  0.00  0.00     0.000 O
ATOM     39  HD  BGC B   3      17.766   4.445   9.6910  0.00  0.00     0.000 HD
ATOM     39   O  BGC B   3      15.521   4.795  10.2270  0.00  0.00     0.000 O
ATOM     41  HD  BGC B   3      15.372   5.041  11.0440  0.00  0.00     0.000 HD
ATOM     41   C  BGC B   3      13.964   7.091   6.1070  0.00  0.00     0.000 C
ATOM     42   O  BGC B   3      14.144   8.331   6.7490  0.00  0.00     0.000 O
ATOM     44  HD  BGC B   3      13.996   8.577   7.5660  0.00  0.00     0.000 HD
BRANCH 31 44
ATOM     44  O4  BGC B   4      18.412   5.818   6.6100  0.00  0.00     0.000 O
BRANCH 44 48
ATOM     45  C1  BGC B   4      21.354   5.391   3.7870  0.00  0.00     0.000 C
ATOM     46  C2  BGC B   4      20.156   6.216   3.3400  0.00  0.00     0.000 C
ATOM     47  C3  BGC B   4      19.350   6.629   4.5470  0.00  0.00     0.000 C
ATOM     48  C4  BGC B   4      18.978   5.401   5.3840  0.00  0.00     0.000 C
ATOM     49  C5  BGC B   4      20.226   4.570   5.7060  0.00  0.00     0.000 C
ATOM     50  O5  BGC B   4      20.909   4.230   4.4910  0.00  0.00     0.000 O
ATOM     51   O  BGC B   4      20.601   7.396   2.6450  0.00  0.00     0.000 O
ATOM     53  HD  BGC B   4      20.403   7.753   3.4090  0.00  0.00     0.000 HD
ATOM     53   O  BGC B   4      18.158   7.292   4.1020  0.00  0.00     0.000 O
ATOM     55  HD  BGC B   4      17.960   7.649   4.8660  0.00  0.00     0.000 HD
ATOM     55   C  BGC B   4      19.942   3.269   6.4350  0.00  0.00     0.000 C
ATOM     56   O  BGC B   4      19.002   2.529   5.6550  0.00  0.00     0.000 O
ATOM     58  HD  BGC B   4      18.804   2.886   6.4190  0.00  0.00     0.000 HD
BRANCH 45 58
ATOM     58  O4  BGC B   5      21.908   4.829   2.5980  0.00  0.00     0.000 O
BRANCH 58 62
ATOM     59  C1  BGC B   5      25.548   4.311   0.6920  0.00  0.00     0.000 C
ATOM     60  C2  BGC B   5      25.188   3.245   1.7060  0.00  0.00     0.000 C
ATOM     61  C3  BGC B   5      23.705   3.291   2.0250  0.00  0.00     0.000 C
ATOM     62  C4  BGC B   5      23.326   4.695   2.4700  0.00  0.00     0.000 C
ATOM     63  C5  BGC B   5      23.789   5.734   1.4390  0.00  0.00     0.000 C
ATOM     64  O5  BGC B   5      25.190   5.587   1.2340  0.00  0.00     0.000 O
ATOM     65   O  BGC B   5      24.210   7.314   3.1180  0.00  0.00     0.000 O
ATOM     67  HD  BGC B   5      23.998   7.506   3.9360  0.00  0.00     0.000 HD
ATOM     67   O  BGC B   5      24.210   7.314   3.1180  0.00  0.00     0.000 O
ATOM     69  HD  BGC B   5      23.998   7.506   3.9360  0.00  0.00     0.000 HD
ENDBRANCH 58 62
ENDBRANCH 45 58
ENDBRANCH 44 48
ENDBRANCH 31 44
ENDBRANCH 30 34
ENDBRANCH 17 30
ENDBRANCH 16 20
ENDBRANCH 1 16
TORSDOF 8
ENDMDL
MODEL 45
REMARK VINA RESULT:      -1.7     10.841     15.653
ROOT
ATOM      1  C1  BGC B   1      17.537   8.613  20.4910  0.00  0.00     0.000 C
ATOM      2  C2  BGC B   1      18.833   9.289  20.9360  0.00  0.00     0.000 C
ATOM      3  C3  BGC B   1      19.062   9.053  22.4160  0.00  0.00     0.000 C
ATOM      4  C4  BGC B   1      17.830   9.448  23.2210  0.00  0.00     0.000 C
ATOM      5  C5  BGC B   1      16.632   8.687  22.6740  0.00  0.00     0.000 C
ATOM      6  O5  BGC B   1      16.465   9.078  21.2990  0.00  0.00     0.000 O
ATOM      7   O  BGC B   1      19.933   8.737  20.1930  0.00  0.00     0.000 O
ATOM      9  HD  BGC B   1      20.714   8.742  20.5670  0.00  0.00     0.000 HD
ATOM      9   O  BGC B   1      20.206   9.804  22.8320  0.00  0.00     0.000 O
ATOM     11  HD  BGC B   1      20.987   9.810  23.2060  0.00  0.00     0.000 HD
ATOM     11   O  BGC B   1      18.028   9.122  24.5800  0.00  0.00     0.000 O
ATOM     13  HD  BGC B   1      18.809   9.128  24.9540  0.00  0.00     0.000 HD
ATOM     13   C  BGC B   1      15.324   8.939  23.4110  0.00  0.00     0.000 C
ATOM     14   O  BGC B   1      14.993  10.323  23.4700  0.00  0.00     0.000 O
ATOM     16  HD  BGC B   1      15.774  10.328  23.8440  0.00  0.00     0.000 HD
ENDROOT
BRANCH 1 16
ATOM     16  O4  BGC B   2      17.258   9.108  19.1830  0.00  0.00     0.000 O
BRANCH 16 20
ATOM     17  C1  BGC B   2      15.663   7.972  15.6190  0.00  0.00     0.000 C
ATOM     18  C2  BGC B   2      14.624   8.223  16.7020  0.00  0.00     0.000 C
ATOM     19  C3  BGC B   2      15.291   8.980  17.8480  0.00  0.00     0.000 C
ATOM     20  C4  BGC B   2      16.523   8.239  18.3260  0.00  0.00     0.000 C
ATOM     21  C5  BGC B   2      17.447   7.840  17.1740  0.00  0.00     0.000 C
ATOM     22  O5  BGC B   2      16.677   7.129  16.1970  0.00  0.00     0.000 O
ATOM     23   O  BGC B   2      13.547   9.018  16.1770  0.00  0.00     0.000 O
ATOM     25  HD  BGC B   2      14.228   9.195  16.6820  0.00  0.00     0.000 HD
ATOM     25   O  BGC B   2      14.370   9.147  18.9190  0.00  0.00     0.000 O
ATOM     27  HD  BGC B   2      15.051   9.324  19.4240  0.00  0.00     0.000 HD
ATOM     27   C  BGC B   2      18.589   6.934  17.6160  0.00  0.00     0.000 C
ATOM     28   O  BGC B   2      18.149   5.752  18.2670  0.00  0.00     0.000 O
ATOM     30  HD  BGC B   2      18.830   5.929  18.7710  0.00  0.00     0.000 HD
BRANCH 17 30
ATOM     30  O4  BGC B   3      15.039   7.174  14.6300  0.00  0.00     0.000 O
BRANCH 30 34
ATOM     31  C1  BGC B   3      15.214   6.478  10.5790  0.00  0.00     0.000 C
ATOM     32  C2  BGC B   3      16.388   5.906  11.3730  0.00  0.00     0.000 C
ATOM     33  C3  BGC B   3      16.017   5.873  12.8450  0.00  0.00     0.000 C
ATOM     34  C4  BGC B   3      15.596   7.265  13.3150  0.00  0.00     0.000 C
ATOM     35  C5  BGC B   3      14.528   7.832  12.3970  0.00  0.00     0.000 C
ATOM     36  O5  BGC B   3      14.996   7.801  11.0450  0.00  0.00     0.000 O
ATOM     37   O  BGC B   3      16.648   4.572  10.9430  0.00  0.00     0.000 O
ATOM     39  HD  BGC B   3      17.374   4.578  11.4140  0.00  0.00     0.000 HD
ATOM     39   O  BGC B   3      17.140   5.413  13.5820  0.00  0.00     0.000 O
ATOM     41  HD  BGC B   3      17.866   5.420  14.0530  0.00  0.00     0.000 HD
ATOM     41   C  BGC B   3      14.112   9.259  12.7380  0.00  0.00     0.000 C
ATOM     42   O  BGC B   3      15.231  10.112  12.7030  0.00  0.00     0.000 O
ATOM     44  HD  BGC B   3      15.958  10.119  13.1740  0.00  0.00     0.000 HD
BRANCH 31 44
ATOM     44  O4  BGC B   4      15.631   6.589   9.2430  0.00  0.00     0.000 O
BRANCH 44 48
ATOM     45  C1  BGC B   4      14.124   6.436   5.4330  0.00  0.00     0.000 C
ATOM     46  C2  BGC B   4      13.854   7.737   6.1740  0.00  0.00     0.000 C
ATOM     47  C3  BGC B   4      14.766   7.833   7.3720  0.00  0.00     0.000 C
ATOM     48  C4  BGC B   4      14.628   6.583   8.2470  0.00  0.00     0.000 C
ATOM     49  C5  BGC B   4      14.813   5.314   7.4070  0.00  0.00     0.000 C
ATOM     50  O5  BGC B   4      13.897   5.325   6.3030  0.00  0.00     0.000 O
ATOM     51   O  BGC B   4      14.099   8.860   5.3050  0.00  0.00     0.000 O
ATOM     53  HD  BGC B   4      14.826   8.889   5.7750  0.00  0.00     0.000 HD
ATOM     53   O  BGC B   4      14.411   8.998   8.1320  0.00  0.00     0.000 O
ATOM     55  HD  BGC B   4      15.137   9.027   8.6020  0.00  0.00     0.000 HD
ATOM     55   C  BGC B   4      14.579   4.020   8.1650  0.00  0.00     0.000 C
ATOM     56   O  BGC B   4      13.274   4.084   8.7430  0.00  0.00     0.000 O
ATOM     58  HD  BGC B   4      14.001   4.113   9.2130  0.00  0.00     0.000 HD
BRANCH 45 58
ATOM     58  O4  BGC B   5      13.067   6.298   4.4850  0.00  0.00     0.000 O
BRANCH 58 62
ATOM     59  C1  BGC B   5      11.936   4.023   1.2150  0.00  0.00     0.000 C
ATOM     60  C2  BGC B   5      11.672   3.393   2.5670  0.00  0.00     0.000 C
ATOM     61  C3  BGC B   5      11.726   4.441   3.6630  0.00  0.00     0.000 C
ATOM     62  C4  BGC B   5      13.053   5.180   3.5940  0.00  0.00     0.000 C
ATOM     63  C5  BGC B   5      13.296   5.725   2.1790  0.00  0.00     0.000 C
ATOM     64  O5  BGC B   5      13.224   4.646   1.2520  0.00  0.00     0.000 O
ATOM     65   O  BGC B   5      15.608   5.389   2.3730  0.00  0.00     0.000 O
ATOM     67  HD  BGC B   5      16.230   5.293   2.9680  0.00  0.00     0.000 HD
ATOM     67   O  BGC B   5      15.608   5.389   2.3730  0.00  0.00     0.000 O
ATOM     69  HD  BGC B   5      16.230   5.293   2.9680  0.00  0.00     0.000 HD
ENDBRANCH 58 62
ENDBRANCH 45 58
ENDBRANCH 44 48
ENDBRANCH 31 44
ENDBRANCH 30 34
ENDBRANCH 17 30
ENDBRANCH 16 20
ENDBRANCH 1 16
TORSDOF 8
ENDMDL
MODEL 46
REMARK VINA RESULT:      -1.7     10.158     16.998
ROOT
ATOM      1  C1  BGC B   1      21.044  12.108  18.9220  0.00  0.00     0.000 C
ATOM      2  C2  BGC B   1      22.522  12.453  19.1000  0.00  0.00     0.000 C
ATOM      3  C3  BGC B   1      22.826  12.702  20.5650  0.00  0.00     0.000 C
ATOM      4  C4  BGC B   1      21.859  13.724  21.1500  0.00  0.00     0.000 C
ATOM      5  C5  BGC B   1      20.438  13.236  20.9100  0.00  0.00     0.000 C
ATOM      6  O5  BGC B   1      20.250  13.143  19.4850  0.00  0.00     0.000 O
ATOM      7   O  BGC B   1      23.324  11.357  18.6300  0.00  0.00     0.000 O
ATOM      9  HD  BGC B   1      24.106  11.250  18.9850  0.00  0.00     0.000 HD
ATOM      9   O  BGC B   1      24.178  13.152  20.6870  0.00  0.00     0.000 O
ATOM     11  HD  BGC B   1      24.961  13.044  21.0420  0.00  0.00     0.000 HD
ATOM     11   O  BGC B   1      22.094  13.860  22.5350  0.00  0.00     0.000 O
ATOM     13  HD  BGC B   1      22.876  13.752  22.8900  0.00  0.00     0.000 HD
ATOM     13   C  BGC B   1      19.349  14.132  21.4830  0.00  0.00     0.000 C
ATOM     14   O  BGC B   1      19.452  15.475  21.0190  0.00  0.00     0.000 O
ATOM     16  HD  BGC B   1      20.234  15.367  21.3740  0.00  0.00     0.000 HD
ENDROOT
BRANCH 1 16
ATOM     16  O4  BGC B   2      20.789  12.165  17.5200  0.00  0.00     0.000 O
BRANCH 16 20
ATOM     17  C1  BGC B   2      18.367  10.563  14.6720  0.00  0.00     0.000 C
ATOM     18  C2  BGC B   2      17.710  11.671  15.4810  0.00  0.00     0.000 C
ATOM     19  C3  BGC B   2      18.797  12.427  16.2420  0.00  0.00     0.000 C
ATOM     20  C4  BGC B   2      19.633  11.467  17.0640  0.00  0.00     0.000 C
ATOM     21  C5  BGC B   2      20.114  10.267  16.2480  0.00  0.00     0.000 C
ATOM     22  O5  BGC B   2      18.980   9.662  15.6140  0.00  0.00     0.000 O
ATOM     23   O  BGC B   2      17.028  12.584  14.6050  0.00  0.00     0.000 O
ATOM     25  HD  BGC B   2      17.782  12.616  15.0300  0.00  0.00     0.000 HD
ATOM     25   O  BGC B   2      18.205  13.410  17.0830  0.00  0.00     0.000 O
ATOM     27  HD  BGC B   2      18.959  13.442  17.5080  0.00  0.00     0.000 HD
ATOM     27   C  BGC B   2      20.792   9.202  17.1000  0.00  0.00     0.000 C
ATOM     28   O  BGC B   2      19.977   8.726  18.1590  0.00  0.00     0.000 O
ATOM     30  HD  BGC B   2      20.731   8.758  18.5840  0.00  0.00     0.000 HD
BRANCH 17 30
ATOM     30  O4  BGC B   3      17.323   9.818  14.0740  0.00  0.00     0.000 O
BRANCH 30 34
ATOM     31  C1  BGC B   3      16.606   7.615  10.6740  0.00  0.00     0.000 C
ATOM     32  C2  BGC B   3      17.409   6.882  11.7480  0.00  0.00     0.000 C
ATOM     33  C3  BGC B   3      17.262   7.624  13.0650  0.00  0.00     0.000 C
ATOM     34  C4  BGC B   3      17.678   9.085  12.8970  0.00  0.00     0.000 C
ATOM     35  C5  BGC B   3      16.946   9.711  11.7230  0.00  0.00     0.000 C
ATOM     36  O5  BGC B   3      17.158   8.917  10.5510  0.00  0.00     0.000 O
ATOM     37   O  BGC B   3      16.890   5.564  11.9120  0.00  0.00     0.000 O
ATOM     39  HD  BGC B   3      17.570   5.377  12.4160  0.00  0.00     0.000 HD
ATOM     39   O  BGC B   3      18.071   6.981  14.0370  0.00  0.00     0.000 O
ATOM     41  HD  BGC B   3      18.751   6.794  14.5400  0.00  0.00     0.000 HD
ATOM     41   C  BGC B   3      17.368  11.146  11.4240  0.00  0.00     0.000 C
ATOM     42   O  BGC B   3      18.752  11.202  11.1710  0.00  0.00     0.000 O
ATOM     44  HD  BGC B   3      19.432  11.015  11.6740  0.00  0.00     0.000 HD
BRANCH 31 44
ATOM     44  O4  BGC B   4      16.849   6.962   9.4550  0.00  0.00     0.000 O
BRANCH 44 48
ATOM     45  C1  BGC B   4      15.097   6.342   5.8010  0.00  0.00     0.000 C
ATOM     46  C2  BGC B   4      15.785   7.690   5.9580  0.00  0.00     0.000 C
ATOM     47  C3  BGC B   4      16.706   7.649   7.1530  0.00  0.00     0.000 C
ATOM     48  C4  BGC B   4      15.939   7.197   8.3990  0.00  0.00     0.000 C
ATOM     49  C5  BGC B   4      15.193   5.886   8.1270  0.00  0.00     0.000 C
ATOM     50  O5  BGC B   4      14.347   6.039   6.9780  0.00  0.00     0.000 O
ATOM     51   O  BGC B   4      16.557   7.991   4.7800  0.00  0.00     0.000 O
ATOM     53  HD  BGC B   4      17.200   7.742   5.3050  0.00  0.00     0.000 HD
ATOM     53   O  BGC B   4      17.246   8.962   7.3660  0.00  0.00     0.000 O
ATOM     55  HD  BGC B   4      17.888   8.714   7.8910  0.00  0.00     0.000 HD
ATOM     55   C  BGC B   4      14.309   5.418   9.2690  0.00  0.00     0.000 C
ATOM     56   O  BGC B   4      13.409   6.481   9.5880  0.00  0.00     0.000 O
ATOM     58  HD  BGC B   4      14.052   6.233  10.1130  0.00  0.00     0.000 HD
BRANCH 45 58
ATOM     58  O4  BGC B   5      14.070   6.537   4.8300  0.00  0.00     0.000 O
BRANCH 58 62
ATOM     59  C1  BGC B   5      12.373   4.771   1.4910  0.00  0.00     0.000 C
ATOM     60  C2  BGC B   5      12.014   4.132   2.8180  0.00  0.00     0.000 C
ATOM     61  C3  BGC B   5      12.329   5.074   3.9640  0.00  0.00     0.000 C
ATOM     62  C4  BGC B   5      13.784   5.506   3.8810  0.00  0.00     0.000 C
ATOM     63  C5  BGC B   5      14.102   6.070   2.4890  0.00  0.00     0.000 C
ATOM     64  O5  BGC B   5      13.767   5.093   1.5090  0.00  0.00     0.000 O
ATOM     65   O  BGC B   5      16.287   5.223   2.5710  0.00  0.00     0.000 O
ATOM     67  HD  BGC B   5      16.889   4.957   3.1330  0.00  0.00     0.000 HD
ATOM     67   O  BGC B   5      16.287   5.223   2.5710  0.00  0.00     0.000 O
ATOM     69  HD  BGC B   5      16.889   4.957   3.1330  0.00  0.00     0.000 HD
ENDBRANCH 58 62
ENDBRANCH 45 58
ENDBRANCH 44 48
ENDBRANCH 31 44
ENDBRANCH 30 34
ENDBRANCH 17 30
ENDBRANCH 16 20
ENDBRANCH 1 16
TORSDOF 8
ENDMDL
MODEL 47
REMARK VINA RESULT:      -1.6      7.115     12.153
ROOT
ATOM      1  C1  BGC B   1      13.764   7.403   4.3580  0.00  0.00     0.000 C
ATOM      2  C2  BGC B   1      12.336   7.941   4.2810  0.00  0.00     0.000 C
ATOM      3  C3  BGC B   1      11.422   6.904   3.6580  0.00  0.00     0.000 C
ATOM      4  C4  BGC B   1      11.989   6.413   2.3310  0.00  0.00     0.000 C
ATOM      5  C5  BGC B   1      13.400   5.897   2.5720  0.00  0.00     0.000 C
ATOM      6  O5  BGC B   1      14.184   7.001   3.0620  0.00  0.00     0.000 O
ATOM      7   O  BGC B   1      11.873   8.245   5.6070  0.00  0.00     0.000 O
ATOM      9  HD  BGC B   1      11.021   8.202   5.7550  0.00  0.00     0.000 HD
ATOM      9   O  BGC B   1      10.125   7.480   3.4760  0.00  0.00     0.000 O
ATOM     11  HD  BGC B   1       9.273   7.438   3.6240  0.00  0.00     0.000 HD
ATOM     11   O  BGC B   1      11.177   5.376   1.8240  0.00  0.00     0.000 O
ATOM     13  HD  BGC B   1      10.325   5.333   1.9730  0.00  0.00     0.000 HD
ATOM     13   C  BGC B   1      14.088   5.323   1.3420  0.00  0.00     0.000 C
ATOM     14   O  BGC B   1      14.123   6.248   0.2590  0.00  0.00     0.000 O
ATOM     16  HD  BGC B   1      13.270   6.205   0.4070  0.00  0.00     0.000 HD
ENDROOT
BRANCH 1 16
ATOM     16  O4  BGC B   2      14.592   8.517   4.6880  0.00  0.00     0.000 O
BRANCH 16 20
ATOM     17  C1  BGC B   2      18.244   9.398   6.2450  0.00  0.00     0.000 C
ATOM     18  C2  BGC B   2      18.285   9.002   4.7760  0.00  0.00     0.000 C
ATOM     19  C3  BGC B   2      16.864   9.055   4.2200  0.00  0.00     0.000 C
ATOM     20  C4  BGC B   2      15.932   8.213   5.0670  0.00  0.00     0.000 C
ATOM     21  C5  BGC B   2      16.066   8.517   6.5590  0.00  0.00     0.000 C
ATOM     22  O5  BGC B   2      17.448   8.410   6.9240  0.00  0.00     0.000 O
ATOM     23   O  BGC B   2      19.112   9.919   4.0400  0.00  0.00     0.000 O
ATOM     25  HD  BGC B   2      18.255   9.822   4.1220  0.00  0.00     0.000 HD
ATOM     25   O  BGC B   2      16.854   8.598   2.8730  0.00  0.00     0.000 O
ATOM     27  HD  BGC B   2      15.997   8.502   2.9540  0.00  0.00     0.000 HD
ATOM     27   C  BGC B   2      15.278   7.551   7.4360  0.00  0.00     0.000 C
ATOM     28   O  BGC B   2      15.621   6.192   7.2230  0.00  0.00     0.000 O
ATOM     30  HD  BGC B   2      14.764   6.095   7.3050  0.00  0.00     0.000 HD
BRANCH 17 30
ATOM     30  O4  BGC B   3      19.555   9.228   6.7510  0.00  0.00     0.000 O
BRANCH 30 34
ATOM     31  C1  BGC B   3      22.072  10.836   9.5800  0.00  0.00     0.000 C
ATOM     32  C2  BGC B   3      20.902  10.037  10.1520  0.00  0.00     0.000 C
ATOM     33  C3  BGC B   3      20.302   9.185   9.0480  0.00  0.00     0.000 C
ATOM     34  C4  BGC B   3      19.906  10.061   7.8600  0.00  0.00     0.000 C
ATOM     35  C5  BGC B   3      21.074  10.933   7.4340  0.00  0.00     0.000 C
ATOM     36  O5  BGC B   3      21.550  11.675   8.5620  0.00  0.00     0.000 O
ATOM     37   O  BGC B   3      21.375   9.172  11.1830  0.00  0.00     0.000 O
ATOM     39  HD  BGC B   3      20.553   8.991  11.3850  0.00  0.00     0.000 HD
ATOM     39   O  BGC B   3      19.169   8.506   9.5690  0.00  0.00     0.000 O
ATOM     41  HD  BGC B   3      18.347   8.324   9.7710  0.00  0.00     0.000 HD
ATOM     41   C  BGC B   3      20.742  11.909   6.3110  0.00  0.00     0.000 C
ATOM     42   O  BGC B   3      19.676  12.745   6.6940  0.00  0.00     0.000 O
ATOM     44  HD  BGC B   3      18.854  12.564   6.8960  0.00  0.00     0.000 HD
BRANCH 31 44
ATOM     44  O4  BGC B   4      22.534  11.685  10.5990  0.00  0.00     0.000 O
BRANCH 44 48
ATOM     45  C1  BGC B   4      25.984  13.437  11.9510  0.00  0.00     0.000 C
ATOM     46  C2  BGC B   4      25.398  14.068  10.6960  0.00  0.00     0.000 C
ATOM     47  C3  BGC B   4      23.968  13.616  10.5270  0.00  0.00     0.000 C
ATOM     48  C4  BGC B   4      23.887  12.087  10.5460  0.00  0.00     0.000 C
ATOM     49  C5  BGC B   4      24.588  11.526  11.7900  0.00  0.00     0.000 C
ATOM     50  O5  BGC B   4      25.937  12.013  11.8470  0.00  0.00     0.000 O
ATOM     51   O  BGC B   4      25.428  15.503  10.8050  0.00  0.00     0.000 O
ATOM     53  HD  BGC B   4      24.590  15.370  10.9780  0.00  0.00     0.000 HD
ATOM     53   O  BGC B   4      23.472  14.112   9.2750  0.00  0.00     0.000 O
ATOM     55  HD  BGC B   4      22.634  13.979   9.4490  0.00  0.00     0.000 HD
ATOM     55   C  BGC B   4      24.662  10.010  11.8380  0.00  0.00     0.000 C
ATOM     56   O  BGC B   4      25.288   9.565  10.6330  0.00  0.00     0.000 O
ATOM     58  HD  BGC B   4      24.450   9.432  10.8070  0.00  0.00     0.000 HD
BRANCH 45 58
ATOM     58  O4  BGC B   5      27.387  13.697  11.9010  0.00  0.00     0.000 O
BRANCH 58 62
ATOM     59  C1  BGC B   5      30.744  13.810  14.3220  0.00  0.00     0.000 C
ATOM     60  C2  BGC B   5      30.312  12.429  13.8740  0.00  0.00     0.000 C
ATOM     61  C3  BGC B   5      29.366  12.523  12.6920  0.00  0.00     0.000 C
ATOM     62  C4  BGC B   5      28.199  13.431  13.0470  0.00  0.00     0.000 C
ATOM     63  C5  BGC B   5      28.705  14.784  13.5680  0.00  0.00     0.000 C
ATOM     64  O5  BGC B   5      29.574  14.556  14.6720  0.00  0.00     0.000 O
ATOM     65   O  BGC B   5      26.894  14.970  15.0440  0.00  0.00     0.000 O
ATOM     67  HD  BGC B   5      26.090  14.673  15.1700  0.00  0.00     0.000 HD
ATOM     67   O  BGC B   5      26.894  14.970  15.0440  0.00  0.00     0.000 O
ATOM     69  HD  BGC B   5      26.090  14.673  15.1700  0.00  0.00     0.000 HD
ENDBRANCH 58 62
ENDBRANCH 45 58
ENDBRANCH 44 48
ENDBRANCH 31 44
ENDBRANCH 30 34
ENDBRANCH 17 30
ENDBRANCH 16 20
ENDBRANCH 1 16
TORSDOF 8
ENDMDL
MODEL 48
REMARK VINA RESULT:      -1.4      9.714     16.615
ROOT
ATOM      1  C1  BGC B   1      21.385   9.981  18.8030  0.00  0.00     0.000 C
ATOM      2  C2  BGC B   1      22.827  10.421  19.0510  0.00  0.00     0.000 C
ATOM      3  C3  BGC B   1      23.195  10.205  20.5070  0.00  0.00     0.000 C
ATOM      4  C4  BGC B   1      22.166  10.853  21.4240  0.00  0.00     0.000 C
ATOM      5  C5  BGC B   1      20.791  10.307  21.0680  0.00  0.00     0.000 C
ATOM      6  O5  BGC B   1      20.525  10.668  19.7000  0.00  0.00     0.000 O
ATOM      7   O  BGC B   1      23.708   9.645  18.2210  0.00  0.00     0.000 O
ATOM      9  HD  BGC B   1      24.518   9.520  18.5000  0.00  0.00     0.000 HD
ATOM      9   O  BGC B   1      24.498  10.746  20.7400  0.00  0.00     0.000 O
ATOM     11  HD  BGC B   1      25.308  10.621  21.0190  0.00  0.00     0.000 HD
ATOM     11   O  BGC B   1      22.471  10.549  22.7680  0.00  0.00     0.000 O
ATOM     13  HD  BGC B   1      23.281  10.424  23.0470  0.00  0.00     0.000 HD
ATOM     13   C  BGC B   1      19.653  10.826  21.9360  0.00  0.00     0.000 C
ATOM     14   O  BGC B   1      19.586  12.249  21.9470  0.00  0.00     0.000 O
ATOM     16  HD  BGC B   1      20.396  12.124  22.2270  0.00  0.00     0.000 HD
ENDROOT
BRANCH 1 16
ATOM     16  O4  BGC B   2      21.038  10.467  17.5080  0.00  0.00     0.000 O
BRANCH 16 20
ATOM     17  C1  BGC B   2      18.829   9.514  14.2290  0.00  0.00     0.000 C
ATOM     18  C2  BGC B   2      17.994   9.961  15.4200  0.00  0.00     0.000 C
ATOM     19  C3  BGC B   2      18.917  10.628  16.4370  0.00  0.00     0.000 C
ATOM     20  C4  BGC B   2      20.068   9.708  16.7920  0.00  0.00     0.000 C
ATOM     21  C5  BGC B   2      20.758   9.134  15.5540  0.00  0.00     0.000 C
ATOM     22  O5  BGC B   2      19.764   8.533  14.7150  0.00  0.00     0.000 O
ATOM     23   O  BGC B   2      16.998  10.906  14.9980  0.00  0.00     0.000 O
ATOM     25  HD  BGC B   2      17.758  10.983  15.4050  0.00  0.00     0.000 HD
ATOM     25   O  BGC B   2      18.183  10.971  17.6060  0.00  0.00     0.000 O
ATOM     27  HD  BGC B   2      18.943  11.047  18.0130  0.00  0.00     0.000 HD
ATOM     27   C  BGC B   2      21.789   8.064  15.8910  0.00  0.00     0.000 C
ATOM     28   O  BGC B   2      21.257   6.988  16.6460  0.00  0.00     0.000 O
ATOM     30  HD  BGC B   2      22.018   7.065  17.0530  0.00  0.00     0.000 HD
BRANCH 17 30
ATOM     30  O4  BGC B   3      17.963   8.804  13.3650  0.00  0.00     0.000 O
BRANCH 30 34
ATOM     31  C1  BGC B   3      17.335   8.181   9.3470  0.00  0.00     0.000 C
ATOM     32  C2  BGC B   3      18.606   7.535   9.8980  0.00  0.00     0.000 C
ATOM     33  C3  BGC B   3      18.517   7.492  11.4140  0.00  0.00     0.000 C
ATOM     34  C4  BGC B   3      18.266   8.893  11.9690  0.00  0.00     0.000 C
ATOM     35  C5  BGC B   3      17.075   9.531  11.2750  0.00  0.00     0.000 C
ATOM     36  O5  BGC B   3      17.278   9.503   9.8590  0.00  0.00     0.000 O
ATOM     37   O  BGC B   3      18.709   6.198   9.4130  0.00  0.00     0.000 O
ATOM     39  HD  BGC B   3      19.511   6.160   9.7390  0.00  0.00     0.000 HD
ATOM     39   O  BGC B   3      19.733   6.962  11.9200  0.00  0.00     0.000 O
ATOM     41  HD  BGC B   3      20.534   6.923  12.2460  0.00  0.00     0.000 HD
ATOM     41   C  BGC B   3      16.807  10.970  11.7030  0.00  0.00     0.000 C
ATOM     42   O  BGC B   3      17.943  11.767  11.4660  0.00  0.00     0.000 O
ATOM     44  HD  BGC B   3      18.745  11.728  11.7910  0.00  0.00     0.000 HD
BRANCH 31 44
ATOM     44  O4  BGC B   4      17.498   8.297   7.9570  0.00  0.00     0.000 O
BRANCH 44 48
ATOM     45  C1  BGC B   4      15.258   8.413   4.5250  0.00  0.00     0.000 C
ATOM     46  C2  BGC B   4      15.372   9.743   5.2580  0.00  0.00     0.000 C
ATOM     47  C3  BGC B   4      16.507   9.675   6.2490  0.00  0.00     0.000 C
ATOM     48  C4  BGC B   4      16.331   8.470   7.1780  0.00  0.00     0.000 C
ATOM     49  C5  BGC B   4      16.121   7.188   6.3640  0.00  0.00     0.000 C
ATOM     50  O5  BGC B   4      15.019   7.362   5.4620  0.00  0.00     0.000 O
ATOM     51   O  BGC B   4      15.631  10.803   4.3180  0.00  0.00     0.000 O
ATOM     53  HD  BGC B   4      16.430  10.703   4.6350  0.00  0.00     0.000 HD
ATOM     53   O  BGC B   4      16.519  10.884   7.0220  0.00  0.00     0.000 O
ATOM     55  HD  BGC B   4      17.319  10.784   7.3390  0.00  0.00     0.000 HD
ATOM     55   C  BGC B   4      15.821   5.956   7.1990  0.00  0.00     0.000 C
ATOM     56   O  BGC B   4      14.689   6.251   8.0200  0.00  0.00     0.000 O
ATOM     58  HD  BGC B   4      15.489   6.151   8.3370  0.00  0.00     0.000 HD
BRANCH 45 58
ATOM     58  O4  BGC B   5      14.025   8.466   3.8090  0.00  0.00     0.000 O
BRANCH 58 62
ATOM     59  C1  BGC B   5      12.291   7.408   0.2000  0.00  0.00     0.000 C
ATOM     60  C2  BGC B   5      12.774   6.252   1.0530  0.00  0.00     0.000 C
ATOM     61  C3  BGC B   5      12.996   6.703   2.4840  0.00  0.00     0.000 C
ATOM     62  C4  BGC B   5      13.939   7.895   2.5010  0.00  0.00     0.000 C
ATOM     63  C5  BGC B   5      13.435   8.997   1.5570  0.00  0.00     0.000 C
ATOM     64  O5  BGC B   5      13.273   8.448   0.2540  0.00  0.00     0.000 O
ATOM     65   O  BGC B   5      15.626   9.625   1.0090  0.00  0.00     0.000 O
ATOM     67  HD  BGC B   5      16.438   9.577   1.3060  0.00  0.00     0.000 HD
ATOM     67   O  BGC B   5      15.626   9.625   1.0090  0.00  0.00     0.000 O
ATOM     69  HD  BGC B   5      16.438   9.577   1.3060  0.00  0.00     0.000 HD
ENDBRANCH 58 62
ENDBRANCH 45 58
ENDBRANCH 44 48
ENDBRANCH 31 44
ENDBRANCH 30 34
ENDBRANCH 17 30
ENDBRANCH 16 20
ENDBRANCH 1 16
TORSDOF 8
ENDMDL
MODEL 49
REMARK VINA RESULT:      -1.4     11.317     14.540
ROOT
ATOM      1  C1  BGC B   1       6.873   3.728   5.7880  0.00  0.00     0.000 C
ATOM      2  C2  BGC B   1       5.630   3.134   5.1270  0.00  0.00     0.000 C
ATOM      3  C3  BGC B   1       5.736   3.251   3.6190  0.00  0.00     0.000 C
ATOM      4  C4  BGC B   1       6.050   4.684   3.2100  0.00  0.00     0.000 C
ATOM      5  C5  BGC B   1       7.313   5.127   3.9330  0.00  0.00     0.000 C
ATOM      6  O5  BGC B   1       7.044   5.067   5.3460  0.00  0.00     0.000 O
ATOM      7   O  BGC B   1       5.520   1.747   5.4880  0.00  0.00     0.000 O
ATOM      9  HD  BGC B   1       5.116   1.218   4.9340  0.00  0.00     0.000 HD
ATOM      9   O  BGC B   1       4.507   2.811   3.0340  0.00  0.00     0.000 O
ATOM     11  HD  BGC B   1       4.103   2.281   2.4800  0.00  0.00     0.000 HD
ATOM     11   O  BGC B   1       6.247   4.746   1.8140  0.00  0.00     0.000 O
ATOM     13  HD  BGC B   1       5.844   4.217   1.2600  0.00  0.00     0.000 HD
ATOM     13   C  BGC B   1       7.788   6.531   3.5890  0.00  0.00     0.000 C
ATOM     14   O  BGC B   1       6.777   7.512   3.8020  0.00  0.00     0.000 O
ATOM     16  HD  BGC B   1       6.373   6.983   3.2490  0.00  0.00     0.000 HD
ENDROOT
BRANCH 1 16
ATOM     16  O4  BGC B   2       6.574   3.831   7.1790  0.00  0.00     0.000 O
BRANCH 16 20
ATOM     17  C1  BGC B   2       8.310   3.614  10.8500  0.00  0.00     0.000 C
ATOM     18  C2  BGC B   2       8.733   4.834  10.0450  0.00  0.00     0.000 C
ATOM     19  C3  BGC B   2       7.766   5.002   8.8750  0.00  0.00     0.000 C
ATOM     20  C4  BGC B   2       7.681   3.722   8.0690  0.00  0.00     0.000 C
ATOM     21  C5  BGC B   2       7.443   2.494   8.9490  0.00  0.00     0.000 C
ATOM     22  O5  BGC B   2       8.437   2.472   9.9810  0.00  0.00     0.000 O
ATOM     23   O  BGC B   2       8.684   6.010  10.8690  0.00  0.00     0.000 O
ATOM     25  HD  BGC B   2       8.164   5.690  10.2550  0.00  0.00     0.000 HD
ATOM     25   O  BGC B   2       8.189   6.079   8.0470  0.00  0.00     0.000 O
ATOM     27  HD  BGC B   2       7.669   5.758   7.4330  0.00  0.00     0.000 HD
ATOM     27   C  BGC B   2       7.544   1.183   8.1790  0.00  0.00     0.000 C
ATOM     28   O  BGC B   2       8.783   1.020   7.5080  0.00  0.00     0.000 O
ATOM     30  HD  BGC B   2       8.263   0.699   6.8940  0.00  0.00     0.000 HD
BRANCH 17 30
ATOM     30  O4  BGC B   3       9.291   3.425  11.8520  0.00  0.00     0.000 O
BRANCH 30 34
ATOM     31  C1  BGC B   3       9.615   2.068  15.7230  0.00  0.00     0.000 C
ATOM     32  C2  BGC B   3       9.357   0.975  14.6870  0.00  0.00     0.000 C
ATOM     33  C3  BGC B   3       9.654   1.528  13.3040  0.00  0.00     0.000 C
ATOM     34  C4  BGC B   3       8.838   2.796  13.0550  0.00  0.00     0.000 C
ATOM     35  C5  BGC B   3       9.031   3.781  14.1950  0.00  0.00     0.000 C
ATOM     36  O5  BGC B   3       8.727   3.138  15.4370  0.00  0.00     0.000 O
ATOM     37   O  BGC B   3      10.229  -0.126  14.9290  0.00  0.00     0.000 O
ATOM     39  HD  BGC B   3       9.786  -0.585  14.3440  0.00  0.00     0.000 HD
ATOM     39   O  BGC B   3       9.337   0.532  12.3430  0.00  0.00     0.000 O
ATOM     41  HD  BGC B   3       8.894   0.073  11.7580  0.00  0.00     0.000 HD
ATOM     41   C  BGC B   3       8.180   5.041  14.0760  0.00  0.00     0.000 C
ATOM     42   O  BGC B   3       6.816   4.701  14.0050  0.00  0.00     0.000 O
ATOM     44  HD  BGC B   3       6.373   4.242  13.4190  0.00  0.00     0.000 HD
BRANCH 31 44
ATOM     44  O4  BGC B   4       9.233   1.555  16.9730  0.00  0.00     0.000 O
BRANCH 44 48
ATOM     45  C1  BGC B   4      10.200   1.819  20.9480  0.00  0.00     0.000 C
ATOM     46  C2  BGC B   4       9.469   3.031  20.3870  0.00  0.00     0.000 C
ATOM     47  C3  BGC B   4       8.831   2.668  19.0690  0.00  0.00     0.000 C
ATOM     48  C4  BGC B   4       9.876   2.081  18.1150  0.00  0.00     0.000 C
ATOM     49  C5  BGC B   4      10.637   0.933  18.7910  0.00  0.00     0.000 C
ATOM     50  O5  BGC B   4      11.205   1.389  20.0270  0.00  0.00     0.000 O
ATOM     51   O  BGC B   4       8.444   3.457  21.3050  0.00  0.00     0.000 O
ATOM     53  HD  BGC B   4       7.948   3.046  20.7260  0.00  0.00     0.000 HD
ATOM     53   O  BGC B   4       8.259   3.851  18.4910  0.00  0.00     0.000 O
ATOM     55  HD  BGC B   4       7.763   3.440  17.9120  0.00  0.00     0.000 HD
ATOM     55   C  BGC B   4      11.775   0.363  17.9640  0.00  0.00     0.000 C
ATOM     56   O  BGC B   4      12.646   1.442  17.6180  0.00  0.00     0.000 O
ATOM     58  HD  BGC B   4      12.150   1.031  17.0390  0.00  0.00     0.000 HD
BRANCH 45 58
ATOM     58  O4  BGC B   5      10.980   2.304  22.0410  0.00  0.00     0.000 O
BRANCH 58 62
ATOM     59  C1  BGC B   5      11.932   1.444  25.9780  0.00  0.00     0.000 C
ATOM     60  C2  BGC B   5      12.639   0.598  24.9390  0.00  0.00     0.000 C
ATOM     61  C3  BGC B   5      12.550   1.249  23.5720  0.00  0.00     0.000 C
ATOM     62  C4  BGC B   5      11.093   1.522  23.2330  0.00  0.00     0.000 C
ATOM     63  C5  BGC B   5      10.415   2.314  24.3600  0.00  0.00     0.000 C
ATOM     64  O5  BGC B   5      10.565   1.597  25.5810  0.00  0.00     0.000 O
ATOM     65   O  BGC B   5       8.372   1.227  23.9860  0.00  0.00     0.000 O
ATOM     67  HD  BGC B   5       7.941   0.787  23.3770  0.00  0.00     0.000 HD
ATOM     67   O  BGC B   5       8.372   1.227  23.9860  0.00  0.00     0.000 O
ATOM     69  HD  BGC B   5       7.941   0.787  23.3770  0.00  0.00     0.000 HD
ENDBRANCH 58 62
ENDBRANCH 45 58
ENDBRANCH 44 48
ENDBRANCH 31 44
ENDBRANCH 30 34
ENDBRANCH 17 30
ENDBRANCH 16 20
ENDBRANCH 1 16
TORSDOF 8
ENDMDL
MODEL 50
REMARK VINA RESULT:      -1.3     11.066     14.784
ROOT
ATOM      1  C1  BGC B   1       9.502   7.486   3.0830  0.00  0.00     0.000 C
ATOM      2  C2  BGC B   1       8.626   7.124   1.8850  0.00  0.00     0.000 C
ATOM      3  C3  BGC B   1       8.999   5.750   1.3630  0.00  0.00     0.000 C
ATOM      4  C4  BGC B   1      10.498   5.660   1.1050  0.00  0.00     0.000 C
ATOM      5  C5  BGC B   1      11.231   6.031   2.3860  0.00  0.00     0.000 C
ATOM      6  O5  BGC B   1      10.870   7.386   2.7110  0.00  0.00     0.000 O
ATOM      7   O  BGC B   1       7.248   7.118   2.2920  0.00  0.00     0.000 O
ATOM      9  HD  BGC B   1       6.703   6.602   1.8590  0.00  0.00     0.000 HD
ATOM      9   O  BGC B   1       8.259   5.493   0.1660  0.00  0.00     0.000 O
ATOM     11  HD  BGC B   1       7.714   4.978  -0.2660  0.00  0.00     0.000 HD
ATOM     11   O  BGC B   1      10.834   4.344   0.7230  0.00  0.00     0.000 O
ATOM     13  HD  BGC B   1      10.289   3.828   0.2900  0.00  0.00     0.000 HD
ATOM     13   C  BGC B   1      12.748   5.942   2.3030  0.00  0.00     0.000 C
ATOM     14   O  BGC B   1      13.279   6.720   1.2350  0.00  0.00     0.000 O
ATOM     16  HD  BGC B   1      12.734   6.204   0.8020  0.00  0.00     0.000 HD
ENDROOT
BRANCH 1 16
ATOM     16  O4  BGC B   2       9.285   8.874   3.3300  0.00  0.00     0.000 O
BRANCH 16 20
ATOM     17  C1  BGC B   2       8.967  11.579   6.3510  0.00  0.00     0.000 C
ATOM     18  C2  BGC B   2      10.304  10.852   6.3180  0.00  0.00     0.000 C
ATOM     19  C3  BGC B   2      10.445  10.157   4.9660  0.00  0.00     0.000 C
ATOM     20  C4  BGC B   2       9.247   9.270   4.6990  0.00  0.00     0.000 C
ATOM     21  C5  BGC B   2       7.921   9.996   4.9300  0.00  0.00     0.000 C
ATOM     22  O5  BGC B   2       7.941  10.575   6.2410  0.00  0.00     0.000 O
ATOM     23   O  BGC B   2      11.380  11.791   6.4790  0.00  0.00     0.000 O
ATOM     25  HD  BGC B   2      11.050  11.373   5.7960  0.00  0.00     0.000 HD
ATOM     25   O  BGC B   2      11.643   9.389   4.9390  0.00  0.00     0.000 O
ATOM     27  HD  BGC B   2      11.312   8.972   4.2560  0.00  0.00     0.000 HD
ATOM     27   C  BGC B   2       6.715   9.069   4.8510  0.00  0.00     0.000 C
ATOM     28   O  BGC B   2       6.787   7.973   5.7480  0.00  0.00     0.000 O
ATOM     30  HD  BGC B   2       6.457   7.555   5.0650  0.00  0.00     0.000 HD
BRANCH 17 30
ATOM     30  O4  BGC B   3       8.823  12.113   7.6530  0.00  0.00     0.000 O
BRANCH 30 34
ATOM     31  C1  BGC B   3       7.109  15.326   9.5660  0.00  0.00     0.000 C
ATOM     32  C2  BGC B   3       6.112  14.294   9.0420  0.00  0.00     0.000 C
ATOM     33  C3  BGC B   3       6.855  13.006   8.7320  0.00  0.00     0.000 C
ATOM     34  C4  BGC B   3       8.002  13.280   7.7600  0.00  0.00     0.000 C
ATOM     35  C5  BGC B   3       8.871  14.414   8.2740  0.00  0.00     0.000 C
ATOM     36  O5  BGC B   3       8.054  15.560   8.5340  0.00  0.00     0.000 O
ATOM     37   O  BGC B   3       5.137  14.021  10.0470  0.00  0.00     0.000 O
ATOM     39  HD  BGC B   3       4.684  13.571   9.4620  0.00  0.00     0.000 HD
ATOM     39   O  BGC B   3       5.936  12.080   8.1740  0.00  0.00     0.000 O
ATOM     41  HD  BGC B   3       5.482  11.630   7.5890  0.00  0.00     0.000 HD
ATOM     41   C  BGC B   3       9.991  14.817   7.3200  0.00  0.00     0.000 C
ATOM     42   O  BGC B   3       9.455  15.194   6.0740  0.00  0.00     0.000 O
ATOM     44  HD  BGC B   3       9.002  14.744   5.4890  0.00  0.00     0.000 HD
BRANCH 31 44
ATOM     44  O4  BGC B   4       6.406  16.529   9.7440  0.00  0.00     0.000 O
BRANCH 44 48
ATOM     45  C1  BGC B   4       6.384  19.882  12.1030  0.00  0.00     0.000 C
ATOM     46  C2  BGC B   4       7.536  19.807  11.1120  0.00  0.00     0.000 C
ATOM     47  C3  BGC B   4       7.229  18.769  10.0600  0.00  0.00     0.000 C
ATOM     48  C4  BGC B   4       6.893  17.428  10.7200  0.00  0.00     0.000 C
ATOM     49  C5  BGC B   4       5.796  17.607  11.7760  0.00  0.00     0.000 C
ATOM     50  O5  BGC B   4       6.194  18.609  12.7230  0.00  0.00     0.000 O
ATOM     51   O  BGC B   4       7.720  21.084  10.4720  0.00  0.00     0.000 O
ATOM     53  HD  BGC B   4       7.308  20.669   9.8330  0.00  0.00     0.000 HD
ATOM     53   O  BGC B   4       8.376  18.618   9.2120  0.00  0.00     0.000 O
ATOM     55  HD  BGC B   4       7.964  18.202   8.5730  0.00  0.00     0.000 HD
ATOM     55   C  BGC B   4       5.476  16.351  12.5670  0.00  0.00     0.000 C
ATOM     56   O  BGC B   4       6.694  15.878  13.1450  0.00  0.00     0.000 O
ATOM     58  HD  BGC B   4       6.282  15.463  12.5070  0.00  0.00     0.000 HD
BRANCH 45 58
ATOM     58  O4  BGC B   5       6.854  20.679  13.1900  0.00  0.00     0.000 O
BRANCH 58 62
ATOM     59  C1  BGC B   5       5.757  23.965  15.4590  0.00  0.00     0.000 C
ATOM     60  C2  BGC B   5       5.216  22.633  15.9390  0.00  0.00     0.000 C
ATOM     61  C3  BGC B   5       5.991  21.488  15.3170  0.00  0.00     0.000 C
ATOM     62  C4  BGC B   5       5.979  21.629  13.8030  0.00  0.00     0.000 C
ATOM     63  C5  BGC B   5       6.462  23.026  13.3860  0.00  0.00     0.000 C
ATOM     64  O5  BGC B   5       5.654  24.004  14.0320  0.00  0.00     0.000 O
ATOM     65   O  BGC B   5       5.009  23.055  11.5470  0.00  0.00     0.000 O
ATOM     67  HD  BGC B   5       4.562  22.523  11.0300  0.00  0.00     0.000 HD
ATOM     67   O  BGC B   5       5.009  23.055  11.5470  0.00  0.00     0.000 O
ATOM     69  HD  BGC B   5       4.562  22.523  11.0300  0.00  0.00     0.000 HD
ENDBRANCH 58 62
ENDBRANCH 45 58
ENDBRANCH 44 48
ENDBRANCH 31 44
ENDBRANCH 30 34
ENDBRANCH 17 30
ENDBRANCH 16 20
ENDBRANCH 1 16
TORSDOF 8
ENDMDL
MODEL 51
REMARK VINA RESULT:      -1.3     10.943     15.499
ROOT
ATOM      1  C1  BGC B   1      16.905  11.260   4.2770  0.00  0.00     0.000 C
ATOM      2  C2  BGC B   1      18.161  11.415   3.4200  0.00  0.00     0.000 C
ATOM      3  C3  BGC B   1      17.780  11.760   1.9940  0.00  0.00     0.000 C
ATOM      4  C4  BGC B   1      16.760  10.765   1.4530  0.00  0.00     0.000 C
ATOM      5  C5  BGC B   1      15.569  10.734   2.3980  0.00  0.00     0.000 C
ATOM      6  O5  BGC B   1      16.049  10.294   3.6820  0.00  0.00     0.000 O
ATOM      7   O  BGC B   1      18.975  12.469   3.9610  0.00  0.00     0.000 O
ATOM      9  HD  BGC B   1      19.491  12.900   3.4140  0.00  0.00     0.000 HD
ATOM      9   O  BGC B   1      18.962  11.767   1.1880  0.00  0.00     0.000 O
ATOM     11  HD  BGC B   1      19.478  12.198   0.6420  0.00  0.00     0.000 HD
ATOM     11   O  BGC B   1      16.343  11.166   0.1660  0.00  0.00     0.000 O
ATOM     13  HD  BGC B   1      16.859  11.597  -0.3800  0.00  0.00     0.000 HD
ATOM     13   C  BGC B   1      14.434   9.815   1.9660  0.00  0.00     0.000 C
ATOM     14   O  BGC B   1      14.873   8.478   1.7460  0.00  0.00     0.000 O
ATOM     16  HD  BGC B   1      15.389   8.909   1.2000  0.00  0.00     0.000 HD
ENDROOT
BRANCH 1 16
ATOM     16  O4  BGC B   2      17.331  10.673   5.5050  0.00  0.00     0.000 O
BRANCH 16 20
ATOM     17  C1  BGC B   2      16.477  10.636   9.4810  0.00  0.00     0.000 C
ATOM     18  C2  BGC B   2      15.488   9.846   8.6360  0.00  0.00     0.000 C
ATOM     19  C3  BGC B   2      16.099   9.627   7.2530  0.00  0.00     0.000 C
ATOM     20  C4  BGC B   2      16.522  10.949   6.6460  0.00  0.00     0.000 C
ATOM     21  C5  BGC B   2      17.359  11.792   7.6090  0.00  0.00     0.000 C
ATOM     22  O5  BGC B   2      16.645  11.917   8.8450  0.00  0.00     0.000 O
ATOM     23   O  BGC B   2      15.228   8.570   9.2430  0.00  0.00     0.000 O
ATOM     25  HD  BGC B   2      15.715   8.824   8.5730  0.00  0.00     0.000 HD
ATOM     25   O  BGC B   2      15.160   8.974   6.4070  0.00  0.00     0.000 O
ATOM     27  HD  BGC B   2      15.647   9.229   5.7380  0.00  0.00     0.000 HD
ATOM     27   C  BGC B   2      17.632  13.196   7.0860  0.00  0.00     0.000 C
ATOM     28   O  BGC B   2      16.453  13.917   6.7690  0.00  0.00     0.000 O
ATOM     30  HD  BGC B   2      16.940  14.172   6.1000  0.00  0.00     0.000 HD
BRANCH 17 30
ATOM     30  O4  BGC B   3      15.833  10.916  10.7100  0.00  0.00     0.000 O
BRANCH 30 34
ATOM     31  C1  BGC B   3      16.739  11.467  14.6850  0.00  0.00     0.000 C
ATOM     32  C2  BGC B   3      17.179  12.609  13.7690  0.00  0.00     0.000 C
ATOM     33  C3  BGC B   3      16.453  12.482  12.4420  0.00  0.00     0.000 C
ATOM     34  C4  BGC B   3      16.696  11.100  11.8360  0.00  0.00     0.000 C
ATOM     35  C5  BGC B   3      16.374  10.015  12.8490  0.00  0.00     0.000 C
ATOM     36  O5  BGC B   3      17.112  10.253  14.0520  0.00  0.00     0.000 O
ATOM     37   O  BGC B   3      16.824  13.857  14.3610  0.00  0.00     0.000 O
ATOM     39  HD  BGC B   3      17.287  14.259  13.7500  0.00  0.00     0.000 HD
ATOM     39   O  BGC B   3      16.925  13.500  11.5720  0.00  0.00     0.000 O
ATOM     41  HD  BGC B   3      17.388  13.903  10.9610  0.00  0.00     0.000 HD
ATOM     41   C  BGC B   3      16.674   8.603  12.3610  0.00  0.00     0.000 C
ATOM     42   O  BGC B   3      18.032   8.491  12.0030  0.00  0.00     0.000 O
ATOM     44  HD  BGC B   3      18.495   8.894  11.3920  0.00  0.00     0.000 HD
BRANCH 31 44
ATOM     44  O4  BGC B   4      17.504  11.557  15.8590  0.00  0.00     0.000 O
BRANCH 44 48
ATOM     45  C1  BGC B   4      17.252  10.792  19.8780  0.00  0.00     0.000 C
ATOM     46  C2  BGC B   4      17.418   9.558  19.0030  0.00  0.00     0.000 C
ATOM     47  C3  BGC B   4      17.887   9.973  17.6310  0.00  0.00     0.000 C
ATOM     48  C4  BGC B   4      16.943  11.027  17.0420  0.00  0.00     0.000 C
ATOM     49  C5  BGC B   4      16.750  12.187  18.0260  0.00  0.00     0.000 C
ATOM     50  O5  BGC B   4      16.299  11.680  19.2910  0.00  0.00     0.000 O
ATOM     51   O  BGC B   4      18.391   8.669  19.5840  0.00  0.00     0.000 O
ATOM     53  HD  BGC B   4      18.880   9.021  18.9620  0.00  0.00     0.000 HD
ATOM     53   O  BGC B   4      17.912   8.817  16.7810  0.00  0.00     0.000 O
ATOM     55  HD  BGC B   4      18.402   9.170  16.1600  0.00  0.00     0.000 HD
ATOM     55   C  BGC B   4      15.738  13.227  17.5790  0.00  0.00     0.000 C
ATOM     56   O  BGC B   4      14.508  12.551  17.3120  0.00  0.00     0.000 O
ATOM     58  HD  BGC B   4      14.997  12.903  16.6910  0.00  0.00     0.000 HD
BRANCH 45 58
ATOM     58  O4  BGC B   5      16.571  10.351  21.0520  0.00  0.00     0.000 O
BRANCH 58 62
ATOM     59  C1  BGC B   5      16.669  10.645  25.1820  0.00  0.00     0.000 C
ATOM     60  C2  BGC B   5      16.212  11.891  24.4520  0.00  0.00     0.000 C
ATOM     61  C3  BGC B   5      15.817  11.559  23.0260  0.00  0.00     0.000 C
ATOM     62  C4  BGC B   5      16.968  10.848  22.3330  0.00  0.00     0.000 C
ATOM     63  C5  BGC B   5      17.436   9.642  23.1610  0.00  0.00     0.000 C
ATOM     64  O5  BGC B   5      17.779  10.088  24.4690  0.00  0.00     0.000 O
ATOM     65   O  BGC B   5      19.659   9.954  22.4840  0.00  0.00     0.000 O
ATOM     67  HD  BGC B   5      20.130  10.323  21.8580  0.00  0.00     0.000 HD
ATOM     67   O  BGC B   5      19.659   9.954  22.4840  0.00  0.00     0.000 O
ATOM     69  HD  BGC B   5      20.130  10.323  21.8580  0.00  0.00     0.000 HD
ENDBRANCH 58 62
ENDBRANCH 45 58
ENDBRANCH 44 48
ENDBRANCH 31 44
ENDBRANCH 30 34
ENDBRANCH 17 30
ENDBRANCH 16 20
ENDBRANCH 1 16
TORSDOF 8
ENDMDL
MODEL 52
REMARK VINA RESULT:      -1.3      6.511     10.347
ROOT
ATOM      1  C1  BGC B   1      12.227   6.914   2.9520  0.00  0.00     0.000 C
ATOM      2  C2  BGC B   1      11.163   5.826   2.8140  0.00  0.00     0.000 C
ATOM      3  C3  BGC B   1      10.324   6.073   1.5750  0.00  0.00     0.000 C
ATOM      4  C4  BGC B   1       9.783   7.497   1.5660  0.00  0.00     0.000 C
ATOM      5  C5  BGC B   1      10.955   8.459   1.6940  0.00  0.00     0.000 C
ATOM      6  O5  BGC B   1      11.598   8.188   2.9530  0.00  0.00     0.000 O
ATOM      7   O  BGC B   1      11.807   4.546   2.7020  0.00  0.00     0.000 O
ATOM      9  HD  BGC B   1      11.389   3.922   2.2700  0.00  0.00     0.000 HD
ATOM      9   O  BGC B   1       9.256   5.122   1.5430  0.00  0.00     0.000 O
ATOM     11  HD  BGC B   1       8.839   4.498   1.1110  0.00  0.00     0.000 HD
ATOM     11   O  BGC B   1       9.096   7.735   0.3560  0.00  0.00     0.000 O
ATOM     13  HD  BGC B   1       8.678   7.111  -0.0760  0.00  0.00     0.000 HD
ATOM     13   C  BGC B   1      10.579   9.934   1.6510  0.00  0.00     0.000 C
ATOM     14   O  BGC B   1       9.604  10.273   2.6330  0.00  0.00     0.000 O
ATOM     16  HD  BGC B   1       9.187   9.649   2.2010  0.00  0.00     0.000 HD
ENDROOT
BRANCH 1 16
ATOM     16  O4  BGC B   2      12.776   6.770   4.2610  0.00  0.00     0.000 O
BRANCH 16 20
ATOM     17  C1  BGC B   2      16.026   7.757   6.4980  0.00  0.00     0.000 C
ATOM     18  C2  BGC B   2      15.187   8.954   6.0750  0.00  0.00     0.000 C
ATOM     19  C3  BGC B   2      13.837   8.448   5.5750  0.00  0.00     0.000 C
ATOM     20  C4  BGC B   2      14.029   7.409   4.4900  0.00  0.00     0.000 C
ATOM     21  C5  BGC B   2      15.030   6.325   4.8930  0.00  0.00     0.000 C
ATOM     22  O5  BGC B   2      16.242   6.959   5.3190  0.00  0.00     0.000 O
ATOM     23   O  BGC B   2      14.976   9.829   7.1960  0.00  0.00     0.000 O
ATOM     25  HD  BGC B   2      14.480   9.243   6.7950  0.00  0.00     0.000 HD
ATOM     25   O  BGC B   2      13.064   9.537   5.0830  0.00  0.00     0.000 O
ATOM     27  HD  BGC B   2      12.568   8.951   4.6810  0.00  0.00     0.000 HD
ATOM     27   C  BGC B   2      15.377   5.382   3.7470  0.00  0.00     0.000 C
ATOM     28   O  BGC B   2      15.878   6.050   2.6010  0.00  0.00     0.000 O
ATOM     30  HD  BGC B   2      15.382   5.464   2.2000  0.00  0.00     0.000 HD
BRANCH 17 30
ATOM     30  O4  BGC B   3      17.304   8.254   6.8470  0.00  0.00     0.000 O
BRANCH 30 34
ATOM     31  C1  BGC B   3      20.326   7.567   9.5520  0.00  0.00     0.000 C
ATOM     32  C2  BGC B   3      19.939   6.351   8.7100  0.00  0.00     0.000 C
ATOM     33  C3  BGC B   3      19.129   6.820   7.5140  0.00  0.00     0.000 C
ATOM     34  C4  BGC B   3      17.924   7.636   7.9790  0.00  0.00     0.000 C
ATOM     35  C5  BGC B   3      18.366   8.739   8.9250  0.00  0.00     0.000 C
ATOM     36  O5  BGC B   3      19.122   8.170   9.9990  0.00  0.00     0.000 O
ATOM     37   O  BGC B   3      21.119   5.708   8.2330  0.00  0.00     0.000 O
ATOM     39  HD  BGC B   3      20.628   5.051   7.9530  0.00  0.00     0.000 HD
ATOM     39   O  BGC B   3      18.709   5.679   6.7810  0.00  0.00     0.000 O
ATOM     41  HD  BGC B   3      18.218   5.022   6.5010  0.00  0.00     0.000 HD
ATOM     41   C  BGC B   3      17.216   9.549   9.5120  0.00  0.00     0.000 C
ATOM     42   O  BGC B   3      16.325   8.702  10.1970  0.00  0.00     0.000 O
ATOM     44  HD  BGC B   3      15.834   8.045   9.9180  0.00  0.00     0.000 HD
BRANCH 31 44
ATOM     44  O4  BGC B   4      20.982   7.087  10.6970  0.00  0.00     0.000 O
BRANCH 44 48
ATOM     45  C1  BGC B   4      23.933   8.136  13.3420  0.00  0.00     0.000 C
ATOM     46  C2  BGC B   4      22.627   8.900  13.5080  0.00  0.00     0.000 C
ATOM     47  C3  BGC B   4      21.525   8.177  12.7740  0.00  0.00     0.000 C
ATOM     48  C4  BGC B   4      21.923   7.942  11.3130  0.00  0.00     0.000 C
ATOM     49  C5  BGC B   4      23.295   7.261  11.2310  0.00  0.00     0.000 C
ATOM     50  O5  BGC B   4      24.263   8.033  11.9560  0.00  0.00     0.000 O
ATOM     51   O  BGC B   4      22.283   8.990  14.9030  0.00  0.00     0.000 O
ATOM     53  HD  BGC B   4      21.738   8.359  14.6680  0.00  0.00     0.000 HD
ATOM     53   O  BGC B   4      20.333   8.974  12.8290  0.00  0.00     0.000 O
ATOM     55  HD  BGC B   4      19.789   8.342  12.5940  0.00  0.00     0.000 HD
ATOM     55   C  BGC B   4      23.828   7.092   9.8200  0.00  0.00     0.000 C
ATOM     56   O  BGC B   4      23.840   8.380   9.2010  0.00  0.00     0.000 O
ATOM     58  HD  BGC B   4      23.296   7.748   8.9660  0.00  0.00     0.000 HD
BRANCH 45 58
ATOM     58  O4  BGC B   5      24.957   9.001  13.8320  0.00  0.00     0.000 O
BRANCH 58 62
ATOM     59  C1  BGC B   5      28.811   8.924  15.3450  0.00  0.00     0.000 C
ATOM     60  C2  BGC B   5      28.701   8.795  13.8400  0.00  0.00     0.000 C
ATOM     61  C3  BGC B   5      27.333   9.246  13.3650  0.00  0.00     0.000 C
ATOM     62  C4  BGC B   5      26.257   8.475  14.1120  0.00  0.00     0.000 C
ATOM     63  C5  BGC B   5      26.471   8.580  15.6290  0.00  0.00     0.000 C
ATOM     64  O5  BGC B   5      27.784   8.125  15.9410  0.00  0.00     0.000 O
ATOM     65   O  BGC B   5      25.651   6.409  15.9640  0.00  0.00     0.000 O
ATOM     67  HD  BGC B   5      25.157   5.806  15.5860  0.00  0.00     0.000 HD
ATOM     67   O  BGC B   5      25.651   6.409  15.9640  0.00  0.00     0.000 O
ATOM     69  HD  BGC B   5      25.157   5.806  15.5860  0.00  0.00     0.000 HD
ENDBRANCH 58 62
ENDBRANCH 45 58
ENDBRANCH 44 48
ENDBRANCH 31 44
ENDBRANCH 30 34
ENDBRANCH 17 30
ENDBRANCH 16 20
ENDBRANCH 1 16
TORSDOF 8
ENDMDL
MODEL 53
REMARK VINA RESULT:      -1.3      9.408     15.447
ROOT
ATOM      1  C1  BGC B   1      16.523  10.917   3.0200  0.00  0.00     0.000 C
ATOM      2  C2  BGC B   1      16.533  10.385   1.5880  0.00  0.00     0.000 C
ATOM      3  C3  BGC B   1      15.128   9.998   1.1670  0.00  0.00     0.000 C
ATOM      4  C4  BGC B   1      14.499   9.060   2.1890  0.00  0.00     0.000 C
ATOM      5  C5  BGC B   1      14.549   9.730   3.5540  0.00  0.00     0.000 C
ATOM      6  O5  BGC B   1      15.935   9.947   3.8760  0.00  0.00     0.000 O
ATOM      7   O  BGC B   1      17.026  11.408   0.7070  0.00  0.00     0.000 O
ATOM      9  HD  BGC B   1      16.755  11.396  -0.1160  0.00  0.00     0.000 HD
ATOM      9   O  BGC B   1      15.185   9.382  -0.1230  0.00  0.00     0.000 O
ATOM     11  HD  BGC B   1      14.915   9.370  -0.9460  0.00  0.00     0.000 HD
ATOM     11   O  BGC B   1      13.159   8.799   1.8300  0.00  0.00     0.000 O
ATOM     13  HD  BGC B   1      12.889   8.786   1.0070  0.00  0.00     0.000 HD
ATOM     13   C  BGC B   1      13.909   8.932   4.6810  0.00  0.00     0.000 C
ATOM     14   O  BGC B   1      14.459   7.624   4.7990  0.00  0.00     0.000 O
ATOM     16  HD  BGC B   1      14.188   7.611   3.9760  0.00  0.00     0.000 HD
ENDROOT
BRANCH 1 16
ATOM     16  O4  BGC B   2      17.889  10.991   3.4260  0.00  0.00     0.000 O
BRANCH 16 20
ATOM     17  C1  BGC B   2      20.421  13.208   5.7090  0.00  0.00     0.000 C
ATOM     18  C2  BGC B   2      19.474  12.333   6.5180  0.00  0.00     0.000 C
ATOM     19  C3  BGC B   2      18.848  11.302   5.5830  0.00  0.00     0.000 C
ATOM     20  C4  BGC B   2      18.202  11.987   4.3960  0.00  0.00     0.000 C
ATOM     21  C5  BGC B   2      19.134  12.999   3.7290  0.00  0.00     0.000 C
ATOM     22  O5  BGC B   2      19.622  13.900   4.7320  0.00  0.00     0.000 O
ATOM     23   O  BGC B   2      20.198  11.649   7.5550  0.00  0.00     0.000 O
ATOM     25  HD  BGC B   2      19.887  11.406   6.7840  0.00  0.00     0.000 HD
ATOM     25   O  BGC B   2      17.885  10.529   6.2900  0.00  0.00     0.000 O
ATOM     27  HD  BGC B   2      17.573  10.286   5.5190  0.00  0.00     0.000 HD
ATOM     27   C  BGC B   2      18.440  13.830   2.6570  0.00  0.00     0.000 C
ATOM     28   O  BGC B   2      17.296  14.521   3.1340  0.00  0.00     0.000 O
ATOM     30  HD  BGC B   2      16.985  14.277   2.3630  0.00  0.00     0.000 HD
BRANCH 17 30
ATOM     30  O4  BGC B   3      20.893  14.217   6.5820  0.00  0.00     0.000 O
BRANCH 30 34
ATOM     31  C1  BGC B   3      24.240  16.527   7.2040  0.00  0.00     0.000 C
ATOM     32  C2  BGC B   3      23.432  16.902   5.9620  0.00  0.00     0.000 C
ATOM     33  C3  BGC B   3      22.054  16.271   6.0630  0.00  0.00     0.000 C
ATOM     34  C4  BGC B   3      22.178  14.761   6.2660  0.00  0.00     0.000 C
ATOM     35  C5  BGC B   3      23.109  14.458   7.4270  0.00  0.00     0.000 C
ATOM     36  O5  BGC B   3      24.364  15.113   7.2150  0.00  0.00     0.000 O
ATOM     37   O  BGC B   3      23.277  18.318   5.9060  0.00  0.00     0.000 O
ATOM     39  HD  BGC B   3      22.949  18.234   5.1090  0.00  0.00     0.000 HD
ATOM     39   O  BGC B   3      21.339  16.560   4.8720  0.00  0.00     0.000 O
ATOM     41  HD  BGC B   3      21.011  16.475   4.0750  0.00  0.00     0.000 HD
ATOM     41   C  BGC B   3      23.364  12.971   7.6440  0.00  0.00     0.000 C
ATOM     42   O  BGC B   3      23.902  12.395   6.4770  0.00  0.00     0.000 O
ATOM     44  HD  BGC B   3      23.575  12.311   5.6800  0.00  0.00     0.000 HD
BRANCH 31 44
ATOM     44  O4  BGC B   4      25.535  17.040   7.0280  0.00  0.00     0.000 O
BRANCH 44 48
ATOM     45  C1  BGC B   4      28.678  18.539   9.1910  0.00  0.00     0.000 C
ATOM     46  C2  BGC B   4      28.506  17.029   9.2790  0.00  0.00     0.000 C
ATOM     47  C3  BGC B   4      27.601  16.560   8.1660  0.00  0.00     0.000 C
ATOM     48  C4  BGC B   4      26.281  17.336   8.1910  0.00  0.00     0.000 C
ATOM     49  C5  BGC B   4      26.544  18.847   8.2030  0.00  0.00     0.000 C
ATOM     50  O5  BGC B   4      27.406  19.180   9.3000  0.00  0.00     0.000 O
ATOM     51   O  BGC B   4      29.784  16.378   9.1520  0.00  0.00     0.000 O
ATOM     53  HD  BGC B   4      29.480  16.241   8.3530  0.00  0.00     0.000 HD
ATOM     53   O  BGC B   4      27.343  15.159   8.3390  0.00  0.00     0.000 O
ATOM     55  HD  BGC B   4      27.039  15.022   7.5400  0.00  0.00     0.000 HD
ATOM     55   C  BGC B   4      25.296  19.700   8.3450  0.00  0.00     0.000 C
ATOM     56   O  BGC B   4      24.609  19.274   9.5230  0.00  0.00     0.000 O
ATOM     58  HD  BGC B   4      24.305  19.137   8.7240  0.00  0.00     0.000 HD
BRANCH 45 58
ATOM     58  O4  BGC B   5      29.319  18.931  10.4050  0.00  0.00     0.000 O
BRANCH 58 62
ATOM     59  C1  BGC B   5      31.196  22.177  12.1610  0.00  0.00     0.000 C
ATOM     60  C2  BGC B   5      29.682  22.199  12.2070  0.00  0.00     0.000 C
ATOM     61  C3  BGC B   5      29.121  20.817  11.9290  0.00  0.00     0.000 C
ATOM     62  C4  BGC B   5      29.673  20.300  10.6100  0.00  0.00     0.000 C
ATOM     63  C5  BGC B   5      31.206  20.380  10.5980  0.00  0.00     0.000 C
ATOM     64  O5  BGC B   5      31.600  21.722  10.8660  0.00  0.00     0.000 O
ATOM     65   O  BGC B   5      31.231  20.843   8.2990  0.00  0.00     0.000 O
ATOM     67  HD  BGC B   5      30.745  20.760   7.5870  0.00  0.00     0.000 HD
ATOM     67   O  BGC B   5      31.231  20.843   8.2990  0.00  0.00     0.000 O
ATOM     69  HD  BGC B   5      30.745  20.760   7.5870  0.00  0.00     0.000 HD
ENDBRANCH 58 62
ENDBRANCH 45 58
ENDBRANCH 44 48
ENDBRANCH 31 44
ENDBRANCH 30 34
ENDBRANCH 17 30
ENDBRANCH 16 20
ENDBRANCH 1 16
TORSDOF 8
ENDMDL
MODEL 54
REMARK VINA RESULT:      -1.3      8.884     14.308
ROOT
ATOM      1  C1  BGC B   1      16.293   9.631   4.0690  0.00  0.00     0.000 C
ATOM      2  C2  BGC B   1      17.763   9.863   3.7260  0.00  0.00     0.000 C
ATOM      3  C3  BGC B   1      17.890  10.978   2.7060  0.00  0.00     0.000 C
ATOM      4  C4  BGC B   1      16.991  10.714   1.5050  0.00  0.00     0.000 C
ATOM      5  C5  BGC B   1      15.566  10.520   2.0020  0.00  0.00     0.000 C
ATOM      6  O5  BGC B   1      15.567   9.375   2.8750  0.00  0.00     0.000 O
ATOM      7   O  BGC B   1      18.475  10.230   4.9190  0.00  0.00     0.000 O
ATOM      9  HD  BGC B   1      19.181  10.725   4.8310  0.00  0.00     0.000 HD
ATOM      9   O  BGC B   1      19.259  11.083   2.3040  0.00  0.00     0.000 O
ATOM     11  HD  BGC B   1      19.965  11.578   2.2160  0.00  0.00     0.000 HD
ATOM     11   O  BGC B   1      17.047  11.813   0.6210  0.00  0.00     0.000 O
ATOM     13  HD  BGC B   1      17.752  12.307   0.5330  0.00  0.00     0.000 HD
ATOM     13   C  BGC B   1      14.533  10.294   0.9080  0.00  0.00     0.000 C
ATOM     14   O  BGC B   1      14.870   9.199   0.0620  0.00  0.00     0.000 O
ATOM     16  HD  BGC B   1      15.575   9.693  -0.0260  0.00  0.00     0.000 HD
ENDROOT
BRANCH 1 16
ATOM     16  O4  BGC B   2      16.243   8.409   4.8030  0.00  0.00     0.000 O
BRANCH 16 20
ATOM     17  C1  BGC B   2      14.204   6.686   7.8710  0.00  0.00     0.000 C
ATOM     18  C2  BGC B   2      13.555   6.475   6.5100  0.00  0.00     0.000 C
ATOM     19  C3  BGC B   2      14.570   6.834   5.4280  0.00  0.00     0.000 C
ATOM     20  C4  BGC B   2      15.112   8.231   5.6510  0.00  0.00     0.000 C
ATOM     21  C5  BGC B   2      15.578   8.452   7.0910  0.00  0.00     0.000 C
ATOM     22  O5  BGC B   2      14.513   8.088   7.9770  0.00  0.00     0.000 O
ATOM     23   O  BGC B   2      13.167   5.100   6.3550  0.00  0.00     0.000 O
ATOM     25  HD  BGC B   2      13.828   5.572   6.0530  0.00  0.00     0.000 HD
ATOM     25   O  BGC B   2      13.964   6.739   4.1450  0.00  0.00     0.000 O
ATOM     27  HD  BGC B   2      14.624   7.211   3.8420  0.00  0.00     0.000 HD
ATOM     27   C  BGC B   2      15.947   9.902   7.3790  0.00  0.00     0.000 C
ATOM     28   O  BGC B   2      14.897  10.815   7.1040  0.00  0.00     0.000 O
ATOM     30  HD  BGC B   2      15.557  11.287   6.8010  0.00  0.00     0.000 HD
BRANCH 17 30
ATOM     30  O4  BGC B   3      13.201   6.454   8.8420  0.00  0.00     0.000 O
BRANCH 30 34
ATOM     31  C1  BGC B   3      12.819   5.251  12.7580  0.00  0.00     0.000 C
ATOM     32  C2  BGC B   3      13.529   6.591  12.5730  0.00  0.00     0.000 C
ATOM     33  C3  BGC B   3      13.255   7.102  11.1690  0.00  0.00     0.000 C
ATOM     34  C4  BGC B   3      13.669   6.056  10.1350  0.00  0.00     0.000 C
ATOM     35  C5  BGC B   3      13.041   4.713  10.4620  0.00  0.00     0.000 C
ATOM     36  O5  BGC B   3      13.366   4.350  11.8080  0.00  0.00     0.000 O
ATOM     37   O  BGC B   3      13.012   7.537  13.5060  0.00  0.00     0.000 O
ATOM     39  HD  BGC B   3      13.645   8.083  13.2790  0.00  0.00     0.000 HD
ATOM     39   O  BGC B   3      13.980   8.308  10.9800  0.00  0.00     0.000 O
ATOM     41  HD  BGC B   3      14.613   8.854  10.7530  0.00  0.00     0.000 HD
ATOM     41   C  BGC B   3      13.473   3.584   9.5330  0.00  0.00     0.000 C
ATOM     42   O  BGC B   3      14.873   3.442   9.5610  0.00  0.00     0.000 O
ATOM     44  HD  BGC B   3      15.506   3.987   9.3340  0.00  0.00     0.000 HD
BRANCH 31 44
ATOM     44  O4  BGC B   4      13.178   4.762  14.0250  0.00  0.00     0.000 O
BRANCH 44 48
ATOM     45  C1  BGC B   4      11.626   2.619  17.1560  0.00  0.00     0.000 C
ATOM     46  C2  BGC B   4      12.007   1.787  15.9400  0.00  0.00     0.000 C
ATOM     47  C3  BGC B   4      12.907   2.596  15.0380  0.00  0.00     0.000 C
ATOM     48  C4  BGC B   4      12.247   3.933  14.6900  0.00  0.00     0.000 C
ATOM     49  C5  BGC B   4      11.801   4.662  15.9630  0.00  0.00     0.000 C
ATOM     50  O5  BGC B   4      10.949   3.806  16.7390  0.00  0.00     0.000 O
ATOM     51   O  BGC B   4      12.705   0.597  16.3550  0.00  0.00     0.000 O
ATOM     53  HD  BGC B   4      13.382   1.067  16.0900  0.00  0.00     0.000 HD
ATOM     53   O  BGC B   4      13.151   1.849  13.8380  0.00  0.00     0.000 O
ATOM     55  HD  BGC B   4      13.828   2.319  13.5720  0.00  0.00     0.000 HD
ATOM     55   C  BGC B   4      11.030   5.947  15.7140  0.00  0.00     0.000 C
ATOM     56   O  BGC B   4       9.921   5.632  14.8690  0.00  0.00     0.000 O
ATOM     58  HD  BGC B   4      10.598   6.103  14.6040  0.00  0.00     0.000 HD
BRANCH 45 58
ATOM     58  O4  BGC B   5      10.587   1.895  17.8150  0.00  0.00     0.000 O
BRANCH 58 62
ATOM     59  C1  BGC B   5       9.434   0.559  21.5600  0.00  0.00     0.000 C
ATOM     60  C2  BGC B   5       9.215   2.036  21.3020  0.00  0.00     0.000 C
ATOM     61  C3  BGC B   5       9.270   2.330  19.8140  0.00  0.00     0.000 C
ATOM     62  C4  BGC B   5      10.578   1.808  19.2410  0.00  0.00     0.000 C
ATOM     63  C5  BGC B   5      10.777   0.329  19.6060  0.00  0.00     0.000 C
ATOM     64  O5  BGC B   5      10.707   0.191  21.0220  0.00  0.00     0.000 O
ATOM     65   O  BGC B   5      13.099   0.608  19.7570  0.00  0.00     0.000 O
ATOM     67  HD  BGC B   5      13.737   1.131  19.4910  0.00  0.00     0.000 HD
ATOM     67   O  BGC B   5      13.099   0.608  19.7570  0.00  0.00     0.000 O
ATOM     69  HD  BGC B   5      13.737   1.131  19.4910  0.00  0.00     0.000 HD
ENDBRANCH 58 62
ENDBRANCH 45 58
ENDBRANCH 44 48
ENDBRANCH 31 44
ENDBRANCH 30 34
ENDBRANCH 17 30
ENDBRANCH 16 20
ENDBRANCH 1 16
TORSDOF 8
ENDMDL
MODEL 55
REMARK VINA RESULT:      -1.3     10.449     16.373
ROOT
ATOM      1  C1  BGC B   1      17.990  14.373  19.2010  0.00  0.00     0.000 C
ATOM      2  C2  BGC B   1      18.076  15.867  19.5080  0.00  0.00     0.000 C
ATOM      3  C3  BGC B   1      18.487  16.078  20.9530  0.00  0.00     0.000 C
ATOM      4  C4  BGC B   1      17.584  15.288  21.8920  0.00  0.00     0.000 C
ATOM      5  C5  BGC B   1      17.614  13.826  21.4710  0.00  0.00     0.000 C
ATOM      6  O5  BGC B   1      17.106  13.754  20.1260  0.00  0.00     0.000 O
ATOM      7   O  BGC B   1      19.053  16.472  18.6450  0.00  0.00     0.000 O
ATOM      9  HD  BGC B   1      19.459  17.181  18.9320  0.00  0.00     0.000 HD
ATOM      9   O  BGC B   1      18.430  17.477  21.2490  0.00  0.00     0.000 O
ATOM     11  HD  BGC B   1      18.837  18.186  21.5360  0.00  0.00     0.000 HD
ATOM     11   O  BGC B   1      18.051  15.416  23.2170  0.00  0.00     0.000 O
ATOM     13  HD  BGC B   1      18.457  16.125  23.5040  0.00  0.00     0.000 HD
ATOM     13   C  BGC B   1      16.794  12.891  22.3480  0.00  0.00     0.000 C
ATOM     14   O  BGC B   1      15.435  13.303  22.4570  0.00  0.00     0.000 O
ATOM     16  HD  BGC B   1      15.841  14.012  22.7430  0.00  0.00     0.000 HD
ENDROOT
BRANCH 1 16
ATOM     16  O4  BGC B   2      17.340  14.263  17.9360  0.00  0.00     0.000 O
BRANCH 16 20
ATOM     17  C1  BGC B   2      17.064  11.823  14.6950  0.00  0.00     0.000 C
ATOM     18  C2  BGC B   2      16.332  11.296  15.9210  0.00  0.00     0.000 C
ATOM     19  C3  BGC B   2      16.195  12.434  16.9300  0.00  0.00     0.000 C
ATOM     20  C4  BGC B   2      17.550  13.045  17.2260  0.00  0.00     0.000 C
ATOM     21  C5  BGC B   2      18.327  13.384  15.9540  0.00  0.00     0.000 C
ATOM     22  O5  BGC B   2      18.380  12.215  15.1270  0.00  0.00     0.000 O
ATOM     23   O  BGC B   2      15.022  10.833  15.5530  0.00  0.00     0.000 O
ATOM     25  HD  BGC B   2      15.315  11.550  15.9410  0.00  0.00     0.000 HD
ATOM     25   O  BGC B   2      15.600  11.950  18.1280  0.00  0.00     0.000 O
ATOM     27  HD  BGC B   2      15.892  12.667  18.5150  0.00  0.00     0.000 HD
ATOM     27   C  BGC B   2      19.760  13.821  16.2320  0.00  0.00     0.000 C
ATOM     28   O  BGC B   2      20.505  12.867  16.9720  0.00  0.00     0.000 O
ATOM     30  HD  BGC B   2      20.797  13.584  17.3590  0.00  0.00     0.000 HD
BRANCH 17 30
ATOM     30  O4  BGC B   3      17.271  10.718  13.8360  0.00  0.00     0.000 O
BRANCH 30 34
ATOM     31  C1  BGC B   3      17.507   9.844   9.8220  0.00  0.00     0.000 C
ATOM     32  C2  BGC B   3      18.666  10.683  10.3580  0.00  0.00     0.000 C
ATOM     33  C3  BGC B   3      18.676  10.596  11.8740  0.00  0.00     0.000 C
ATOM     34  C4  BGC B   3      17.319  11.017  12.4370  0.00  0.00     0.000 C
ATOM     35  C5  BGC B   3      16.202  10.244  11.7580  0.00  0.00     0.000 C
ATOM     36  O5  BGC B   3      16.309  10.401  10.3390  0.00  0.00     0.000 O
ATOM     37   O  BGC B   3      19.899  10.161   9.8680  0.00  0.00     0.000 O
ATOM     39  HD  BGC B   3      20.302  10.859  10.1850  0.00  0.00     0.000 HD
ATOM     39   O  BGC B   3      19.706  11.440  12.3670  0.00  0.00     0.000 O
ATOM     41  HD  BGC B   3      20.109  12.137  12.6840  0.00  0.00     0.000 HD
ATOM     41   C  BGC B   3      14.803  10.666  12.1930  0.00  0.00     0.000 C
ATOM     42   O  BGC B   3      14.611  12.039  11.9470  0.00  0.00     0.000 O
ATOM     44  HD  BGC B   3      15.014  12.736  12.2640  0.00  0.00     0.000 HD
BRANCH 31 44
ATOM     44  O4  BGC B   4      17.467  10.031   8.4310  0.00  0.00     0.000 O
BRANCH 44 48
ATOM     45  C1  BGC B   4      15.294   8.823   5.1710  0.00  0.00     0.000 C
ATOM     46  C2  BGC B   4      14.729  10.033   5.9020  0.00  0.00     0.000 C
ATOM     47  C3  BGC B   4      15.787  10.613   6.8090  0.00  0.00     0.000 C
ATOM     48  C4  BGC B   4      16.340   9.530   7.7400  0.00  0.00     0.000 C
ATOM     49  C5  BGC B   4      16.794   8.306   6.9350  0.00  0.00     0.000 C
ATOM     50  O5  BGC B   4      15.713   7.837   6.1160  0.00  0.00     0.000 O
ATOM     51   O  BGC B   4      14.321  11.036   4.9530  0.00  0.00     0.000 O
ATOM     53  HD  BGC B   4      15.070  11.387   5.2110  0.00  0.00     0.000 HD
ATOM     53   O  BGC B   4      15.202  11.668   7.5850  0.00  0.00     0.000 O
ATOM     55  HD  BGC B   4      15.951  12.019   7.8430  0.00  0.00     0.000 HD
ATOM     55   C  BGC B   4      17.251   7.132   7.7820  0.00  0.00     0.000 C
ATOM     56   O  BGC B   4      16.192   6.808   8.6850  0.00  0.00     0.000 O
ATOM     58  HD  BGC B   4      16.941   7.159   8.9420  0.00  0.00     0.000 HD
BRANCH 45 58
ATOM     58  O4  BGC B   5      14.179   8.188   4.5470  0.00  0.00     0.000 O
BRANCH 58 62
ATOM     59  C1  BGC B   5      13.080   6.446   0.9540  0.00  0.00     0.000 C
ATOM     60  C2  BGC B   5      13.785   5.528   1.9320  0.00  0.00     0.000 C
ATOM     61  C3  BGC B   5      13.765   6.122   3.3280  0.00  0.00     0.000 C
ATOM     62  C4  BGC B   5      14.352   7.524   3.2920  0.00  0.00     0.000 C
ATOM     63  C5  BGC B   5      13.648   8.378   2.2270  0.00  0.00     0.000 C
ATOM     64  O5  BGC B   5      13.742   7.715   0.9700  0.00  0.00     0.000 O
ATOM     65   O  BGC B   5      15.629   9.538   1.7500  0.00  0.00     0.000 O
ATOM     67  HD  BGC B   5      16.399   9.734   2.0960  0.00  0.00     0.000 HD
ATOM     67   O  BGC B   5      15.629   9.538   1.7500  0.00  0.00     0.000 O
ATOM     69  HD  BGC B   5      16.399   9.734   2.0960  0.00  0.00     0.000 HD
ENDBRANCH 58 62
ENDBRANCH 45 58
ENDBRANCH 44 48
ENDBRANCH 31 44
ENDBRANCH 30 34
ENDBRANCH 17 30
ENDBRANCH 16 20
ENDBRANCH 1 16
TORSDOF 8
ENDMDL
MODEL 56
REMARK VINA RESULT:      -1.2     12.717     17.528
ROOT
ATOM      1  C1  BGC B   1      14.669  12.221   2.5050  0.00  0.00     0.000 C
ATOM      2  C2  BGC B   1      15.468  11.039   3.0530  0.00  0.00     0.000 C
ATOM      3  C3  BGC B   1      15.773  10.056   1.9400  0.00  0.00     0.000 C
ATOM      4  C4  BGC B   1      14.500   9.672   1.1950  0.00  0.00     0.000 C
ATOM      5  C5  BGC B   1      13.830  10.945   0.7000  0.00  0.00     0.000 C
ATOM      6  O5  BGC B   1      13.502  11.737   1.8570  0.00  0.00     0.000 O
ATOM      7   O  BGC B   1      16.702  11.520   3.6110  0.00  0.00     0.000 O
ATOM      9  HD  BGC B   1      17.379  10.980   3.6170  0.00  0.00     0.000 HD
ATOM      9   O  BGC B   1      16.402   8.901   2.5030  0.00  0.00     0.000 O
ATOM     11  HD  BGC B   1      17.079   8.360   2.5090  0.00  0.00     0.000 HD
ATOM     11   O  BGC B   1      14.823   8.842   0.1010  0.00  0.00     0.000 O
ATOM     13  HD  BGC B   1      15.500   8.301   0.1080  0.00  0.00     0.000 HD
ATOM     13   C  BGC B   1      12.561  10.725  -0.1110  0.00  0.00     0.000 C
ATOM     14   O  BGC B   1      11.595   9.949   0.5930  0.00  0.00     0.000 O
ATOM     16  HD  BGC B   1      12.272   9.408   0.5990  0.00  0.00     0.000 HD
ENDROOT
BRANCH 1 16
ATOM     16  O4  BGC B   2      14.193  12.940   3.6410  0.00  0.00     0.000 O
BRANCH 16 20
ATOM     17  C1  BGC B   2      13.364  16.716   4.9020  0.00  0.00     0.000 C
ATOM     18  C2  BGC B   2      12.326  16.150   3.9430  0.00  0.00     0.000 C
ATOM     19  C3  BGC B   2      12.539  14.642   3.8340  0.00  0.00     0.000 C
ATOM     20  C4  BGC B   2      13.973  14.336   3.4530  0.00  0.00     0.000 C
ATOM     21  C5  BGC B   2      14.981  15.081   4.3300  0.00  0.00     0.000 C
ATOM     22  O5  BGC B   2      14.656  16.476   4.3140  0.00  0.00     0.000 O
ATOM     23   O  BGC B   2      11.003  16.404   4.4420  0.00  0.00     0.000 O
ATOM     25  HD  BGC B   2      11.511  15.703   4.4280  0.00  0.00     0.000 HD
ATOM     25   O  BGC B   2      11.646  14.096   2.8710  0.00  0.00     0.000 O
ATOM     27  HD  BGC B   2      12.154  13.395   2.8570  0.00  0.00     0.000 HD
ATOM     27   C  BGC B   2      16.416  14.933   3.8410  0.00  0.00     0.000 C
ATOM     28   O  BGC B   2      16.599  15.348   2.4980  0.00  0.00     0.000 O
ATOM     30  HD  BGC B   2      17.107  14.647   2.4830  0.00  0.00     0.000 HD
BRANCH 17 30
ATOM     30  O4  BGC B   3      13.208  18.123   4.8900  0.00  0.00     0.000 O
BRANCH 30 34
ATOM     31  C1  BGC B   3      13.602  21.364   7.3930  0.00  0.00     0.000 C
ATOM     32  C2  BGC B   3      14.916  20.663   7.0510  0.00  0.00     0.000 C
ATOM     33  C3  BGC B   3      14.697  19.770   5.8420  0.00  0.00     0.000 C
ATOM     34  C4  BGC B   3      13.548  18.797   6.1060  0.00  0.00     0.000 C
ATOM     35  C5  BGC B   3      12.317  19.549   6.5790  0.00  0.00     0.000 C
ATOM     36  O5  BGC B   3      12.657  20.355   7.7120  0.00  0.00     0.000 O
ATOM     37   O  BGC B   3      15.903  21.638   6.7190  0.00  0.00     0.000 O
ATOM     39  HD  BGC B   3      16.500  21.011   6.7230  0.00  0.00     0.000 HD
ATOM     39   O  BGC B   3      15.900  19.065   5.5790  0.00  0.00     0.000 O
ATOM     41  HD  BGC B   3      16.497  18.438   5.5830  0.00  0.00     0.000 HD
ATOM     41   C  BGC B   3      11.146  18.647   6.9550  0.00  0.00     0.000 C
ATOM     42   O  BGC B   3      11.534  17.743   7.9620  0.00  0.00     0.000 O
ATOM     44  HD  BGC B   3      12.131  17.115   7.9660  0.00  0.00     0.000 HD
BRANCH 31 44
ATOM     44  O4  BGC B   4      13.817  22.097   8.5710  0.00  0.00     0.000 O
BRANCH 44 48
ATOM     45  C1  BGC B   4      12.596  25.536  10.4400  0.00  0.00     0.000 C
ATOM     46  C2  BGC B   4      11.577  24.404  10.4570  0.00  0.00     0.000 C
ATOM     47  C3  BGC B   4      12.262  23.106  10.1080  0.00  0.00     0.000 C
ATOM     48  C4  BGC B   4      13.014  23.241   8.7800  0.00  0.00     0.000 C
ATOM     49  C5  BGC B   4      13.942  24.462   8.8080  0.00  0.00     0.000 C
ATOM     50  O5  BGC B   4      13.189  25.636   9.1440  0.00  0.00     0.000 O
ATOM     51   O  BGC B   4      10.990  24.289  11.7670  0.00  0.00     0.000 O
ATOM     53  HD  BGC B   4      11.543  23.624  11.8050  0.00  0.00     0.000 HD
ATOM     53   O  BGC B   4      11.270  22.075   9.9990  0.00  0.00     0.000 O
ATOM     55  HD  BGC B   4      11.823  21.410  10.0380  0.00  0.00     0.000 HD
ATOM     55   C  BGC B   4      14.645  24.747   7.4930  0.00  0.00     0.000 C
ATOM     56   O  BGC B   4      13.643  24.869   6.4820  0.00  0.00     0.000 O
ATOM     58  HD  BGC B   4      14.197  24.203   6.5200  0.00  0.00     0.000 HD
BRANCH 45 58
ATOM     58  O4  BGC B   5      11.840  26.744  10.5210  0.00  0.00     0.000 O
BRANCH 58 62
ATOM     59  C1  BGC B   5      11.685  30.348  12.5530  0.00  0.00     0.000 C
ATOM     60  C2  BGC B   5      12.757  30.249  11.4870  0.00  0.00     0.000 C
ATOM     61  C3  BGC B   5      12.467  29.095  10.5460  0.00  0.00     0.000 C
ATOM     62  C4  BGC B   5      12.299  27.815  11.3480  0.00  0.00     0.000 C
ATOM     63  C5  BGC B   5      11.259  28.006  12.4610  0.00  0.00     0.000 C
ATOM     64  O5  BGC B   5      11.649  29.111  13.2710  0.00  0.00     0.000 O
ATOM     65   O  BGC B   5      12.423  26.559  13.8930  0.00  0.00     0.000 O
ATOM     67  HD  BGC B   5      13.004  25.918  13.8800  0.00  0.00     0.000 HD
ATOM     67   O  BGC B   5      12.423  26.559  13.8930  0.00  0.00     0.000 O
ATOM     69  HD  BGC B   5      13.004  25.918  13.8800  0.00  0.00     0.000 HD
ENDBRANCH 58 62
ENDBRANCH 45 58
ENDBRANCH 44 48
ENDBRANCH 31 44
ENDBRANCH 30 34
ENDBRANCH 17 30
ENDBRANCH 16 20
ENDBRANCH 1 16
TORSDOF 8
ENDMDL
MODEL 57
REMARK VINA RESULT:      -1.2     13.255     17.871
ROOT
ATOM      1  C1  BGC B   1      15.158  12.383   1.7860  0.00  0.00     0.000 C
ATOM      2  C2  BGC B   1      15.871  11.288   2.5770  0.00  0.00     0.000 C
ATOM      3  C3  BGC B   1      15.858   9.988   1.7970  0.00  0.00     0.000 C
ATOM      4  C4  BGC B   1      14.441   9.636   1.3610  0.00  0.00     0.000 C
ATOM      5  C5  BGC B   1      13.873  10.809   0.5760  0.00  0.00     0.000 C
ATOM      6  O5  BGC B   1      13.846  11.945   1.4590  0.00  0.00     0.000 O
ATOM      7   O  BGC B   1      17.233  11.685   2.8120  0.00  0.00     0.000 O
ATOM      9  HD  BGC B   1      17.824  11.059   2.9080  0.00  0.00     0.000 HD
ATOM      9   O  BGC B   1      16.412   8.952   2.6140  0.00  0.00     0.000 O
ATOM     11  HD  BGC B   1      17.003   8.327   2.7100  0.00  0.00     0.000 HD
ATOM     11   O  BGC B   1      14.469   8.482   0.5490  0.00  0.00     0.000 O
ATOM     13  HD  BGC B   1      15.059   7.856   0.6450  0.00  0.00     0.000 HD
ATOM     13   C  BGC B   1      12.471  10.591   0.0250  0.00  0.00     0.000 C
ATOM     14   O  BGC B   1      11.540  10.232   1.0410  0.00  0.00     0.000 O
ATOM     16  HD  BGC B   1      12.131   9.607   1.1370  0.00  0.00     0.000 HD
ENDROOT
BRANCH 1 16
ATOM     16  O4  BGC B   2      14.972  13.471   2.6890  0.00  0.00     0.000 O
BRANCH 16 20
ATOM     17  C1  BGC B   2      14.878  17.535   2.7950  0.00  0.00     0.000 C
ATOM     18  C2  BGC B   2      13.614  16.909   2.2240  0.00  0.00     0.000 C
ATOM     19  C3  BGC B   2      13.612  15.421   2.5690  0.00  0.00     0.000 C
ATOM     20  C4  BGC B   2      14.897  14.768   2.1030  0.00  0.00     0.000 C
ATOM     21  C5  BGC B   2      16.139  15.543   2.5440  0.00  0.00     0.000 C
ATOM     22  O5  BGC B   2      15.993  16.909   2.1330  0.00  0.00     0.000 O
ATOM     23   O  BGC B   2      12.452  17.527   2.8020  0.00  0.00     0.000 O
ATOM     25  HD  BGC B   2      12.857  16.773   2.9380  0.00  0.00     0.000 HD
ATOM     25   O  BGC B   2      12.490  14.786   1.9680  0.00  0.00     0.000 O
ATOM     27  HD  BGC B   2      12.894  14.033   2.1030  0.00  0.00     0.000 HD
ATOM     27   C  BGC B   2      17.424  15.008   1.9260  0.00  0.00     0.000 C
ATOM     28   O  BGC B   2      17.396  14.976   0.5080  0.00  0.00     0.000 O
ATOM     30  HD  BGC B   2      17.800  14.222   0.6440  0.00  0.00     0.000 HD
BRANCH 17 30
ATOM     30  O4  BGC B   3      14.899  18.882   2.3600  0.00  0.00     0.000 O
BRANCH 30 34
ATOM     31  C1  BGC B   3      16.222  22.572   3.6090  0.00  0.00     0.000 C
ATOM     32  C2  BGC B   3      17.331  21.610   3.1840  0.00  0.00     0.000 C
ATOM     33  C3  BGC B   3      16.717  20.472   2.3880  0.00  0.00     0.000 C
ATOM     34  C4  BGC B   3      15.614  19.795   3.1990  0.00  0.00     0.000 C
ATOM     35  C5  BGC B   3      14.624  20.827   3.7100  0.00  0.00     0.000 C
ATOM     36  O5  BGC B   3      15.326  21.843   4.4330  0.00  0.00     0.000 O
ATOM     37   O  BGC B   3      18.261  22.296   2.3490  0.00  0.00     0.000 O
ATOM     39  HD  BGC B   3      18.785  21.608   2.3950  0.00  0.00     0.000 HD
ATOM     39   O  BGC B   3      17.743  19.545   2.0650  0.00  0.00     0.000 O
ATOM     41  HD  BGC B   3      18.267  18.857   2.1110  0.00  0.00     0.000 HD
ATOM     41   C  BGC B   3      13.535  20.250   4.6080  0.00  0.00     0.000 C
ATOM     42   O  BGC B   3      14.114  19.599   5.7150  0.00  0.00     0.000 O
ATOM     44  HD  BGC B   3      14.638  18.911   5.7610  0.00  0.00     0.000 HD
BRANCH 31 44
ATOM     44  O4  BGC B   4      16.811  23.551   4.4260  0.00  0.00     0.000 O
BRANCH 44 48
ATOM     45  C1  BGC B   4      16.393  27.498   5.4490  0.00  0.00     0.000 C
ATOM     46  C2  BGC B   4      15.377  26.563   6.0890  0.00  0.00     0.000 C
ATOM     47  C3  BGC B   4      15.858  25.138   5.9650  0.00  0.00     0.000 C
ATOM     48  C4  BGC B   4      16.167  24.807   4.5010  0.00  0.00     0.000 C
ATOM     49  C5  BGC B   4      17.116  25.852   3.9010  0.00  0.00     0.000 C
ATOM     50  O5  BGC B   4      16.560  27.164   4.0700  0.00  0.00     0.000 O
ATOM     51   O  BGC B   4      15.219  26.886   7.4840  0.00  0.00     0.000 O
ATOM     53  HD  BGC B   4      15.725  26.187   7.5610  0.00  0.00     0.000 HD
ATOM     53   O  BGC B   4      14.833  24.260   6.4530  0.00  0.00     0.000 O
ATOM     55  HD  BGC B   4      15.339  23.562   6.5310  0.00  0.00     0.000 HD
ATOM     55   C  BGC B   4      17.389  25.673   2.4190  0.00  0.00     0.000 C
ATOM     56   O  BGC B   4      16.131  25.652   1.7430  0.00  0.00     0.000 O
ATOM     58  HD  BGC B   4      16.637  24.953   1.8200  0.00  0.00     0.000 HD
BRANCH 45 58
ATOM     58  O4  BGC B   5      15.758  28.774   5.3750  0.00  0.00     0.000 O
BRANCH 58 62
ATOM     59  C1  BGC B   5      16.610  32.822   5.5710  0.00  0.00     0.000 C
ATOM     60  C2  BGC B   5      16.879  32.165   4.2320  0.00  0.00     0.000 C
ATOM     61  C3  BGC B   5      16.162  30.831   4.1400  0.00  0.00     0.000 C
ATOM     62  C4  BGC B   5      16.552  29.961   5.3240  0.00  0.00     0.000 C
ATOM     63  C5  BGC B   5      16.331  30.713   6.6440  0.00  0.00     0.000 C
ATOM     64  O5  BGC B   5      17.056  31.938   6.6040  0.00  0.00     0.000 O
ATOM     65   O  BGC B   5      18.179  29.662   7.6320  0.00  0.00     0.000 O
ATOM     67  HD  BGC B   5      18.680  28.960   7.5540  0.00  0.00     0.000 HD
ATOM     67   O  BGC B   5      18.179  29.662   7.6320  0.00  0.00     0.000 O
ATOM     69  HD  BGC B   5      18.680  28.960   7.5540  0.00  0.00     0.000 HD
ENDBRANCH 58 62
ENDBRANCH 45 58
ENDBRANCH 44 48
ENDBRANCH 31 44
ENDBRANCH 30 34
ENDBRANCH 17 30
ENDBRANCH 16 20
ENDBRANCH 1 16
TORSDOF 8
ENDMDL
MODEL 58
REMARK VINA RESULT:      -1.2     10.876     24.029
ROOT
ATOM      1  C1  BGC B   1      35.998  12.984  12.8050  0.00  0.00     0.000 C
ATOM      2  C2  BGC B   1      36.959  12.091  13.5880  0.00  0.00     0.000 C
ATOM      3  C3  BGC B   1      37.840  12.936  14.4880  0.00  0.00     0.000 C
ATOM      4  C4  BGC B   1      38.511  14.050  13.6940  0.00  0.00     0.000 C
ATOM      5  C5  BGC B   1      37.431  14.856  12.9880  0.00  0.00     0.000 C
ATOM      6  O5  BGC B   1      36.743  13.963  12.0930  0.00  0.00     0.000 O
ATOM      7   O  BGC B   1      36.202  11.173  14.3930  0.00  0.00     0.000 O
ATOM      9  HD  BGC B   1      36.568  10.880  15.1220  0.00  0.00     0.000 HD
ATOM      9   O  BGC B   1      38.816  12.091  15.1050  0.00  0.00     0.000 O
ATOM     11  HD  BGC B   1      39.181  11.799  15.8340  0.00  0.00     0.000 HD
ATOM     11   O  BGC B   1      39.239  14.883  14.5690  0.00  0.00     0.000 O
ATOM     13  HD  BGC B   1      39.605  14.591  15.2980  0.00  0.00     0.000 HD
ATOM     13   C  BGC B   1      37.943  16.044  12.1860  0.00  0.00     0.000 C
ATOM     14   O  BGC B   1      38.927  15.668  11.2270  0.00  0.00     0.000 O
ATOM     16  HD  BGC B   1      39.292  15.376  11.9560  0.00  0.00     0.000 HD
ENDROOT
BRANCH 1 16
ATOM     16  O4  BGC B   2      35.415  12.157  11.8000  0.00  0.00     0.000 O
BRANCH 16 20
ATOM     17  C1  BGC B   2      31.931  11.573   9.7860  0.00  0.00     0.000 C
ATOM     18  C2  BGC B   2      32.715  12.789   9.3120  0.00  0.00     0.000 C
ATOM     19  C3  BGC B   2      34.134  12.696   9.8660  0.00  0.00     0.000 C
ATOM     20  C4  BGC B   2      34.105  12.521  11.3710  0.00  0.00     0.000 C
ATOM     21  C5  BGC B   2      33.154  11.407  11.8090  0.00  0.00     0.000 C
ATOM     22  O5  BGC B   2      31.869  11.647  11.2220  0.00  0.00     0.000 O
ATOM     23   O  BGC B   2      32.771  12.811   7.8760  0.00  0.00     0.000 O
ATOM     25  HD  BGC B   2      33.338  12.590   8.4920  0.00  0.00     0.000 HD
ATOM     25   O  BGC B   2      34.866  13.866   9.5210  0.00  0.00     0.000 O
ATOM     27  HD  BGC B   2      35.433  13.644  10.1370  0.00  0.00     0.000 HD
ATOM     27   C  BGC B   2      32.969  11.344  13.3200  0.00  0.00     0.000 C
ATOM     28   O  BGC B   2      32.518  12.565  13.8830  0.00  0.00     0.000 O
ATOM     30  HD  BGC B   2      33.085  12.343  14.4990  0.00  0.00     0.000 HD
BRANCH 17 30
ATOM     30  O4  BGC B   3      30.597  11.751   9.3490  0.00  0.00     0.000 O
BRANCH 30 34
ATOM     31  C1  BGC B   3      27.357   9.537   8.1130  0.00  0.00     0.000 C
ATOM     32  C2  BGC B   3      27.848   9.211   9.5230  0.00  0.00     0.000 C
ATOM     33  C3  BGC B   3      28.752  10.334  10.0000  0.00  0.00     0.000 C
ATOM     34  C4  BGC B   3      29.890  10.555   9.0050  0.00  0.00     0.000 C
ATOM     35  C5  BGC B   3      29.338  10.730   7.6010  0.00  0.00     0.000 C
ATOM     36  O5  BGC B   3      28.500   9.615   7.2760  0.00  0.00     0.000 O
ATOM     37   O  BGC B   3      26.732   9.123  10.4060  0.00  0.00     0.000 O
ATOM     39  HD  BGC B   3      27.262   8.814  11.0180  0.00  0.00     0.000 HD
ATOM     39   O  BGC B   3      29.264   9.986  11.2780  0.00  0.00     0.000 O
ATOM     41  HD  BGC B   3      29.794   9.677  11.8890  0.00  0.00     0.000 HD
ATOM     41   C  BGC B   3      30.410  10.866   6.5260  0.00  0.00     0.000 C
ATOM     42   O  BGC B   3      31.254   9.739   6.5370  0.00  0.00     0.000 O
ATOM     44  HD  BGC B   3      31.784   9.430   7.1490  0.00  0.00     0.000 HD
BRANCH 31 44
ATOM     44  O4  BGC B   4      26.610   8.434   7.6670  0.00  0.00     0.000 O
BRANCH 44 48
ATOM     45  C1  BGC B   4      23.363   7.544   5.3280  0.00  0.00     0.000 C
ATOM     46  C2  BGC B   4      24.637   7.863   4.5570  0.00  0.00     0.000 C
ATOM     47  C3  BGC B   4      25.822   7.783   5.4880  0.00  0.00     0.000 C
ATOM     48  C4  BGC B   4      25.599   8.678   6.7110  0.00  0.00     0.000 C
ATOM     49  C5  BGC B   4      24.250   8.364   7.3700  0.00  0.00     0.000 C
ATOM     50  O5  BGC B   4      23.199   8.475   6.4000  0.00  0.00     0.000 O
ATOM     51   O  BGC B   4      24.815   6.916   3.4870  0.00  0.00     0.000 O
ATOM     53  HD  BGC B   4      25.386   6.593   4.0520  0.00  0.00     0.000 HD
ATOM     53   O  BGC B   4      26.994   8.212   4.7810  0.00  0.00     0.000 O
ATOM     55  HD  BGC B   4      27.566   7.889   5.3460  0.00  0.00     0.000 HD
ATOM     55   C  BGC B   4      23.887   9.281   8.5240  0.00  0.00     0.000 C
ATOM     56   O  BGC B   4      23.940  10.626   8.0450  0.00  0.00     0.000 O
ATOM     58  HD  BGC B   4      24.512  10.303   8.6100  0.00  0.00     0.000 HD
BRANCH 45 58
ATOM     58  O4  BGC B   5      22.284   7.889   4.4610  0.00  0.00     0.000 O
BRANCH 58 62
ATOM     59  C1  BGC B   5      18.310   6.859   3.9210  0.00  0.00     0.000 C
ATOM     60  C2  BGC B   5      18.885   6.537   5.2850  0.00  0.00     0.000 C
ATOM     61  C3  BGC B   5      20.170   7.309   5.5170  0.00  0.00     0.000 C
ATOM     62  C4  BGC B   5      21.139   7.037   4.3780  0.00  0.00     0.000 C
ATOM     63  C5  BGC B   5      20.470   7.306   3.0220  0.00  0.00     0.000 C
ATOM     64  O5  BGC B   5      19.285   6.522   2.9300  0.00  0.00     0.000 O
ATOM     65   O  BGC B   5      21.682   5.577   2.0040  0.00  0.00     0.000 O
ATOM     67  HD  BGC B   5      22.402   5.106   2.1030  0.00  0.00     0.000 HD
ATOM     67   O  BGC B   5      21.682   5.577   2.0040  0.00  0.00     0.000 O
ATOM     69  HD  BGC B   5      22.402   5.106   2.1030  0.00  0.00     0.000 HD
ENDBRANCH 58 62
ENDBRANCH 45 58
ENDBRANCH 44 48
ENDBRANCH 31 44
ENDBRANCH 30 34
ENDBRANCH 17 30
ENDBRANCH 16 20
ENDBRANCH 1 16
TORSDOF 8
ENDMDL
MODEL 59
REMARK VINA RESULT:      -1.2      9.140     12.770
ROOT
ATOM      1  C1  BGC B   1      10.322  17.890  13.8200  0.00  0.00     0.000 C
ATOM      2  C2  BGC B   1       9.425  19.110  13.6170  0.00  0.00     0.000 C
ATOM      3  C3  BGC B   1       8.939  19.628  14.9570  0.00  0.00     0.000 C
ATOM      4  C4  BGC B   1       8.310  18.506  15.7730  0.00  0.00     0.000 C
ATOM      5  C5  BGC B   1       9.323  17.377  15.9010  0.00  0.00     0.000 C
ATOM      6  O5  BGC B   1       9.618  16.911  14.5710  0.00  0.00     0.000 O
ATOM      7   O  BGC B   1      10.173  20.143  12.9540  0.00  0.00     0.000 O
ATOM      9  HD  BGC B   1       9.940  20.964  13.0970  0.00  0.00     0.000 HD
ATOM      9   O  BGC B   1       7.999  20.683  14.7320  0.00  0.00     0.000 O
ATOM     11  HD  BGC B   1       7.766  21.505  14.8750  0.00  0.00     0.000 HD
ATOM     11   O  BGC B   1       7.963  18.988  17.0530  0.00  0.00     0.000 O
ATOM     13  HD  BGC B   1       7.730  19.809  17.1960  0.00  0.00     0.000 HD
ATOM     13   C  BGC B   1       8.858  16.193  16.7360  0.00  0.00     0.000 C
ATOM     14   O  BGC B   1       7.629  15.648  16.2670  0.00  0.00     0.000 O
ATOM     16  HD  BGC B   1       7.396  16.469  16.4110  0.00  0.00     0.000 HD
ENDROOT
BRANCH 1 16
ATOM     16  O4  BGC B   2      10.502  17.310  12.5290  0.00  0.00     0.000 O
BRANCH 16 20
ATOM     17  C1  BGC B   2      12.493  14.273  10.6980  0.00  0.00     0.000 C
ATOM     18  C2  BGC B   2      11.165  13.853  11.3100  0.00  0.00     0.000 C
ATOM     19  C3  BGC B   2      10.359  15.109  11.6320  0.00  0.00     0.000 C
ATOM     20  C4  BGC B   2      11.172  16.053  12.4950  0.00  0.00     0.000 C
ATOM     21  C5  BGC B   2      12.573  16.295  11.9320  0.00  0.00     0.000 C
ATOM     22  O5  BGC B   2      13.198  15.027  11.7010  0.00  0.00     0.000 O
ATOM     23   O  BGC B   2      10.425  13.046  10.3780  0.00  0.00     0.000 O
ATOM     25  HD  BGC B   2      10.366  13.873  10.6300  0.00  0.00     0.000 HD
ATOM     25   O  BGC B   2       9.151  14.754  12.2940  0.00  0.00     0.000 O
ATOM     27  HD  BGC B   2       9.093  15.580  12.5450  0.00  0.00     0.000 HD
ATOM     27   C  BGC B   2      13.465  17.087  12.8810  0.00  0.00     0.000 C
ATOM     28   O  BGC B   2      13.594  16.490  14.1610  0.00  0.00     0.000 O
ATOM     30  HD  BGC B   2      13.535  17.317  14.4120  0.00  0.00     0.000 HD
BRANCH 17 30
ATOM     30  O4  BGC B   3      13.253  13.094  10.5190  0.00  0.00     0.000 O
BRANCH 30 34
ATOM     31  C1  BGC B   3      16.082  11.515   7.9830  0.00  0.00     0.000 C
ATOM     32  C2  BGC B   3      16.552  12.731   8.7800  0.00  0.00     0.000 C
ATOM     33  C3  BGC B   3      15.594  12.962   9.9340  0.00  0.00     0.000 C
ATOM     34  C4  BGC B   3      14.163  13.102   9.4140  0.00  0.00     0.000 C
ATOM     35  C5  BGC B   3      13.812  11.930   8.5140  0.00  0.00     0.000 C
ATOM     36  O5  BGC B   3      14.791  11.816   7.4770  0.00  0.00     0.000 O
ATOM     37   O  BGC B   3      17.850  12.477   9.3140  0.00  0.00     0.000 O
ATOM     39  HD  BGC B   3      17.896  13.308   9.5530  0.00  0.00     0.000 HD
ATOM     39   O  BGC B   3      15.993  14.138  10.6220  0.00  0.00     0.000 O
ATOM     41  HD  BGC B   3      16.040  14.969  10.8610  0.00  0.00     0.000 HD
ATOM     41   C  BGC B   3      12.431  12.032   7.8750  0.00  0.00     0.000 C
ATOM     42   O  BGC B   3      12.330  13.219   7.1250  0.00  0.00     0.000 O
ATOM     44  HD  BGC B   3      12.377  14.050   7.3640  0.00  0.00     0.000 HD
BRANCH 31 44
ATOM     44  O4  BGC B   4      16.929  11.394   6.8690  0.00  0.00     0.000 O
BRANCH 44 48
ATOM     45  C1  BGC B   4      18.677   8.540   4.5020  0.00  0.00     0.000 C
ATOM     46  C2  BGC B   4      17.187   8.740   4.2650  0.00  0.00     0.000 C
ATOM     47  C3  BGC B   4      16.750  10.045   4.8840  0.00  0.00     0.000 C
ATOM     48  C4  BGC B   4      17.153  10.095   6.3610  0.00  0.00     0.000 C
ATOM     49  C5  BGC B   4      18.646   9.783   6.5230  0.00  0.00     0.000 C
ATOM     50  O5  BGC B   4      18.948   8.523   5.9050  0.00  0.00     0.000 O
ATOM     51   O  BGC B   4      16.912   8.774   2.8520  0.00  0.00     0.000 O
ATOM     53  HD  BGC B   4      16.873   9.623   3.0200  0.00  0.00     0.000 HD
ATOM     53   O  BGC B   4      15.324  10.158   4.7670  0.00  0.00     0.000 O
ATOM     55  HD  BGC B   4      15.284  11.006   4.9350  0.00  0.00     0.000 HD
ATOM     55   C  BGC B   4      19.116   9.694   7.9640  0.00  0.00     0.000 C
ATOM     56   O  BGC B   4      18.300   8.729   8.6300  0.00  0.00     0.000 O
ATOM     58  HD  BGC B   4      18.260   9.578   8.7980  0.00  0.00     0.000 HD
BRANCH 45 58
ATOM     58  O4  BGC B   5      18.955   7.191   4.1250  0.00  0.00     0.000 O
BRANCH 58 62
ATOM     59  C1  BGC B   5      22.106   4.757   2.9870  0.00  0.00     0.000 C
ATOM     60  C2  BGC B   5      21.923   4.927   4.4810  0.00  0.00     0.000 C
ATOM     61  C3  BGC B   5      20.540   5.468   4.7900  0.00  0.00     0.000 C
ATOM     62  C4  BGC B   5      20.310   6.752   4.0090  0.00  0.00     0.000 C
ATOM     63  C5  BGC B   5      20.589   6.533   2.5150  0.00  0.00     0.000 C
ATOM     64  O5  BGC B   5      21.913   6.031   2.3620  0.00  0.00     0.000 O
ATOM     65   O  BGC B   5      21.403   8.719   2.2760  0.00  0.00     0.000 O
ATOM     67  HD  BGC B   5      21.370   9.498   2.6530  0.00  0.00     0.000 HD
ATOM     67   O  BGC B   5      21.403   8.719   2.2760  0.00  0.00     0.000 O
ATOM     69  HD  BGC B   5      21.370   9.498   2.6530  0.00  0.00     0.000 HD
ENDBRANCH 58 62
ENDBRANCH 45 58
ENDBRANCH 44 48
ENDBRANCH 31 44
ENDBRANCH 30 34
ENDBRANCH 17 30
ENDBRANCH 16 20
ENDBRANCH 1 16
TORSDOF 8
ENDMDL
MODEL 60
REMARK VINA RESULT:      -1.2     11.692     17.153
ROOT
ATOM      1  C1  BGC B   1      18.910  13.113  20.3200  0.00  0.00     0.000 C
ATOM      2  C2  BGC B   1      17.706  12.636  21.1310  0.00  0.00     0.000 C
ATOM      3  C3  BGC B   1      17.537  13.496  22.3680  0.00  0.00     0.000 C
ATOM      4  C4  BGC B   1      18.841  13.574  23.1530  0.00  0.00     0.000 C
ATOM      5  C5  BGC B   1      19.934  14.076  22.2210  0.00  0.00     0.000 C
ATOM      6  O5  BGC B   1      20.061  13.120  21.1530  0.00  0.00     0.000 O
ATOM      7   O  BGC B   1      16.522  12.734  20.3220  0.00  0.00     0.000 O
ATOM      9  HD  BGC B   1      15.766  12.852  20.7270  0.00  0.00     0.000 HD
ATOM      9   O  BGC B   1      16.489  12.948  23.1740  0.00  0.00     0.000 O
ATOM     11  HD  BGC B   1      15.733  13.066  23.5790  0.00  0.00     0.000 HD
ATOM     11   O  BGC B   1      18.688  14.462  24.2380  0.00  0.00     0.000 O
ATOM     13  HD  BGC B   1      17.932  14.581  24.6440  0.00  0.00     0.000 HD
ATOM     13   C  BGC B   1      21.297  14.255  22.8750  0.00  0.00     0.000 C
ATOM     14   O  BGC B   1      21.755  13.065  23.5100  0.00  0.00     0.000 O
ATOM     16  HD  BGC B   1      20.999  13.184  23.9160  0.00  0.00     0.000 HD
ENDROOT
BRANCH 1 16
ATOM     16  O4  BGC B   2      19.161  12.100  19.3470  0.00  0.00     0.000 O
BRANCH 16 20
ATOM     17  C1  BGC B   2      20.513  11.625  15.5420  0.00  0.00     0.000 C
ATOM     18  C2  BGC B   2      21.622  11.820  16.5650  0.00  0.00     0.000 C
ATOM     19  C3  BGC B   2      21.035  11.620  17.9610  0.00  0.00     0.000 C
ATOM     20  C4  BGC B   2      19.834  12.521  18.1640  0.00  0.00     0.000 C
ATOM     21  C5  BGC B   2      18.835  12.429  17.0100  0.00  0.00     0.000 C
ATOM     22  O5  BGC B   2      19.536  12.655  15.7810  0.00  0.00     0.000 O
ATOM     23   O  BGC B   2      22.666  10.855  16.3520  0.00  0.00     0.000 O
ATOM     25  HD  BGC B   2      22.021  10.918  16.9250  0.00  0.00     0.000 HD
ATOM     25   O  BGC B   2      22.026  11.889  18.9460  0.00  0.00     0.000 O
ATOM     27  HD  BGC B   2      21.380  11.952  19.5200  0.00  0.00     0.000 HD
ATOM     27   C  BGC B   2      17.720  13.463  17.1060  0.00  0.00     0.000 C
ATOM     28   O  BGC B   2      18.196  14.797  17.1810  0.00  0.00     0.000 O
ATOM     30  HD  BGC B   2      17.551  14.861  17.7550  0.00  0.00     0.000 HD
BRANCH 17 30
ATOM     30  O4  BGC B   3      21.067  11.928  14.2750  0.00  0.00     0.000 O
BRANCH 30 34
ATOM     31  C1  BGC B   3      20.502  10.984  10.3110  0.00  0.00     0.000 C
ATOM     32  C2  BGC B   3      19.523  12.020  10.8630  0.00  0.00     0.000 C
ATOM     33  C3  BGC B   3      20.071  12.567  12.1690  0.00  0.00     0.000 C
ATOM     34  C4  BGC B   3      20.348  11.424  13.1450  0.00  0.00     0.000 C
ATOM     35  C5  BGC B   3      21.209  10.362  12.4840  0.00  0.00     0.000 C
ATOM     36  O5  BGC B   3      20.589   9.938  11.2650  0.00  0.00     0.000 O
ATOM     37   O  BGC B   3      19.401  13.099   9.9380  0.00  0.00     0.000 O
ATOM     39  HD  BGC B   3      18.743  13.407  10.4090  0.00  0.00     0.000 HD
ATOM     39   O  BGC B   3      19.120  13.470  12.7130  0.00  0.00     0.000 O
ATOM     41  HD  BGC B   3      18.462  13.778  13.1840  0.00  0.00     0.000 HD
ATOM     41   C  BGC B   3      21.461   9.137  13.3570  0.00  0.00     0.000 C
ATOM     42   O  BGC B   3      20.238   8.551  13.7360  0.00  0.00     0.000 O
ATOM     44  HD  BGC B   3      19.580   8.859  14.2070  0.00  0.00     0.000 HD
BRANCH 31 44
ATOM     44  O4  BGC B   4      19.916  10.429   9.1620  0.00  0.00     0.000 O
BRANCH 44 48
ATOM     45  C1  BGC B   4      20.971   8.848   5.5300  0.00  0.00     0.000 C
ATOM     46  C2  BGC B   4      21.100   7.889   6.7050  0.00  0.00     0.000 C
ATOM     47  C3  BGC B   4      20.331   8.432   7.8840  0.00  0.00     0.000 C
ATOM     48  C4  BGC B   4      20.782   9.861   8.2010  0.00  0.00     0.000 C
ATOM     49  C5  BGC B   4      20.719  10.737   6.9430  0.00  0.00     0.000 C
ATOM     50  O5  BGC B   4      21.485  10.131   5.8920  0.00  0.00     0.000 O
ATOM     51   O  BGC B   4      20.567   6.599   6.3490  0.00  0.00     0.000 O
ATOM     53  HD  BGC B   4      19.906   6.895   6.8240  0.00  0.00     0.000 HD
ATOM     53   O  BGC B   4      20.569   7.587   9.0190  0.00  0.00     0.000 O
ATOM     55  HD  BGC B   4      19.907   7.882   9.4940  0.00  0.00     0.000 HD
ATOM     55   C  BGC B   4      21.258  12.144   7.1310  0.00  0.00     0.000 C
ATOM     56   O  BGC B   4      22.591  12.036   7.6330  0.00  0.00     0.000 O
ATOM     58  HD  BGC B   4      21.930  12.332   8.1080  0.00  0.00     0.000 HD
BRANCH 45 58
ATOM     58  O4  BGC B   5      21.919   8.407   4.5590  0.00  0.00     0.000 O
BRANCH 58 62
ATOM     59  C1  BGC B   5      22.329   7.662   0.5060  0.00  0.00     0.000 C
ATOM     60  C2  BGC B   5      22.225   9.124   0.8910  0.00  0.00     0.000 C
ATOM     61  C3  BGC B   5      22.497   9.305   2.3720  0.00  0.00     0.000 C
ATOM     62  C4  BGC B   5      21.568   8.407   3.1730  0.00  0.00     0.000 C
ATOM     63  C5  BGC B   5      21.663   6.955   2.6810  0.00  0.00     0.000 C
ATOM     64  O5  BGC B   5      21.383   6.923   1.2850  0.00  0.00     0.000 O
ATOM     65   O  BGC B   5      19.393   6.582   3.1340  0.00  0.00     0.000 O
ATOM     67  HD  BGC B   5      18.738   6.889   3.6100  0.00  0.00     0.000 HD
ATOM     67   O  BGC B   5      19.393   6.582   3.1340  0.00  0.00     0.000 O
ATOM     69  HD  BGC B   5      18.738   6.889   3.6100  0.00  0.00     0.000 HD
ENDBRANCH 58 62
ENDBRANCH 45 58
ENDBRANCH 44 48
ENDBRANCH 31 44
ENDBRANCH 30 34
ENDBRANCH 17 30
ENDBRANCH 16 20
ENDBRANCH 1 16
TORSDOF 8
ENDMDL
MODEL 61
REMARK VINA RESULT:      -1.1      6.916     16.676
ROOT
ATOM      1  C1  BGC B   1      22.516  14.748  12.3240  0.00  0.00     0.000 C
ATOM      2  C2  BGC B   1      22.459  15.659  13.5490  0.00  0.00     0.000 C
ATOM      3  C3  BGC B   1      23.701  16.526  13.6130  0.00  0.00     0.000 C
ATOM      4  C4  BGC B   1      24.960  15.673  13.5140  0.00  0.00     0.000 C
ATOM      5  C5  BGC B   1      24.878  14.839  12.2430  0.00  0.00     0.000 C
ATOM      6  O5  BGC B   1      23.719  13.993  12.3580  0.00  0.00     0.000 O
ATOM      7   O  BGC B   1      21.298  16.502  13.4580  0.00  0.00     0.000 O
ATOM      9  HD  BGC B   1      21.328  17.273  13.8510  0.00  0.00     0.000 HD
ATOM      9   O  BGC B   1      23.684  17.270  14.8350  0.00  0.00     0.000 O
ATOM     11  HD  BGC B   1      23.715  18.041  15.2280  0.00  0.00     0.000 HD
ATOM     11   O  BGC B   1      26.096  16.508  13.4690  0.00  0.00     0.000 O
ATOM     13  HD  BGC B   1      26.126  17.279  13.8620  0.00  0.00     0.000 HD
ATOM     13   C  BGC B   1      26.093  13.963  11.9750  0.00  0.00     0.000 C
ATOM     14   O  BGC B   1      26.388  13.097  13.0670  0.00  0.00     0.000 O
ATOM     16  HD  BGC B   1      26.418  13.868  13.4600  0.00  0.00     0.000 HD
ENDROOT
BRANCH 1 16
ATOM     16  O4  BGC B   2      21.472  13.792  12.4890  0.00  0.00     0.000 O
BRANCH 16 20
ATOM     17  C1  BGC B   2      19.689  10.737  10.4810  0.00  0.00     0.000 C
ATOM     18  C2  BGC B   2      20.884  10.304  11.3180  0.00  0.00     0.000 C
ATOM     19  C3  BGC B   2      21.231  11.431  12.2880  0.00  0.00     0.000 C
ATOM     20  C4  BGC B   2      21.434  12.732  11.5370  0.00  0.00     0.000 C
ATOM     21  C5  BGC B   2      20.292  13.028  10.5660  0.00  0.00     0.000 C
ATOM     22  O5  BGC B   2      20.104  11.887   9.7200  0.00  0.00     0.000 O
ATOM     23   O  BGC B   2      20.559   9.122  12.0680  0.00  0.00     0.000 O
ATOM     25  HD  BGC B   2      20.622   9.961  12.2740  0.00  0.00     0.000 HD
ATOM     25   O  BGC B   2      22.404  11.096  13.0200  0.00  0.00     0.000 O
ATOM     27  HD  BGC B   2      22.467  11.935  13.2260  0.00  0.00     0.000 HD
ATOM     27   C  BGC B   2      20.570  14.229   9.6700  0.00  0.00     0.000 C
ATOM     28   O  BGC B   2      21.771  14.108   8.9250  0.00  0.00     0.000 O
ATOM     30  HD  BGC B   2      21.834  14.947   9.1310  0.00  0.00     0.000 HD
BRANCH 17 30
ATOM     30  O4  BGC B   3      19.470   9.719   9.5230  0.00  0.00     0.000 O
BRANCH 30 34
ATOM     31  C1  BGC B   3      16.374   8.088   7.3600  0.00  0.00     0.000 C
ATOM     32  C2  BGC B   3      16.936   9.387   6.7830  0.00  0.00     0.000 C
ATOM     33  C3  BGC B   3      18.288   9.661   7.4170  0.00  0.00     0.000 C
ATOM     34  C4  BGC B   3      18.163   9.685   8.9400  0.00  0.00     0.000 C
ATOM     35  C5  BGC B   3      17.468   8.429   9.4330  0.00  0.00     0.000 C
ATOM     36  O5  BGC B   3      16.215   8.282   8.7570  0.00  0.00     0.000 O
ATOM     37   O  BGC B   3      17.117   9.244   5.3760  0.00  0.00     0.000 O
ATOM     39  HD  BGC B   3      17.281  10.093   5.3280  0.00  0.00     0.000 HD
ATOM     39   O  BGC B   3      18.767  10.908   6.9340  0.00  0.00     0.000 O
ATOM     41  HD  BGC B   3      18.931  11.757   6.8850  0.00  0.00     0.000 HD
ATOM     41   C  BGC B   3      17.218   8.408  10.9370  0.00  0.00     0.000 C
ATOM     42   O  BGC B   3      16.448   9.524  11.3160  0.00  0.00     0.000 O
ATOM     44  HD  BGC B   3      16.612  10.373  11.2670  0.00  0.00     0.000 HD
BRANCH 31 44
ATOM     44  O4  BGC B   4      15.084   7.922   6.8300  0.00  0.00     0.000 O
BRANCH 44 48
ATOM     45  C1  BGC B   4      12.367   4.967   5.9990  0.00  0.00     0.000 C
ATOM     46  C2  BGC B   4      12.413   5.399   7.4580  0.00  0.00     0.000 C
ATOM     47  C3  BGC B   4      13.133   6.721   7.5680  0.00  0.00     0.000 C
ATOM     48  C4  BGC B   4      14.511   6.633   6.9060  0.00  0.00     0.000 C
ATOM     49  C5  BGC B   4      14.388   6.093   5.4750  0.00  0.00     0.000 C
ATOM     50  O5  BGC B   4      13.695   4.837   5.4890  0.00  0.00     0.000 O
ATOM     51   O  BGC B   4      11.075   5.548   7.9700  0.00  0.00     0.000 O
ATOM     53  HD  BGC B   4      11.268   6.383   7.8470  0.00  0.00     0.000 HD
ATOM     53   O  BGC B   4      13.283   7.050   8.9570  0.00  0.00     0.000 O
ATOM     55  HD  BGC B   4      13.476   7.885   8.8330  0.00  0.00     0.000 HD
ATOM     55   C  BGC B   4      15.716   5.861   4.7760  0.00  0.00     0.000 C
ATOM     56   O  BGC B   4      16.497   4.995   5.6020  0.00  0.00     0.000 O
ATOM     58  HD  BGC B   4      16.690   5.830   5.4780  0.00  0.00     0.000 HD
BRANCH 45 58
ATOM     58  O4  BGC B   5      11.913   3.614   6.0060  0.00  0.00     0.000 O
BRANCH 58 62
ATOM     59  C1  BGC B   5       9.262   1.092   4.0660  0.00  0.00     0.000 C
ATOM     60  C2  BGC B   5      10.591   1.301   3.3680  0.00  0.00     0.000 C
ATOM     61  C3  BGC B   5      11.613   1.876   4.3290  0.00  0.00     0.000 C
ATOM     62  C4  BGC B   5      11.061   3.145   4.9580  0.00  0.00     0.000 C
ATOM     63  C5  BGC B   5       9.680   2.885   5.5780  0.00  0.00     0.000 C
ATOM     64  O5  BGC B   5       8.819   2.354   4.5760  0.00  0.00     0.000 O
ATOM     65   O  BGC B   5       8.955   5.049   5.0380  0.00  0.00     0.000 O
ATOM     67  HD  BGC B   5       9.260   5.837   4.8490  0.00  0.00     0.000 HD
ATOM     67   O  BGC B   5       8.955   5.049   5.0380  0.00  0.00     0.000 O
ATOM     69  HD  BGC B   5       9.260   5.837   4.8490  0.00  0.00     0.000 HD
ENDBRANCH 58 62
ENDBRANCH 45 58
ENDBRANCH 44 48
ENDBRANCH 31 44
ENDBRANCH 30 34
ENDBRANCH 17 30
ENDBRANCH 16 20
ENDBRANCH 1 16
TORSDOF 8
ENDMDL
MODEL 62
REMARK VINA RESULT:      -1.1     11.671     17.015
ROOT
ATOM      1  C1  BGC B   1      17.930  13.629  21.1120  0.00  0.00     0.000 C
ATOM      2  C2  BGC B   1      16.798  14.560  21.5440  0.00  0.00     0.000 C
ATOM      3  C3  BGC B   1      17.087  15.126  22.9210  0.00  0.00     0.000 C
ATOM      4  C4  BGC B   1      17.403  14.009  23.9080  0.00  0.00     0.000 C
ATOM      5  C5  BGC B   1      18.553  13.183  23.3490  0.00  0.00     0.000 C
ATOM      6  O5  BGC B   1      18.112  12.623  22.0980  0.00  0.00     0.000 O
ATOM      7   O  BGC B   1      16.688  15.640  20.6020  0.00  0.00     0.000 O
ATOM      9  HD  BGC B   1      16.373  16.394  20.8900  0.00  0.00     0.000 HD
ATOM      9   O  BGC B   1      15.955  15.885  23.3560  0.00  0.00     0.000 O
ATOM     11  HD  BGC B   1      15.640  16.639  23.6430  0.00  0.00     0.000 HD
ATOM     11   O  BGC B   1      17.771  14.565  25.1510  0.00  0.00     0.000 O
ATOM     13  HD  BGC B   1      17.456  15.319  25.4380  0.00  0.00     0.000 HD
ATOM     13   C  BGC B   1      19.021  12.049  24.2490  0.00  0.00     0.000 C
ATOM     14   O  BGC B   1      17.962  11.167  24.6050  0.00  0.00     0.000 O
ATOM     16  HD  BGC B   1      17.647  11.921  24.8920  0.00  0.00     0.000 HD
ENDROOT
BRANCH 1 16
ATOM     16  O4  BGC B   2      17.456  12.937  19.9580  0.00  0.00     0.000 O
BRANCH 16 20
ATOM     17  C1  BGC B   2      18.747  11.347  16.4450  0.00  0.00     0.000 C
ATOM     18  C2  BGC B   2      19.112  10.513  17.6640  0.00  0.00     0.000 C
ATOM     19  C3  BGC B   2      18.281  10.998  18.8490  0.00  0.00     0.000 C
ATOM     20  C4  BGC B   2      18.452  12.491  19.0410  0.00  0.00     0.000 C
ATOM     21  C5  BGC B   2      18.261  13.271  17.7400  0.00  0.00     0.000 C
ATOM     22  O5  BGC B   2      19.117  12.706  16.7390  0.00  0.00     0.000 O
ATOM     23   O  BGC B   2      18.819   9.127  17.4200  0.00  0.00     0.000 O
ATOM     25  HD  BGC B   2      18.421   9.750  17.8700  0.00  0.00     0.000 HD
ATOM     25   O  BGC B   2      18.667  10.302  20.0290  0.00  0.00     0.000 O
ATOM     27  HD  BGC B   2      18.269  10.925  20.4790  0.00  0.00     0.000 HD
ATOM     27   C  BGC B   2      18.615  14.747  17.8750  0.00  0.00     0.000 C
ATOM     28   O  BGC B   2      19.937  14.968  18.3390  0.00  0.00     0.000 O
ATOM     30  HD  BGC B   2      19.539  15.591  18.7900  0.00  0.00     0.000 HD
BRANCH 17 30
ATOM     30  O4  BGC B   3      19.614  10.946  15.4000  0.00  0.00     0.000 O
BRANCH 30 34
ATOM     31  C1  BGC B   3      19.655  10.568  11.3040  0.00  0.00     0.000 C
ATOM     32  C2  BGC B   3      19.577  12.009  11.8080  0.00  0.00     0.000 C
ATOM     33  C3  BGC B   3      19.968  12.038  13.2750  0.00  0.00     0.000 C
ATOM     34  C4  BGC B   3      19.092  11.075  14.0740  0.00  0.00     0.000 C
ATOM     35  C5  BGC B   3      19.102   9.697  13.4360  0.00  0.00     0.000 C
ATOM     36  O5  BGC B   3      18.726   9.807  12.0590  0.00  0.00     0.000 O
ATOM     37   O  BGC B   3      20.498  12.818  11.0790  0.00  0.00     0.000 O
ATOM     39  HD  BGC B   3      20.148  13.519  11.4470  0.00  0.00     0.000 HD
ATOM     39   O  BGC B   3      19.818  13.366  13.7530  0.00  0.00     0.000 O
ATOM     41  HD  BGC B   3      19.468  14.068  14.1220  0.00  0.00     0.000 HD
ATOM     41   C  BGC B   3      18.180   8.691  14.1160  0.00  0.00     0.000 C
ATOM     42   O  BGC B   3      16.857   9.172  14.1210  0.00  0.00     0.000 O
ATOM     44  HD  BGC B   3      16.506   9.873  14.4890  0.00  0.00     0.000 HD
BRANCH 31 44
ATOM     44  O4  BGC B   4      19.191  10.565   9.9790  0.00  0.00     0.000 O
BRANCH 44 48
ATOM     45  C1  BGC B   4      19.773   8.598   6.4300  0.00  0.00     0.000 C
ATOM     46  C2  BGC B   4      18.892   7.862   7.4300  0.00  0.00     0.000 C
ATOM     47  C3  BGC B   4      18.435   8.823   8.4990  0.00  0.00     0.000 C
ATOM     48  C4  BGC B   4      19.639   9.524   9.1350  0.00  0.00     0.000 C
ATOM     49  C5  BGC B   4      20.530  10.152   8.0550  0.00  0.00     0.000 C
ATOM     50  O5  BGC B   4      20.908   9.152   7.0980  0.00  0.00     0.000 O
ATOM     51   O  BGC B   4      17.738   7.317   6.7620  0.00  0.00     0.000 O
ATOM     53  HD  BGC B   4      17.369   8.007   7.1340  0.00  0.00     0.000 HD
ATOM     53   O  BGC B   4      17.716   8.091   9.5020  0.00  0.00     0.000 O
ATOM     55  HD  BGC B   4      17.347   8.781   9.8730  0.00  0.00     0.000 HD
ATOM     55   C  BGC B   4      21.812  10.771   8.5810  0.00  0.00     0.000 C
ATOM     56   O  BGC B   4      22.508   9.767   9.3220  0.00  0.00     0.000 O
ATOM     58  HD  BGC B   4      22.139  10.457   9.6930  0.00  0.00     0.000 HD
BRANCH 45 58
ATOM     58  O4  BGC B   5      20.367   7.588   5.6140  0.00  0.00     0.000 O
BRANCH 58 62
ATOM     59  C1  BGC B   5      21.818   7.023   1.7770  0.00  0.00     0.000 C
ATOM     60  C2  BGC B   5      22.033   8.406   2.3560  0.00  0.00     0.000 C
ATOM     61  C3  BGC B   5      21.855   8.387   3.8630  0.00  0.00     0.000 C
ATOM     62  C4  BGC B   5      20.497   7.798   4.2060  0.00  0.00     0.000 C
ATOM     63  C5  BGC B   5      20.311   6.434   3.5250  0.00  0.00     0.000 C
ATOM     64  O5  BGC B   5      20.498   6.590   2.1230  0.00  0.00     0.000 O
ATOM     65   O  BGC B   5      18.013   6.809   3.2490  0.00  0.00     0.000 O
ATOM     67  HD  BGC B   5      17.362   7.284   3.5660  0.00  0.00     0.000 HD
ATOM     67   O  BGC B   5      18.013   6.809   3.2490  0.00  0.00     0.000 O
ATOM     69  HD  BGC B   5      17.362   7.284   3.5660  0.00  0.00     0.000 HD
ENDBRANCH 58 62
ENDBRANCH 45 58
ENDBRANCH 44 48
ENDBRANCH 31 44
ENDBRANCH 30 34
ENDBRANCH 17 30
ENDBRANCH 16 20
ENDBRANCH 1 16
TORSDOF 8
ENDMDL
MODEL 63
REMARK VINA RESULT:      -1.1      9.876     12.441
ROOT
ATOM      1  C1  BGC B   1      10.294  17.212  13.0030  0.00  0.00     0.000 C
ATOM      2  C2  BGC B   1       9.224  18.299  12.9210  0.00  0.00     0.000 C
ATOM      3  C3  BGC B   1       8.721  18.641  14.3100  0.00  0.00     0.000 C
ATOM      4  C4  BGC B   1       8.293  17.383  15.0540  0.00  0.00     0.000 C
ATOM      5  C5  BGC B   1       9.461  16.409  15.0660  0.00  0.00     0.000 C
ATOM      6  O5  BGC B   1       9.769  16.088  13.6960  0.00  0.00     0.000 O
ATOM      7   O  BGC B   1       9.789  19.475  12.3180  0.00  0.00     0.000 O
ATOM      9  HD  BGC B   1       9.446  20.241  12.5310  0.00  0.00     0.000 HD
ATOM      9   O  BGC B   1       7.631  19.561  14.1930  0.00  0.00     0.000 O
ATOM     11  HD  BGC B   1       7.288  20.327  14.4060  0.00  0.00     0.000 HD
ATOM     11   O  BGC B   1       7.930  17.715  16.3760  0.00  0.00     0.000 O
ATOM     13  HD  BGC B   1       7.586  18.481  16.5890  0.00  0.00     0.000 HD
ATOM     13   C  BGC B   1       9.205  15.112  15.8200  0.00  0.00     0.000 C
ATOM     14   O  BGC B   1       8.050  14.428  15.3450  0.00  0.00     0.000 O
ATOM     16  HD  BGC B   1       7.706  15.194  15.5580  0.00  0.00     0.000 HD
ENDROOT
BRANCH 1 16
ATOM     16  O4  BGC B   2      10.506  16.759  11.6680  0.00  0.00     0.000 O
BRANCH 16 20
ATOM     17  C1  BGC B   2      12.995  14.317   9.5750  0.00  0.00     0.000 C
ATOM     18  C2  BGC B   2      11.745  13.619  10.0920  0.00  0.00     0.000 C
ATOM     19  C3  BGC B   2      10.740  14.683  10.5260  0.00  0.00     0.000 C
ATOM     20  C4  BGC B   2      11.374  15.639  11.5150  0.00  0.00     0.000 C
ATOM     21  C5  BGC B   2      12.724  16.168  11.0300  0.00  0.00     0.000 C
ATOM     22  O5  BGC B   2      13.553  15.053  10.6790  0.00  0.00     0.000 O
ATOM     23   O  BGC B   2      11.162  12.816   9.0520  0.00  0.00     0.000 O
ATOM     25  HD  BGC B   2      10.964  13.588   9.3920  0.00  0.00     0.000 HD
ATOM     25   O  BGC B   2       9.597  14.062  11.1040  0.00  0.00     0.000 O
ATOM     27  HD  BGC B   2       9.400  14.834  11.4440  0.00  0.00     0.000 HD
ATOM     27   C  BGC B   2      13.461  16.978  12.0900  0.00  0.00     0.000 C
ATOM     28   O  BGC B   2      13.667  16.266  13.2980  0.00  0.00     0.000 O
ATOM     30  HD  BGC B   2      13.470  17.038  13.6380  0.00  0.00     0.000 HD
BRANCH 17 30
ATOM     30  O4  BGC B   3      13.941  13.304   9.2900  0.00  0.00     0.000 O
BRANCH 30 34
ATOM     31  C1  BGC B   3      17.145  12.600   6.8070  0.00  0.00     0.000 C
ATOM     32  C2  BGC B   3      17.420  13.599   7.9300  0.00  0.00     0.000 C
ATOM     33  C3  BGC B   3      16.332  13.470   8.9810  0.00  0.00     0.000 C
ATOM     34  C4  BGC B   3      14.955  13.649   8.3410  0.00  0.00     0.000 C
ATOM     35  C5  BGC B   3      14.804  12.727   7.1440  0.00  0.00     0.000 C
ATOM     36  O5  BGC B   3      15.891  12.941   6.2380  0.00  0.00     0.000 O
ATOM     37   O  BGC B   3      18.674  13.297   8.5390  0.00  0.00     0.000 O
ATOM     39  HD  BGC B   3      18.620  14.041   8.9790  0.00  0.00     0.000 HD
ATOM     39   O  BGC B   3      16.552  14.453   9.9810  0.00  0.00     0.000 O
ATOM     41  HD  BGC B   3      16.498  15.197  10.4210  0.00  0.00     0.000 HD
ATOM     41   C  BGC B   3      13.493  12.904   6.3870  0.00  0.00     0.000 C
ATOM     42   O  BGC B   3      13.363  14.235   5.9460  0.00  0.00     0.000 O
ATOM     44  HD  BGC B   3      13.310  14.978   6.3860  0.00  0.00     0.000 HD
BRANCH 31 44
ATOM     44  O4  BGC B   4      18.110  12.820   5.8100  0.00  0.00     0.000 O
BRANCH 44 48
ATOM     45  C1  BGC B   4      20.341  10.764   3.0530  0.00  0.00     0.000 C
ATOM     46  C2  BGC B   4      18.886  10.982   2.6610  0.00  0.00     0.000 C
ATOM     47  C3  BGC B   4      18.286  12.058   3.5330  0.00  0.00     0.000 C
ATOM     48  C4  BGC B   4      18.484  11.714   5.0130  0.00  0.00     0.000 C
ATOM     49  C5  BGC B   4      19.958  11.409   5.3040  0.00  0.00     0.000 C
ATOM     50  O5  BGC B   4      20.421  10.374   4.4250  0.00  0.00     0.000 O
ATOM     51   O  BGC B   4      18.802  11.393   1.2830  0.00  0.00     0.000 O
ATOM     53  HD  BGC B   4      18.685  12.163   1.6630  0.00  0.00     0.000 HD
ATOM     53   O  BGC B   4      16.885  12.160   3.2430  0.00  0.00     0.000 O
ATOM     55  HD  BGC B   4      16.768  12.930   3.6230  0.00  0.00     0.000 HD
ATOM     55   C  BGC B   4      20.235  10.944   6.7220  0.00  0.00     0.000 C
ATOM     56   O  BGC B   4      19.401   9.813   6.9800  0.00  0.00     0.000 O
ATOM     58  HD  BGC B   4      19.284  10.583   7.3600  0.00  0.00     0.000 HD
BRANCH 45 58
ATOM     58  O4  BGC B   5      20.754   9.577   2.3760  0.00  0.00     0.000 O
BRANCH 58 62
ATOM     59  C1  BGC B   5      23.951   7.999   0.2710  0.00  0.00     0.000 C
ATOM     60  C2  BGC B   5      24.099   7.993   1.7790  0.00  0.00     0.000 C
ATOM     61  C3  BGC B   5      22.752   8.190   2.4470  0.00  0.00     0.000 C
ATOM     62  C4  BGC B   5      22.101   9.456   1.9140  0.00  0.00     0.000 C
ATOM     63  C5  BGC B   5      22.054   9.436   0.3790  0.00  0.00     0.000 C
ATOM     64  O5  BGC B   5      23.375   9.250  -0.1190  0.00  0.00     0.000 O
ATOM     65   O  BGC B   5      22.352  11.759   0.2710  0.00  0.00     0.000 O
ATOM     67  HD  BGC B   5      22.260  12.476   0.7480  0.00  0.00     0.000 HD
ATOM     67   O  BGC B   5      22.352  11.759   0.2710  0.00  0.00     0.000 O
ATOM     69  HD  BGC B   5      22.260  12.476   0.7480  0.00  0.00     0.000 HD
ENDBRANCH 58 62
ENDBRANCH 45 58
ENDBRANCH 44 48
ENDBRANCH 31 44
ENDBRANCH 30 34
ENDBRANCH 17 30
ENDBRANCH 16 20
ENDBRANCH 1 16
TORSDOF 8
ENDMDL
MODEL 64
REMARK VINA RESULT:      -1.1     12.934     18.985
ROOT
ATOM      1  C1  BGC B   1      21.402  12.030   3.7810  0.00  0.00     0.000 C
ATOM      2  C2  BGC B   1      21.362  10.514   3.5950  0.00  0.00     0.000 C
ATOM      3  C3  BGC B   1      21.645  10.160   2.1470  0.00  0.00     0.000 C
ATOM      4  C4  BGC B   1      20.729  10.940   1.2130  0.00  0.00     0.000 C
ATOM      5  C5  BGC B   1      20.891  12.424   1.5060  0.00  0.00     0.000 C
ATOM      6  O5  BGC B   1      20.494  12.638   2.8730  0.00  0.00     0.000 O
ATOM      7   O  BGC B   1      22.359   9.908   4.4340  0.00  0.00     0.000 O
ATOM      9  HD  BGC B   1      22.693   9.151   4.1790  0.00  0.00     0.000 HD
ATOM      9   O  BGC B   1      21.471   8.751   1.9740  0.00  0.00     0.000 O
ATOM     11  HD  BGC B   1      21.805   7.993   1.7190  0.00  0.00     0.000 HD
ATOM     11   O  BGC B   1      21.082  10.673  -0.1270  0.00  0.00     0.000 O
ATOM     13  HD  BGC B   1      21.416   9.916  -0.3820  0.00  0.00     0.000 HD
ATOM     13   C  BGC B   1      20.071  13.345   0.6150  0.00  0.00     0.000 C
ATOM     14   O  BGC B   1      18.683  13.027   0.6380  0.00  0.00     0.000 O
ATOM     16  HD  BGC B   1      19.017  12.270   0.3840  0.00  0.00     0.000 HD
ENDROOT
BRANCH 1 16
ATOM     16  O4  BGC B   2      20.861  12.286   5.0760  0.00  0.00     0.000 O
BRANCH 16 20
ATOM     17  C1  BGC B   2      21.237  14.795   8.2540  0.00  0.00     0.000 C
ATOM     18  C2  BGC B   2      20.580  15.439   7.0410  0.00  0.00     0.000 C
ATOM     19  C3  BGC B   2      20.166  14.334   6.0710  0.00  0.00     0.000 C
ATOM     20  C4  BGC B   2      21.349  13.447   5.7420  0.00  0.00     0.000 C
ATOM     21  C5  BGC B   2      22.093  12.979   6.9940  0.00  0.00     0.000 C
ATOM     22  O5  BGC B   2      22.423  14.128   7.7840  0.00  0.00     0.000 O
ATOM     23   O  BGC B   2      19.412  16.173   7.4440  0.00  0.00     0.000 O
ATOM     25  HD  BGC B   2      19.532  15.403   7.0660  0.00  0.00     0.000 HD
ATOM     25   O  BGC B   2      19.634  14.908   4.8830  0.00  0.00     0.000 O
ATOM     27  HD  BGC B   2      19.754  14.138   4.5060  0.00  0.00     0.000 HD
ATOM     27   C  BGC B   2      23.390  12.246   6.6750  0.00  0.00     0.000 C
ATOM     28   O  BGC B   2      24.285  13.007   5.8810  0.00  0.00     0.000 O
ATOM     30  HD  BGC B   2      24.405  12.237   5.5030  0.00  0.00     0.000 HD
BRANCH 17 30
ATOM     30  O4  BGC B   3      21.706  15.850   9.0720  0.00  0.00     0.000 O
BRANCH 30 34
ATOM     31  C1  BGC B   3      22.350  16.704  13.0450  0.00  0.00     0.000 C
ATOM     32  C2  BGC B   3      23.334  15.700  12.4440  0.00  0.00     0.000 C
ATOM     33  C3  BGC B   3      23.250  15.776  10.9300  0.00  0.00     0.000 C
ATOM     34  C4  BGC B   3      21.809  15.555  10.4690  0.00  0.00     0.000 C
ATOM     35  C5  BGC B   3      20.868  16.487  11.2110  0.00  0.00     0.000 C
ATOM     36  O5  BGC B   3      21.051  16.324  12.6210  0.00  0.00     0.000 O
ATOM     37   O  BGC B   3      24.661  16.040  12.8400  0.00  0.00     0.000 O
ATOM     39  HD  BGC B   3      24.935  15.289  12.5070  0.00  0.00     0.000 HD
ATOM     39   O  BGC B   3      24.109  14.788  10.3810  0.00  0.00     0.000 O
ATOM     41  HD  BGC B   3      24.383  14.037  10.0480  0.00  0.00     0.000 HD
ATOM     41   C  BGC B   3      19.395  16.272  10.8800  0.00  0.00     0.000 C
ATOM     42   O  BGC B   3      19.024  14.943  11.1620  0.00  0.00     0.000 O
ATOM     44  HD  BGC B   3      19.297  14.192  10.8290  0.00  0.00     0.000 HD
BRANCH 31 44
ATOM     44  O4  BGC B   4      22.382  16.533  14.4390  0.00  0.00     0.000 O
BRANCH 44 48
ATOM     45  C1  BGC B   4      21.940  18.668  17.9100  0.00  0.00     0.000 C
ATOM     46  C2  BGC B   4      20.641  18.369  17.1750  0.00  0.00     0.000 C
ATOM     47  C3  BGC B   4      20.875  17.275  16.1630  0.00  0.00     0.000 C
ATOM     48  C4  BGC B   4      22.039  17.646  15.2380  0.00  0.00     0.000 C
ATOM     49  C5  BGC B   4      23.277  18.031  16.0570  0.00  0.00     0.000 C
ATOM     50  O5  BGC B   4      22.942  19.079  16.9790  0.00  0.00     0.000 O
ATOM     51   O  BGC B   4      19.633  17.938  18.1090  0.00  0.00     0.000 O
ATOM     53  HD  BGC B   4      19.851  17.168  17.7780  0.00  0.00     0.000 HD
ATOM     53   O  BGC B   4      19.680  17.096  15.3900  0.00  0.00     0.000 O
ATOM     55  HD  BGC B   4      19.898  16.326  15.0590  0.00  0.00     0.000 HD
ATOM     55   C  BGC B   4      24.448  18.527  15.2280  0.00  0.00     0.000 C
ATOM     56   O  BGC B   4      23.985  19.616  14.4270  0.00  0.00     0.000 O
ATOM     58  HD  BGC B   4      24.203  18.847  14.0960  0.00  0.00     0.000 HD
BRANCH 45 58
ATOM     58  O4  BGC B   5      21.704  19.866  18.6490  0.00  0.00     0.000 O
BRANCH 58 62
ATOM     59  C1  BGC B   5      22.343  21.556  22.3750  0.00  0.00     0.000 C
ATOM     60  C2  BGC B   5      23.547  21.538  21.4540  0.00  0.00     0.000 C
ATOM     61  C3  BGC B   5      23.117  21.297  20.0200  0.00  0.00     0.000 C
ATOM     62  C4  BGC B   5      22.285  20.027  19.9450  0.00  0.00     0.000 C
ATOM     63  C5  BGC B   5      21.131  20.075  20.9560  0.00  0.00     0.000 C
ATOM     64  O5  BGC B   5      21.666  20.301  22.2560  0.00  0.00     0.000 O
ATOM     65   O  BGC B   5      21.258  17.762  21.3170  0.00  0.00     0.000 O
ATOM     67  HD  BGC B   5      21.545  17.034  20.9460  0.00  0.00     0.000 HD
ATOM     67   O  BGC B   5      21.258  17.762  21.3170  0.00  0.00     0.000 O
ATOM     69  HD  BGC B   5      21.545  17.034  20.9460  0.00  0.00     0.000 HD
ENDBRANCH 58 62
ENDBRANCH 45 58
ENDBRANCH 44 48
ENDBRANCH 31 44
ENDBRANCH 30 34
ENDBRANCH 17 30
ENDBRANCH 16 20
ENDBRANCH 1 16
TORSDOF 8
ENDMDL
MODEL 65
REMARK VINA RESULT:      -1.1      9.557     14.163
ROOT
ATOM      1  C1  BGC B   1       6.414   4.270   6.7110  0.00  0.00     0.000 C
ATOM      2  C2  BGC B   1       5.363   3.259   7.1660  0.00  0.00     0.000 C
ATOM      3  C3  BGC B   1       6.036   1.985   7.6370  0.00  0.00     0.000 C
ATOM      4  C4  BGC B   1       7.004   1.464   6.5820  0.00  0.00     0.000 C
ATOM      5  C5  BGC B   1       7.992   2.572   6.2450  0.00  0.00     0.000 C
ATOM      6  O5  BGC B   1       7.236   3.676   5.7160  0.00  0.00     0.000 O
ATOM      7   O  BGC B   1       4.604   3.822   8.2490  0.00  0.00     0.000 O
ATOM      9  HD  BGC B   1       4.253   3.274   8.8210  0.00  0.00     0.000 HD
ATOM      9   O  BGC B   1       5.030   1.011   7.9300  0.00  0.00     0.000 O
ATOM     11  HD  BGC B   1       4.679   0.464   8.5020  0.00  0.00     0.000 HD
ATOM     11   O  BGC B   1       7.694   0.341   7.0840  0.00  0.00     0.000 O
ATOM     13  HD  BGC B   1       7.343  -0.207   7.6570  0.00  0.00     0.000 HD
ATOM     13   C  BGC B   1       9.062   2.188   5.2330  0.00  0.00     0.000 C
ATOM     14   O  BGC B   1       8.506   1.692   4.0190  0.00  0.00     0.000 O
ATOM     16  HD  BGC B   1       8.155   1.145   4.5910  0.00  0.00     0.000 HD
ENDROOT
BRANCH 1 16
ATOM     16  O4  BGC B   2       5.704   5.307   6.0360  0.00  0.00     0.000 O
BRANCH 16 20
ATOM     17  C1  BGC B   2       5.859   9.302   5.2950  0.00  0.00     0.000 C
ATOM     18  C2  BGC B   2       6.809   8.483   4.4330  0.00  0.00     0.000 C
ATOM     19  C3  BGC B   2       6.408   7.013   4.5320  0.00  0.00     0.000 C
ATOM     20  C4  BGC B   2       6.348   6.577   5.9820  0.00  0.00     0.000 C
ATOM     21  C5  BGC B   2       5.535   7.541   6.8470  0.00  0.00     0.000 C
ATOM     22  O5  BGC B   2       6.043   8.866   6.6550  0.00  0.00     0.000 O
ATOM     23   O  BGC B   2       6.719   8.904   3.0620  0.00  0.00     0.000 O
ATOM     25  HD  BGC B   2       6.407   8.225   3.4990  0.00  0.00     0.000 HD
ATOM     25   O  BGC B   2       7.335   6.209   3.8130  0.00  0.00     0.000 O
ATOM     27  HD  BGC B   2       7.023   5.530   4.2500  0.00  0.00     0.000 HD
ATOM     27   C  BGC B   2       5.622   7.221   8.3340  0.00  0.00     0.000 C
ATOM     28   O  BGC B   2       6.953   7.191   8.8260  0.00  0.00     0.000 O
ATOM     30  HD  BGC B   2       6.641   6.512   9.2630  0.00  0.00     0.000 HD
BRANCH 17 30
ATOM     30  O4  BGC B   3       6.330  10.637   5.2680  0.00  0.00     0.000 O
BRANCH 30 34
ATOM     31  C1  BGC B   3       4.894  14.488   5.4500  0.00  0.00     0.000 C
ATOM     32  C2  BGC B   3       4.804  13.714   6.7650  0.00  0.00     0.000 C
ATOM     33  C3  BGC B   3       5.705  12.495   6.6800  0.00  0.00     0.000 C
ATOM     34  C4  BGC B   3       5.338  11.650   5.4600  0.00  0.00     0.000 C
ATOM     35  C5  BGC B   3       5.307  12.513   4.2110  0.00  0.00     0.000 C
ATOM     36  O5  BGC B   3       4.432  13.626   4.4220  0.00  0.00     0.000 O
ATOM     37   O  BGC B   3       5.260  14.539   7.8350  0.00  0.00     0.000 O
ATOM     39  HD  BGC B   3       4.976  13.942   8.3950  0.00  0.00     0.000 HD
ATOM     39   O  BGC B   3       5.556  11.741   7.8740  0.00  0.00     0.000 O
ATOM     41  HD  BGC B   3       5.271  11.144   8.4340  0.00  0.00     0.000 HD
ATOM     41   C  BGC B   3       4.860  11.770   2.9570  0.00  0.00     0.000 C
ATOM     42   O  BGC B   3       3.579  11.217   3.1510  0.00  0.00     0.000 O
ATOM     44  HD  BGC B   3       3.295  10.620   3.7100  0.00  0.00     0.000 HD
BRANCH 31 44
ATOM     44  O4  BGC B   4       3.974  15.546   5.5270  0.00  0.00     0.000 O
BRANCH 44 48
ATOM     45  C1  BGC B   4       3.453  19.402   4.2370  0.00  0.00     0.000 C
ATOM     46  C2  BGC B   4       3.259  18.339   3.1650  0.00  0.00     0.000 C
ATOM     47  C3  BGC B   4       3.085  16.991   3.8200  0.00  0.00     0.000 C
ATOM     48  C4  BGC B   4       4.252  16.706   4.7690  0.00  0.00     0.000 C
ATOM     49  C5  BGC B   4       4.446  17.868   5.7500  0.00  0.00     0.000 C
ATOM     50  O5  BGC B   4       4.606  19.095   5.0230  0.00  0.00     0.000 O
ATOM     51   O  BGC B   4       2.087  18.637   2.3820  0.00  0.00     0.000 O
ATOM     53  HD  BGC B   4       1.761  18.012   2.8850  0.00  0.00     0.000 HD
ATOM     53   O  BGC B   4       3.034  15.985   2.7980  0.00  0.00     0.000 O
ATOM     55  HD  BGC B   4       2.708  15.359   3.3010  0.00  0.00     0.000 HD
ATOM     55   C  BGC B   4       5.655  17.729   6.6580  0.00  0.00     0.000 C
ATOM     56   O  BGC B   4       6.803  17.542   5.8280  0.00  0.00     0.000 O
ATOM     58  HD  BGC B   4       6.477  16.917   6.3300  0.00  0.00     0.000 HD
BRANCH 45 58
ATOM     58  O4  BGC B   5       3.864  20.583   3.5480  0.00  0.00     0.000 O
BRANCH 58 62
ATOM     59  C1  BGC B   5       3.022  24.627   3.2690  0.00  0.00     0.000 C
ATOM     60  C2  BGC B   5       3.865  24.220   4.4600  0.00  0.00     0.000 C
ATOM     61  C3  BGC B   5       4.453  22.838   4.2480  0.00  0.00     0.000 C
ATOM     62  C4  BGC B   5       3.337  21.853   3.9390  0.00  0.00     0.000 C
ATOM     63  C5  BGC B   5       2.473  22.362   2.7760  0.00  0.00     0.000 C
ATOM     64  O5  BGC B   5       1.982  23.659   3.1020  0.00  0.00     0.000 O
ATOM     65   O  BGC B   5       0.542  21.410   3.7050  0.00  0.00     0.000 O
ATOM     67  HD  BGC B   5       0.291  20.795   4.2610  0.00  0.00     0.000 HD
ATOM     67   O  BGC B   5       0.542  21.410   3.7050  0.00  0.00     0.000 O
ATOM     69  HD  BGC B   5       0.291  20.795   4.2610  0.00  0.00     0.000 HD
ENDBRANCH 58 62
ENDBRANCH 45 58
ENDBRANCH 44 48
ENDBRANCH 31 44
ENDBRANCH 30 34
ENDBRANCH 17 30
ENDBRANCH 16 20
ENDBRANCH 1 16
TORSDOF 8
ENDMDL
MODEL 66
REMARK VINA RESULT:      -1.0     12.122     18.955
ROOT
ATOM      1  C1  BGC B   1      22.808  11.867  21.1290  0.00  0.00     0.000 C
ATOM      2  C2  BGC B   1      24.108  12.656  21.2730  0.00  0.00     0.000 C
ATOM      3  C3  BGC B   1      24.334  13.027  22.7250  0.00  0.00     0.000 C
ATOM      4  C4  BGC B   1      23.105  13.716  23.3040  0.00  0.00     0.000 C
ATOM      5  C5  BGC B   1      21.902  12.806  23.1010  0.00  0.00     0.000 C
ATOM      6  O5  BGC B   1      21.738  12.620  21.6830  0.00  0.00     0.000 O
ATOM      7   O  BGC B   1      25.205  11.849  20.8130  0.00  0.00     0.000 O
ATOM      9  HD  BGC B   1      25.986  11.998  21.1570  0.00  0.00     0.000 HD
ATOM      9   O  BGC B   1      25.483  13.876  22.8120  0.00  0.00     0.000 O
ATOM     11  HD  BGC B   1      26.264  14.025  23.1560  0.00  0.00     0.000 HD
ATOM     11   O  BGC B   1      23.300  13.955  24.6810  0.00  0.00     0.000 O
ATOM     13  HD  BGC B   1      24.081  14.104  25.0240  0.00  0.00     0.000 HD
ATOM     13   C  BGC B   1      20.596  13.337  23.6740  0.00  0.00     0.000 C
ATOM     14   O  BGC B   1      20.273  14.633  23.1770  0.00  0.00     0.000 O
ATOM     16  HD  BGC B   1      21.054  14.782  23.5200  0.00  0.00     0.000 HD
ENDROOT
BRANCH 1 16
ATOM     16  O4  BGC B   2      22.533  11.803  19.7310  0.00  0.00     0.000 O
BRANCH 16 20
ATOM     17  C1  BGC B   2      20.837   9.385  16.9360  0.00  0.00     0.000 C
ATOM     18  C2  BGC B   2      19.826  10.160  17.7670  0.00  0.00     0.000 C
ATOM     19  C3  BGC B   2      20.560  11.277  18.5050  0.00  0.00     0.000 C
ATOM     20  C4  BGC B   2      21.721  10.714  19.3000  0.00  0.00     0.000 C
ATOM     21  C5  BGC B   2      22.604   9.786  18.4650  0.00  0.00     0.000 C
ATOM     22  O5  BGC B   2      21.772   8.791  17.8560  0.00  0.00     0.000 O
ATOM     23   O  BGC B   2      18.825  10.739  16.9140  0.00  0.00     0.000 O
ATOM     25  HD  BGC B   2      19.520  11.059  17.3210  0.00  0.00     0.000 HD
ATOM     25   O  BGC B   2      19.659  11.963  19.3670  0.00  0.00     0.000 O
ATOM     27  HD  BGC B   2      20.354  12.282  19.7730  0.00  0.00     0.000 HD
ATOM     27   C  BGC B   2      23.659   9.065  19.2940  0.00  0.00     0.000 C
ATOM     28   O  BGC B   2      23.116   8.318  20.3690  0.00  0.00     0.000 O
ATOM     30  HD  BGC B   2      23.810   8.637  20.7760  0.00  0.00     0.000 HD
BRANCH 17 30
ATOM     30  O4  BGC B   3      20.143   8.295  16.3590  0.00  0.00     0.000 O
BRANCH 30 34
ATOM     31  C1  BGC B   3      20.220   5.946  12.9820  0.00  0.00     0.000 C
ATOM     32  C2  BGC B   3      21.364   5.687  13.9620  0.00  0.00     0.000 C
ATOM     33  C3  BGC B   3      21.011   6.302  15.3040  0.00  0.00     0.000 C
ATOM     34  C4  BGC B   3      20.688   7.786  15.1370  0.00  0.00     0.000 C
ATOM     35  C5  BGC B   3      19.647   7.981  14.0490  0.00  0.00     0.000 C
ATOM     36  O5  BGC B   3      20.095   7.352  12.8430  0.00  0.00     0.000 O
ATOM     37   O  BGC B   3      21.531   4.282  14.1380  0.00  0.00     0.000 O
ATOM     39  HD  BGC B   3      22.262   4.440  14.5750  0.00  0.00     0.000 HD
ATOM     39   O  BGC B   3      22.110   6.124  16.1840  0.00  0.00     0.000 O
ATOM     41  HD  BGC B   3      22.842   6.283  16.6200  0.00  0.00     0.000 HD
ATOM     41   C  BGC B   3      19.329   9.442  13.7500  0.00  0.00     0.000 C
ATOM     42   O  BGC B   3      20.502  10.127  13.3760  0.00  0.00     0.000 O
ATOM     44  HD  BGC B   3      21.233  10.285  13.8120  0.00  0.00     0.000 HD
BRANCH 31 44
ATOM     44  O4  BGC B   4      20.626   5.455  11.7300  0.00  0.00     0.000 O
BRANCH 44 48
ATOM     45  C1  BGC B   4      19.051   3.744   8.3550  0.00  0.00     0.000 C
ATOM     46  C2  BGC B   4      18.930   5.260   8.4170  0.00  0.00     0.000 C
ATOM     47  C3  BGC B   4      19.866   5.797   9.4720  0.00  0.00     0.000 C
ATOM     48  C4  BGC B   4      19.612   5.100  10.8120  0.00  0.00     0.000 C
ATOM     49  C5  BGC B   4      19.650   3.576  10.6440  0.00  0.00     0.000 C
ATOM     50  O5  BGC B   4      18.722   3.178   9.6240  0.00  0.00     0.000 O
ATOM     51   O  BGC B   4      19.277   5.836   7.1440  0.00  0.00     0.000 O
ATOM     53  HD  BGC B   4      20.010   6.002   7.5740  0.00  0.00     0.000 HD
ATOM     53   O  BGC B   4      19.647   7.208   9.6100  0.00  0.00     0.000 O
ATOM     55  HD  BGC B   4      20.380   7.373  10.0400  0.00  0.00     0.000 HD
ATOM     55   C  BGC B   4      19.294   2.797  11.8970  0.00  0.00     0.000 C
ATOM     56   O  BGC B   4      18.013   3.247  12.3400  0.00  0.00     0.000 O
ATOM     58  HD  BGC B   4      18.746   3.413  12.7700  0.00  0.00     0.000 HD
BRANCH 45 58
ATOM     58  O4  BGC B   5      17.969   3.299   7.5360  0.00  0.00     0.000 O
BRANCH 58 62
ATOM     59  C1  BGC B   5      16.961   0.397   4.7600  0.00  0.00     0.000 C
ATOM     60  C2  BGC B   5      17.582  -0.118   6.0420  0.00  0.00     0.000 C
ATOM     61  C3  BGC B   5      17.525   0.942   7.1250  0.00  0.00     0.000 C
ATOM     62  C4  BGC B   5      18.170   2.222   6.6180  0.00  0.00     0.000 C
ATOM     63  C5  BGC B   5      17.552   2.646   5.2790  0.00  0.00     0.000 C
ATOM     64  O5  BGC B   5      17.674   1.570   4.3540  0.00  0.00     0.000 O
ATOM     65   O  BGC B   5      19.598   3.509   4.5290  0.00  0.00     0.000 O
ATOM     67  HD  BGC B   5      20.359   3.800   4.8240  0.00  0.00     0.000 HD
ATOM     67   O  BGC B   5      19.598   3.509   4.5290  0.00  0.00     0.000 O
ATOM     69  HD  BGC B   5      20.359   3.800   4.8240  0.00  0.00     0.000 HD
ENDBRANCH 58 62
ENDBRANCH 45 58
ENDBRANCH 44 48
ENDBRANCH 31 44
ENDBRANCH 30 34
ENDBRANCH 17 30
ENDBRANCH 16 20
ENDBRANCH 1 16
TORSDOF 8
ENDMDL
MODEL 67
REMARK VINA RESULT:      -1.0     13.749     23.552
ROOT
ATOM      1  C1  BGC B   1      27.702  26.810   6.7710  0.00  0.00     0.000 C
ATOM      2  C2  BGC B   1      27.273  28.099   6.0710  0.00  0.00     0.000 C
ATOM      3  C3  BGC B   1      28.117  29.261   6.5580  0.00  0.00     0.000 C
ATOM      4  C4  BGC B   1      28.111  29.332   8.0790  0.00  0.00     0.000 C
ATOM      5  C5  BGC B   1      28.573  27.989   8.6260  0.00  0.00     0.000 C
ATOM      6  O5  BGC B   1      27.633  26.996   8.1780  0.00  0.00     0.000 O
ATOM      7   O  BGC B   1      27.448  27.947   4.6530  0.00  0.00     0.000 O
ATOM      9  HD  BGC B   1      27.598  28.662   4.1870  0.00  0.00     0.000 HD
ATOM      9   O  BGC B   1      27.608  30.471   5.9890  0.00  0.00     0.000 O
ATOM     11  HD  BGC B   1      27.758  31.186   5.5230  0.00  0.00     0.000 HD
ATOM     11   O  BGC B   1      28.984  30.353   8.5100  0.00  0.00     0.000 O
ATOM     13  HD  BGC B   1      29.134  31.068   8.0440  0.00  0.00     0.000 HD
ATOM     13   C  BGC B   1      28.667  27.916  10.1440  0.00  0.00     0.000 C
ATOM     14   O  BGC B   1      27.443  28.267  10.7810  0.00  0.00     0.000 O
ATOM     16  HD  BGC B   1      27.593  28.982  10.3150  0.00  0.00     0.000 HD
ENDROOT
BRANCH 1 16
ATOM     16  O4  BGC B   2      26.697  25.842   6.4740  0.00  0.00     0.000 O
BRANCH 16 20
ATOM     17  C1  BGC B   2      26.187  21.862   5.8170  0.00  0.00     0.000 C
ATOM     18  C2  BGC B   2      26.528  22.204   7.2590  0.00  0.00     0.000 C
ATOM     19  C3  BGC B   2      26.334  23.706   7.4600  0.00  0.00     0.000 C
ATOM     20  C4  BGC B   2      27.127  24.484   6.4300  0.00  0.00     0.000 C
ATOM     21  C5  BGC B   2      26.893  23.975   5.0070  0.00  0.00     0.000 C
ATOM     22  O5  BGC B   2      27.130  22.562   4.9840  0.00  0.00     0.000 O
ATOM     23   O  BGC B   2      25.656  21.494   8.1550  0.00  0.00     0.000 O
ATOM     25  HD  BGC B   2      25.684  22.312   7.8730  0.00  0.00     0.000 HD
ATOM     25   O  BGC B   2      26.737  24.074   8.7740  0.00  0.00     0.000 O
ATOM     27  HD  BGC B   2      26.764  24.893   8.4920  0.00  0.00     0.000 HD
ATOM     27   C  BGC B   2      27.822  24.618   3.9860  0.00  0.00     0.000 C
ATOM     28   O  BGC B   2      29.196  24.460   4.2970  0.00  0.00     0.000 O
ATOM     30  HD  BGC B   2      29.224  25.279   4.0160  0.00  0.00     0.000 HD
BRANCH 17 30
ATOM     30  O4  BGC B   3      26.486  20.490   5.6400  0.00  0.00     0.000 O
BRANCH 30 34
ATOM     31  C1  BGC B   3      25.206  17.234   3.4750  0.00  0.00     0.000 C
ATOM     32  C2  BGC B   3      25.629  18.433   2.6280  0.00  0.00     0.000 C
ATOM     33  C3  BGC B   3      26.436  19.385   3.4920  0.00  0.00     0.000 C
ATOM     34  C4  BGC B   3      25.636  19.780   4.7330  0.00  0.00     0.000 C
ATOM     35  C5  BGC B   3      25.126  18.541   5.4480  0.00  0.00     0.000 C
ATOM     36  O5  BGC B   3      24.392  17.728   4.5270  0.00  0.00     0.000 O
ATOM     37   O  BGC B   3      26.454  17.989   1.5530  0.00  0.00     0.000 O
ATOM     39  HD  BGC B   3      26.408  18.783   1.2110  0.00  0.00     0.000 HD
ATOM     39   O  BGC B   3      26.758  20.531   2.7180  0.00  0.00     0.000 O
ATOM     41  HD  BGC B   3      26.712  21.326   2.3760  0.00  0.00     0.000 HD
ATOM     41   C  BGC B   3      24.238  18.842   6.6510  0.00  0.00     0.000 C
ATOM     42   O  BGC B   3      23.132  19.618   6.2550  0.00  0.00     0.000 O
ATOM     44  HD  BGC B   3      23.086  20.413   5.9130  0.00  0.00     0.000 HD
BRANCH 31 44
ATOM     44  O4  BGC B   4      24.379  16.430   2.6740  0.00  0.00     0.000 O
BRANCH 44 48
ATOM     45  C1  BGC B   4      23.207  12.529   2.2070  0.00  0.00     0.000 C
ATOM     46  C2  BGC B   4      22.796  13.165   3.5280  0.00  0.00     0.000 C
ATOM     47  C3  BGC B   4      22.924  14.665   3.4250  0.00  0.00     0.000 C
ATOM     48  C4  BGC B   4      24.335  15.048   2.9670  0.00  0.00     0.000 C
ATOM     49  C5  BGC B   4      24.711  14.289   1.6890  0.00  0.00     0.000 C
ATOM     50  O5  BGC B   4      24.558  12.878   1.9000  0.00  0.00     0.000 O
ATOM     51   O  BGC B   4      21.428  12.830   3.8320  0.00  0.00     0.000 O
ATOM     53  HD  BGC B   4      21.311  13.640   3.5480  0.00  0.00     0.000 HD
ATOM     53   O  BGC B   4      22.660  15.240   4.7130  0.00  0.00     0.000 O
ATOM     55  HD  BGC B   4      22.542  16.050   4.4290  0.00  0.00     0.000 HD
ATOM     55   C  BGC B   4      26.138  14.515   1.2220  0.00  0.00     0.000 C
ATOM     56   O  BGC B   4      27.008  14.188   2.3060  0.00  0.00     0.000 O
ATOM     58  HD  BGC B   4      26.891  14.998   2.0230  0.00  0.00     0.000 HD
BRANCH 45 58
ATOM     58  O4  BGC B   5      23.308  11.128   2.4620  0.00  0.00     0.000 O
BRANCH 58 62
ATOM     59  C1  BGC B   5      23.727   7.481   0.5460  0.00  0.00     0.000 C
ATOM     60  C2  BGC B   5      24.934   8.395   0.4760  0.00  0.00     0.000 C
ATOM     61  C3  BGC B   5      24.839   9.485   1.5270  0.00  0.00     0.000 C
ATOM     62  C4  BGC B   5      23.519  10.222   1.3770  0.00  0.00     0.000 C
ATOM     63  C5  BGC B   5      22.343   9.234   1.3760  0.00  0.00     0.000 C
ATOM     64  O5  BGC B   5      22.552   8.272   0.3470  0.00  0.00     0.000 O
ATOM     65   O  BGC B   5      21.135  10.566  -0.1270  0.00  0.00     0.000 O
ATOM     67  HD  BGC B   5      21.082  11.380  -0.4200  0.00  0.00     0.000 HD
ATOM     67   O  BGC B   5      21.135  10.566  -0.1270  0.00  0.00     0.000 O
ATOM     69  HD  BGC B   5      21.082  11.380  -0.4200  0.00  0.00     0.000 HD
ENDBRANCH 58 62
ENDBRANCH 45 58
ENDBRANCH 44 48
ENDBRANCH 31 44
ENDBRANCH 30 34
ENDBRANCH 17 30
ENDBRANCH 16 20
ENDBRANCH 1 16
TORSDOF 8
ENDMDL
MODEL 68
REMARK VINA RESULT:      -1.0     11.608     19.883
ROOT
ATOM      1  C1  BGC B   1      25.783  11.720  20.3560  0.00  0.00     0.000 C
ATOM      2  C2  BGC B   1      26.837  10.940  21.1410  0.00  0.00     0.000 C
ATOM      3  C3  BGC B   1      27.020  11.552  22.5160  0.00  0.00     0.000 C
ATOM      4  C4  BGC B   1      27.285  13.049  22.4100  0.00  0.00     0.000 C
ATOM      5  C5  BGC B   1      26.150  13.684  21.6200  0.00  0.00     0.000 C
ATOM      6  O5  BGC B   1      26.154  13.091  20.3080  0.00  0.00     0.000 O
ATOM      7   O  BGC B   1      26.407   9.576  21.2840  0.00  0.00     0.000 O
ATOM      9  HD  BGC B   1      26.689   9.136  21.9740  0.00  0.00     0.000 HD
ATOM      9   O  BGC B   1      28.101  10.889  23.1780  0.00  0.00     0.000 O
ATOM     11  HD  BGC B   1      28.383  10.448  23.8680  0.00  0.00     0.000 HD
ATOM     11   O  BGC B   1      27.346  13.613  23.7020  0.00  0.00     0.000 O
ATOM     13  HD  BGC B   1      27.628  13.172  24.3920  0.00  0.00     0.000 HD
ATOM     13   C  BGC B   1      26.246  15.196  21.4670  0.00  0.00     0.000 C
ATOM     14   O  BGC B   1      27.483  15.605  20.8910  0.00  0.00     0.000 O
ATOM     16  HD  BGC B   1      27.765  15.164  21.5820  0.00  0.00     0.000 HD
ENDROOT
BRANCH 1 16
ATOM     16  O4  BGC B   2      25.874  11.264  19.0070  0.00  0.00     0.000 O
BRANCH 16 20
ATOM     17  C1  BGC B   2      23.589  10.584  15.7130  0.00  0.00     0.000 C
ATOM     18  C2  BGC B   2      23.848  12.059  15.9840  0.00  0.00     0.000 C
ATOM     19  C3  BGC B   2      24.987  12.174  16.9940  0.00  0.00     0.000 C
ATOM     20  C4  BGC B   2      24.681  11.356  18.2320  0.00  0.00     0.000 C
ATOM     21  C5  BGC B   2      24.241   9.931  17.8960  0.00  0.00     0.000 C
ATOM     22  O5  BGC B   2      23.161   9.997  16.9560  0.00  0.00     0.000 O
ATOM     23   O  BGC B   2      24.228  12.725  14.7680  0.00  0.00     0.000 O
ATOM     25  HD  BGC B   2      24.670  12.442  15.4570  0.00  0.00     0.000 HD
ATOM     25   O  BGC B   2      25.191  13.538  17.3410  0.00  0.00     0.000 O
ATOM     27  HD  BGC B   2      25.633  13.255  18.0300  0.00  0.00     0.000 HD
ATOM     27   C  BGC B   2      23.750   9.158  19.1130  0.00  0.00     0.000 C
ATOM     28   O  BGC B   2      22.689   9.805  19.7990  0.00  0.00     0.000 O
ATOM     30  HD  BGC B   2      23.132   9.521  20.4880  0.00  0.00     0.000 HD
BRANCH 17 30
ATOM     30  O4  BGC B   3      22.458  10.517  14.8640  0.00  0.00     0.000 O
BRANCH 30 34
ATOM     31  C1  BGC B   3      20.919   8.196  11.8360  0.00  0.00     0.000 C
ATOM     32  C2  BGC B   3      21.002   7.496  13.1920  0.00  0.00     0.000 C
ATOM     33  C3  BGC B   3      21.195   8.544  14.2740  0.00  0.00     0.000 C
ATOM     34  C4  BGC B   3      22.420   9.403  13.9660  0.00  0.00     0.000 C
ATOM     35  C5  BGC B   3      22.340   9.950  12.5520  0.00  0.00     0.000 C
ATOM     36  O5  BGC B   3      22.151   8.869  11.6330  0.00  0.00     0.000 O
ATOM     37   O  BGC B   3      19.781   6.804  13.4460  0.00  0.00     0.000 O
ATOM     39  HD  BGC B   3      20.155   6.431  14.1320  0.00  0.00     0.000 HD
ATOM     39   O  BGC B   3      21.348   7.880  15.5200  0.00  0.00     0.000 O
ATOM     41  HD  BGC B   3      21.722   7.507  16.2060  0.00  0.00     0.000 HD
ATOM     41   C  BGC B   3      23.568  10.746  12.1250  0.00  0.00     0.000 C
ATOM     42   O  BGC B   3      24.724   9.950  12.2320  0.00  0.00     0.000 O
ATOM     44  HD  BGC B   3      25.098   9.577  12.9180  0.00  0.00     0.000 HD
BRANCH 31 44
ATOM     44  O4  BGC B   4      20.844   7.193  10.8550  0.00  0.00     0.000 O
BRANCH 44 48
ATOM     45  C1  BGC B   4      19.111   6.463   7.2120  0.00  0.00     0.000 C
ATOM     46  C2  BGC B   4      20.371   7.316   7.1600  0.00  0.00     0.000 C
ATOM     47  C3  BGC B   4      21.120   7.188   8.4640  0.00  0.00     0.000 C
ATOM     48  C4  BGC B   4      20.198   7.519   9.6410  0.00  0.00     0.000 C
ATOM     49  C5  BGC B   4      18.908   6.692   9.5650  0.00  0.00     0.000 C
ATOM     50  O5  BGC B   4      18.279   6.892   8.2910  0.00  0.00     0.000 O
ATOM     51   O  BGC B   4      21.221   6.876   6.0840  0.00  0.00     0.000 O
ATOM     53  HD  BGC B   4      21.643   6.515   6.7490  0.00  0.00     0.000 HD
ATOM     53   O  BGC B   4      22.231   8.096   8.4490  0.00  0.00     0.000 O
ATOM     55  HD  BGC B   4      22.653   7.736   9.1140  0.00  0.00     0.000 HD
ATOM     55   C  BGC B   4      17.879   7.034  10.6280  0.00  0.00     0.000 C
ATOM     56   O  BGC B   4      17.614   8.435  10.5410  0.00  0.00     0.000 O
ATOM     58  HD  BGC B   4      18.036   8.075  11.2060  0.00  0.00     0.000 HD
BRANCH 45 58
ATOM     58  O4  BGC B   5      18.340   6.834   6.0700  0.00  0.00     0.000 O
BRANCH 58 62
ATOM     59  C1  BGC B   5      15.691   5.295   3.2840  0.00  0.00     0.000 C
ATOM     60  C2  BGC B   5      15.340   5.025   4.7330  0.00  0.00     0.000 C
ATOM     61  C3  BGC B   5      16.109   5.957   5.6500  0.00  0.00     0.000 C
ATOM     62  C4  BGC B   5      17.597   5.839   5.3620  0.00  0.00     0.000 C
ATOM     63  C5  BGC B   5      17.877   6.043   3.8660  0.00  0.00     0.000 C
ATOM     64  O5  BGC B   5      17.101   5.110   3.1210  0.00  0.00     0.000 O
ATOM     65   O  BGC B   5      19.651   4.511   3.9180  0.00  0.00     0.000 O
ATOM     67  HD  BGC B   5      20.207   4.138   4.4670  0.00  0.00     0.000 HD
ATOM     67   O  BGC B   5      19.651   4.511   3.9180  0.00  0.00     0.000 O
ATOM     69  HD  BGC B   5      20.207   4.138   4.4670  0.00  0.00     0.000 HD
ENDBRANCH 58 62
ENDBRANCH 45 58
ENDBRANCH 44 48
ENDBRANCH 31 44
ENDBRANCH 30 34
ENDBRANCH 17 30
ENDBRANCH 16 20
ENDBRANCH 1 16
TORSDOF 8
ENDMDL
MODEL 69
REMARK VINA RESULT:      -1.0      9.803     17.629
ROOT
ATOM      1  C1  BGC B   1      20.793  13.091   1.9560  0.00  0.00     0.000 C
ATOM      2  C2  BGC B   1      21.836  13.224   3.0650  0.00  0.00     0.000 C
ATOM      3  C3  BGC B   1      23.217  12.915   2.5210  0.00  0.00     0.000 C
ATOM      4  C4  BGC B   1      23.225  11.573   1.7990  0.00  0.00     0.000 C
ATOM      5  C5  BGC B   1      22.151  11.600   0.7210  0.00  0.00     0.000 C
ATOM      6  O5  BGC B   1      20.886  11.796   1.3790  0.00  0.00     0.000 O
ATOM      7   O  BGC B   1      21.817  14.568   3.5740  0.00  0.00     0.000 O
ATOM      9  HD  BGC B   1      22.550  14.880   3.9140  0.00  0.00     0.000 HD
ATOM      9   O  BGC B   1      24.152  12.916   3.6050  0.00  0.00     0.000 O
ATOM     11  HD  BGC B   1      24.885  13.228   3.9450  0.00  0.00     0.000 HD
ATOM     11   O  BGC B   1      24.490  11.358   1.2130  0.00  0.00     0.000 O
ATOM     13  HD  BGC B   1      25.223  11.670   1.5530  0.00  0.00     0.000 HD
ATOM     13   C  BGC B   1      22.065  10.339  -0.1270  0.00  0.00     0.000 C
ATOM     14   O  BGC B   1      21.886   9.167   0.6620  0.00  0.00     0.000 O
ATOM     16  HD  BGC B   1      22.619   9.479   1.0020  0.00  0.00     0.000 HD
ENDROOT
BRANCH 1 16
ATOM     16  O4  BGC B   2      19.521  13.121   2.6000  0.00  0.00     0.000 O
BRANCH 16 20
ATOM     17  C1  BGC B   2      15.692  14.365   2.0260  0.00  0.00     0.000 C
ATOM     18  C2  BGC B   2      16.044  13.097   1.2630  0.00  0.00     0.000 C
ATOM     19  C3  BGC B   2      17.346  12.535   1.8290  0.00  0.00     0.000 C
ATOM     20  C4  BGC B   2      18.430  13.593   1.8140  0.00  0.00     0.000 C
ATOM     21  C5  BGC B   2      17.964  14.915   2.4240  0.00  0.00     0.000 C
ATOM     22  O5  BGC B   2      16.748  15.312   1.7770  0.00  0.00     0.000 O
ATOM     23   O  BGC B   2      15.002  12.120   1.4210  0.00  0.00     0.000 O
ATOM     25  HD  BGC B   2      15.787  12.217   1.7740  0.00  0.00     0.000 HD
ATOM     25   O  BGC B   2      17.753  11.400   1.0740  0.00  0.00     0.000 O
ATOM     27  HD  BGC B   2      18.539  11.498   1.4260  0.00  0.00     0.000 HD
ATOM     27   C  BGC B   2      18.974  16.041   2.2450  0.00  0.00     0.000 C
ATOM     28   O  BGC B   2      19.324  16.272   0.8900  0.00  0.00     0.000 O
ATOM     30  HD  BGC B   2      20.110  16.370   1.2420  0.00  0.00     0.000 HD
BRANCH 17 30
ATOM     30  O4  BGC B   3      14.548  14.915   1.4000  0.00  0.00     0.000 O
BRANCH 30 34
ATOM     31  C1  BGC B   3      11.139  17.015   2.3440  0.00  0.00     0.000 C
ATOM     32  C2  BGC B   3      12.439  17.795   2.5380  0.00  0.00     0.000 C
ATOM     33  C3  BGC B   3      13.555  17.081   1.7960  0.00  0.00     0.000 C
ATOM     34  C4  BGC B   3      13.652  15.628   2.2590  0.00  0.00     0.000 C
ATOM     35  C5  BGC B   3      12.294  14.955   2.1750  0.00  0.00     0.000 C
ATOM     36  O5  BGC B   3      11.334  15.726   2.9040  0.00  0.00     0.000 O
ATOM     37   O  BGC B   3      12.295  19.103   1.9870  0.00  0.00     0.000 O
ATOM     39  HD  BGC B   3      13.052  19.319   2.3470  0.00  0.00     0.000 HD
ATOM     39   O  BGC B   3      14.772  17.769   2.0440  0.00  0.00     0.000 O
ATOM     41  HD  BGC B   3      15.529  17.986   2.4040  0.00  0.00     0.000 HD
ATOM     41   C  BGC B   3      12.277  13.525   2.7050  0.00  0.00     0.000 C
ATOM     42   O  BGC B   3      12.708  13.499   4.0450  0.00  0.00     0.000 O
ATOM     44  HD  BGC B   3      13.465  13.716   4.4050  0.00  0.00     0.000 HD
BRANCH 31 44
ATOM     44  O4  BGC B   4      10.156  17.645   3.1250  0.00  0.00     0.000 O
BRANCH 44 48
ATOM     45  C1  BGC B   4       6.124  18.386   3.1490  0.00  0.00     0.000 C
ATOM     46  C2  BGC B   4       6.515  16.971   3.5540  0.00  0.00     0.000 C
ATOM     47  C3  BGC B   4       7.986  16.932   3.8860  0.00  0.00     0.000 C
ATOM     48  C4  BGC B   4       8.810  17.493   2.7220  0.00  0.00     0.000 C
ATOM     49  C5  BGC B   4       8.288  18.874   2.3100  0.00  0.00     0.000 C
ATOM     50  O5  BGC B   4       6.886  18.794   2.0130  0.00  0.00     0.000 O
ATOM     51   O  BGC B   4       5.761  16.562   4.7100  0.00  0.00     0.000 O
ATOM     53  HD  BGC B   4       6.514  16.747   5.0960  0.00  0.00     0.000 HD
ATOM     53   O  BGC B   4       8.367  15.571   4.1370  0.00  0.00     0.000 O
ATOM     55  HD  BGC B   4       9.120  15.756   4.5230  0.00  0.00     0.000 HD
ATOM     55   C  BGC B   4       8.968  19.462   1.0860  0.00  0.00     0.000 C
ATOM     56   O  BGC B   4       8.849  18.514   0.0240  0.00  0.00     0.000 O
ATOM     58  HD  BGC B   4       9.602  18.699   0.4100  0.00  0.00     0.000 HD
BRANCH 45 58
ATOM     58  O4  BGC B   5       4.806  18.288   2.6100  0.00  0.00     0.000 O
BRANCH 58 62
ATOM     59  C1  BGC B   5       1.709  20.798   1.4900  0.00  0.00     0.000 C
ATOM     60  C2  BGC B   5       2.583  20.299   0.3570  0.00  0.00     0.000 C
ATOM     61  C3  BGC B   5       3.394  19.096   0.8000  0.00  0.00     0.000 C
ATOM     62  C4  BGC B   5       4.179  19.446   2.0540  0.00  0.00     0.000 C
ATOM     63  C5  BGC B   5       3.249  20.020   3.1330  0.00  0.00     0.000 C
ATOM     64  O5  BGC B   5       2.554  21.140   2.5930  0.00  0.00     0.000 O
ATOM     65   O  BGC B   5       4.930  21.453   3.9170  0.00  0.00     0.000 O
ATOM     67  HD  BGC B   5       5.791  21.549   3.9200  0.00  0.00     0.000 HD
ATOM     67   O  BGC B   5       4.930  21.453   3.9170  0.00  0.00     0.000 O
ATOM     69  HD  BGC B   5       5.791  21.549   3.9200  0.00  0.00     0.000 HD
ENDBRANCH 58 62
ENDBRANCH 45 58
ENDBRANCH 44 48
ENDBRANCH 31 44
ENDBRANCH 30 34
ENDBRANCH 17 30
ENDBRANCH 16 20
ENDBRANCH 1 16
TORSDOF 8
ENDMDL
MODEL 70
REMARK VINA RESULT:      -1.0     11.742     15.762
ROOT
ATOM      1  C1  BGC B   1      10.084  21.352  14.5750  0.00  0.00     0.000 C
ATOM      2  C2  BGC B   1       8.910  22.244  14.1750  0.00  0.00     0.000 C
ATOM      3  C3  BGC B   1       8.503  23.124  15.3410  0.00  0.00     0.000 C
ATOM      4  C4  BGC B   1       8.267  22.286  16.5920  0.00  0.00     0.000 C
ATOM      5  C5  BGC B   1       9.521  21.470  16.8680  0.00  0.00     0.000 C
ATOM      6  O5  BGC B   1       9.734  20.609  15.7340  0.00  0.00     0.000 O
ATOM      7   O  BGC B   1       9.303  23.076  13.0700  0.00  0.00     0.000 O
ATOM      9  HD  BGC B   1       8.907  23.841  12.9820  0.00  0.00     0.000 HD
ATOM      9   O  BGC B   1       7.323  23.850  14.9840  0.00  0.00     0.000 O
ATOM     11  HD  BGC B   1       6.928  24.615  14.8960  0.00  0.00     0.000 HD
ATOM     11   O  BGC B   1       7.994  23.134  17.6860  0.00  0.00     0.000 O
ATOM     13  HD  BGC B   1       7.599  23.899  17.5980  0.00  0.00     0.000 HD
ATOM     13   C  BGC B   1       9.460  20.610  18.1230  0.00  0.00     0.000 C
ATOM     14   O  BGC B   1       8.339  19.732  18.1240  0.00  0.00     0.000 O
ATOM     16  HD  BGC B   1       7.943  20.497  18.0360  0.00  0.00     0.000 HD
ENDROOT
BRANCH 1 16
ATOM     16  O4  BGC B   2      10.217  20.382  13.5380  0.00  0.00     0.000 O
BRANCH 16 20
ATOM     17  C1  BGC B   2      13.027  18.214  11.5510  0.00  0.00     0.000 C
ATOM     18  C2  BGC B   2      12.723  17.689  12.9460  0.00  0.00     0.000 C
ATOM     19  C3  BGC B   2      11.429  18.335  13.4360  0.00  0.00     0.000 C
ATOM     20  C4  BGC B   2      11.523  19.844  13.3460  0.00  0.00     0.000 C
ATOM     21  C5  BGC B   2      12.017  20.316  11.9780  0.00  0.00     0.000 C
ATOM     22  O5  BGC B   2      13.239  19.633  11.6730  0.00  0.00     0.000 O
ATOM     23   O  BGC B   2      12.552  16.262  12.9100  0.00  0.00     0.000 O
ATOM     25  HD  BGC B   2      12.000  16.928  12.9570  0.00  0.00     0.000 HD
ATOM     25   O  BGC B   2      11.167  17.937  14.7770  0.00  0.00     0.000 O
ATOM     27  HD  BGC B   2      10.616  18.603  14.8250  0.00  0.00     0.000 HD
ATOM     27   C  BGC B   2      12.297  21.813  11.9310  0.00  0.00     0.000 C
ATOM     28   O  BGC B   2      13.225  22.242  12.9140  0.00  0.00     0.000 O
ATOM     30  HD  BGC B   2      12.673  22.908  12.9620  0.00  0.00     0.000 HD
BRANCH 17 30
ATOM     30  O4  BGC B   3      14.284  17.683  11.1780  0.00  0.00     0.000 O
BRANCH 30 34
ATOM     31  C1  BGC B   3      16.337  16.488   7.8190  0.00  0.00     0.000 C
ATOM     32  C2  BGC B   3      16.023  17.983   7.8730  0.00  0.00     0.000 C
ATOM     33  C3  BGC B   3      15.640  18.354   9.2940  0.00  0.00     0.000 C
ATOM     34  C4  BGC B   3      14.483  17.480   9.7760  0.00  0.00     0.000 C
ATOM     35  C5  BGC B   3      14.805  16.011   9.5610  0.00  0.00     0.000 C
ATOM     36  O5  BGC B   3      15.155  15.796   8.1900  0.00  0.00     0.000 O
ATOM     37   O  BGC B   3      17.184  18.726   7.5090  0.00  0.00     0.000 O
ATOM     39  HD  BGC B   3      16.699  19.443   7.4890  0.00  0.00     0.000 HD
ATOM     39   O  BGC B   3      15.276  19.726   9.3190  0.00  0.00     0.000 O
ATOM     41  HD  BGC B   3      14.791  20.443   9.2990  0.00  0.00     0.000 HD
ATOM     41   C  BGC B   3      13.666  15.067   9.9290  0.00  0.00     0.000 C
ATOM     42   O  BGC B   3      12.512  15.385   9.1870  0.00  0.00     0.000 O
ATOM     44  HD  BGC B   3      12.027  16.102   9.1680  0.00  0.00     0.000 HD
BRANCH 31 44
ATOM     44  O4  BGC B   4      16.585  16.163   6.4750  0.00  0.00     0.000 O
BRANCH 44 48
ATOM     45  C1  BGC B   4      18.800  13.553   4.2200  0.00  0.00     0.000 C
ATOM     46  C2  BGC B   4      17.500  12.980   4.7670  0.00  0.00     0.000 C
ATOM     47  C3  BGC B   4      16.607  14.106   5.2260  0.00  0.00     0.000 C
ATOM     48  C4  BGC B   4      17.352  15.005   6.2180  0.00  0.00     0.000 C
ATOM     49  C5  BGC B   4      18.695  15.457   5.6320  0.00  0.00     0.000 C
ATOM     50  O5  BGC B   4      19.462  14.310   5.2350  0.00  0.00     0.000 O
ATOM     51   O  BGC B   4      16.822  12.230   3.7410  0.00  0.00     0.000 O
ATOM     53  HD  BGC B   4      16.347  12.954   3.7180  0.00  0.00     0.000 HD
ATOM     53   O  BGC B   4      15.446  13.547   5.8560  0.00  0.00     0.000 O
ATOM     55  HD  BGC B   4      14.971  14.271   5.8330  0.00  0.00     0.000 HD
ATOM     55   C  BGC B   4      19.559  16.259   6.5890  0.00  0.00     0.000 C
ATOM     56   O  BGC B   4      19.735  15.480   7.7740  0.00  0.00     0.000 O
ATOM     58  HD  BGC B   4      19.260  16.204   7.7510  0.00  0.00     0.000 HD
BRANCH 45 58
ATOM     58  O4  BGC B   5      19.679  12.441   4.0530  0.00  0.00     0.000 O
BRANCH 58 62
ATOM     59  C1  BGC B   5      22.137  10.686   1.2200  0.00  0.00     0.000 C
ATOM     60  C2  BGC B   5      22.763  11.814   2.0150  0.00  0.00     0.000 C
ATOM     61  C3  BGC B   5      21.956  12.095   3.2680  0.00  0.00     0.000 C
ATOM     62  C4  BGC B   5      20.507  12.359   2.8910  0.00  0.00     0.000 C
ATOM     63  C5  BGC B   5      19.958  11.219   2.0210  0.00  0.00     0.000 C
ATOM     64  O5  BGC B   5      20.798  11.063   0.8830  0.00  0.00     0.000 O
ATOM     65   O  BGC B   5      18.608  12.703   0.8080  0.00  0.00     0.000 O
ATOM     67  HD  BGC B   5      18.244  13.487   0.8640  0.00  0.00     0.000 HD
ATOM     67   O  BGC B   5      18.608  12.703   0.8080  0.00  0.00     0.000 O
ATOM     69  HD  BGC B   5      18.244  13.487   0.8640  0.00  0.00     0.000 HD
ENDBRANCH 58 62
ENDBRANCH 45 58
ENDBRANCH 44 48
ENDBRANCH 31 44
ENDBRANCH 30 34
ENDBRANCH 17 30
ENDBRANCH 16 20
ENDBRANCH 1 16
TORSDOF 8
ENDMDL
MODEL 71
REMARK VINA RESULT:      -0.9     13.918     16.030
ROOT
ATOM      1  C1  BGC B   1      11.393   3.791  23.9620  0.00  0.00     0.000 C
ATOM      2  C2  BGC B   1      10.346   4.833  24.3530  0.00  0.00     0.000 C
ATOM      3  C3  BGC B   1      10.383   5.071  25.8510  0.00  0.00     0.000 C
ATOM      4  C4  BGC B   1      10.283   3.753  26.6090  0.00  0.00     0.000 C
ATOM      5  C5  BGC B   1      11.393   2.833  26.1230  0.00  0.00     0.000 C
ATOM      6  O5  BGC B   1      11.181   2.607  24.7170  0.00  0.00     0.000 O
ATOM      7   O  BGC B   1      10.628   6.066  23.6710  0.00  0.00     0.000 O
ATOM      9  HD  BGC B   1      10.373   6.803  24.0490  0.00  0.00     0.000 HD
ATOM      9   O  BGC B   1       9.309   5.947  26.2060  0.00  0.00     0.000 O
ATOM     11  HD  BGC B   1       9.054   6.683  26.5840  0.00  0.00     0.000 HD
ATOM     11   O  BGC B   1      10.425   3.991  27.9920  0.00  0.00     0.000 O
ATOM     13  HD  BGC B   1      10.170   4.727  28.3700  0.00  0.00     0.000 HD
ATOM     13   C  BGC B   1      11.456   1.484  26.8250  0.00  0.00     0.000 C
ATOM     14   O  BGC B   1      10.221   0.778  26.7580  0.00  0.00     0.000 O
ATOM     16  HD  BGC B   1       9.965   1.515  27.1350  0.00  0.00     0.000 HD
ENDROOT
BRANCH 1 16
ATOM     16  O4  BGC B   2      11.107   3.428  22.6130  0.00  0.00     0.000 O
BRANCH 16 20
ATOM     17  C1  BGC B   2      12.931   2.338  19.1450  0.00  0.00     0.000 C
ATOM     18  C2  BGC B   2      12.960   1.258  20.2160  0.00  0.00     0.000 C
ATOM     19  C3  BGC B   2      11.954   1.628  21.3040  0.00  0.00     0.000 C
ATOM     20  C4  BGC B   2      12.223   3.026  21.8210  0.00  0.00     0.000 C
ATOM     21  C5  BGC B   2      12.374   4.046  20.6920  0.00  0.00     0.000 C
ATOM     22  O5  BGC B   2      13.359   3.563  19.7700  0.00  0.00     0.000 O
ATOM     23   O  BGC B   2      12.594  -0.010  19.6480  0.00  0.00     0.000 O
ATOM     25  HD  BGC B   2      12.173   0.569  20.1350  0.00  0.00     0.000 HD
ATOM     25   O  BGC B   2      12.025   0.686  22.3690  0.00  0.00     0.000 O
ATOM     27  HD  BGC B   2      11.604   1.266  22.8550  0.00  0.00     0.000 HD
ATOM     27   C  BGC B   2      12.831   5.414  21.1840  0.00  0.00     0.000 C
ATOM     28   O  BGC B   2      14.045   5.372  21.9160  0.00  0.00     0.000 O
ATOM     30  HD  BGC B   2      13.624   5.951  22.4020  0.00  0.00     0.000 HD
BRANCH 17 30
ATOM     30  O4  BGC B   3      13.951   2.021  18.2160  0.00  0.00     0.000 O
BRANCH 30 34
ATOM     31  C1  BGC B   3      14.747   2.288  14.1890  0.00  0.00     0.000 C
ATOM     32  C2  BGC B   3      14.645   3.633  14.9060  0.00  0.00     0.000 C
ATOM     33  C3  BGC B   3      14.752   3.402  16.4030  0.00  0.00     0.000 C
ATOM     34  C4  BGC B   3      13.695   2.397  16.8590  0.00  0.00     0.000 C
ATOM     35  C5  BGC B   3      13.760   1.140  16.0100  0.00  0.00     0.000 C
ATOM     36  O5  BGC B   3      13.656   1.493  14.6270  0.00  0.00     0.000 O
ATOM     37   O  BGC B   3      15.725   4.472  14.5000  0.00  0.00     0.000 O
ATOM     39  HD  BGC B   3      15.346   5.132  14.9130  0.00  0.00     0.000 HD
ATOM     39   O  BGC B   3      14.579   4.646  17.0640  0.00  0.00     0.000 O
ATOM     41  HD  BGC B   3      14.200   5.306  17.4770  0.00  0.00     0.000 HD
ATOM     41   C  BGC B   3      12.679   0.116  16.3350  0.00  0.00     0.000 C
ATOM     42   O  BGC B   3      11.403   0.692  16.1850  0.00  0.00     0.000 O
ATOM     44  HD  BGC B   3      11.024   1.352  16.5970  0.00  0.00     0.000 HD
BRANCH 31 44
ATOM     44  O4  BGC B   4      14.542   2.529  12.8210  0.00  0.00     0.000 O
BRANCH 44 48
ATOM     45  C1  BGC B   4      15.637   1.071   9.1490  0.00  0.00     0.000 C
ATOM     46  C2  BGC B   4      14.563   0.261   9.8630  0.00  0.00     0.000 C
ATOM     47  C3  BGC B   4      13.973   1.084  10.9820  0.00  0.00     0.000 C
ATOM     48  C4  BGC B   4      15.081   1.595  11.9080  0.00  0.00     0.000 C
ATOM     49  C5  BGC B   4      16.172   2.309  11.1010  0.00  0.00     0.000 C
ATOM     50  O5  BGC B   4      16.663   1.437  10.0720  0.00  0.00     0.000 O
ATOM     51   O  BGC B   4      13.518  -0.095   8.9390  0.00  0.00     0.000 O
ATOM     53  HD  BGC B   4      13.122   0.557   9.3490  0.00  0.00     0.000 HD
ATOM     53   O  BGC B   4      13.059   0.265  11.7250  0.00  0.00     0.000 O
ATOM     55  HD  BGC B   4      12.664   0.917  12.1350  0.00  0.00     0.000 HD
ATOM     55   C  BGC B   4      17.372   2.749  11.9200  0.00  0.00     0.000 C
ATOM     56   O  BGC B   4      17.883   1.599  12.5970  0.00  0.00     0.000 O
ATOM     58  HD  BGC B   4      17.488   2.251  13.0070  0.00  0.00     0.000 HD
BRANCH 45 58
ATOM     58  O4  BGC B   5      16.314   0.152   8.2920  0.00  0.00     0.000 O
BRANCH 58 62
ATOM     59  C1  BGC B   5      19.460  -0.109   5.6120  0.00  0.00     0.000 C
ATOM     60  C2  BGC B   5      19.848   0.216   7.0400  0.00  0.00     0.000 C
ATOM     61  C3  BGC B   5      18.714  -0.118   7.9900  0.00  0.00     0.000 C
ATOM     62  C4  BGC B   5      17.447   0.589   7.5370  0.00  0.00     0.000 C
ATOM     63  C5  BGC B   5      17.153   0.282   6.0610  0.00  0.00     0.000 C
ATOM     64  O5  BGC B   5      18.289   0.644   5.2820  0.00  0.00     0.000 O
ATOM     65   O  BGC B   5      16.254   2.421   5.7240  0.00  0.00     0.000 O
ATOM     67  HD  BGC B   5      15.906   3.085   6.1580  0.00  0.00     0.000 HD
ATOM     67   O  BGC B   5      16.254   2.421   5.7240  0.00  0.00     0.000 O
ATOM     69  HD  BGC B   5      15.906   3.085   6.1580  0.00  0.00     0.000 HD
ENDBRANCH 58 62
ENDBRANCH 45 58
ENDBRANCH 44 48
ENDBRANCH 31 44
ENDBRANCH 30 34
ENDBRANCH 17 30
ENDBRANCH 16 20
ENDBRANCH 1 16
TORSDOF 8
ENDMDL
MODEL 72
REMARK VINA RESULT:      -0.9     12.199     20.285
ROOT
ATOM      1  C1  BGC B   1      25.714  11.770  20.3990  0.00  0.00     0.000 C
ATOM      2  C2  BGC B   1      26.726  11.285  21.4360  0.00  0.00     0.000 C
ATOM      3  C3  BGC B   1      26.804  12.269  22.5870  0.00  0.00     0.000 C
ATOM      4  C4  BGC B   1      27.048  13.682  22.0730  0.00  0.00     0.000 C
ATOM      5  C5  BGC B   1      25.958  14.025  21.0680  0.00  0.00     0.000 C
ATOM      6  O5  BGC B   1      26.061  13.084  19.9840  0.00  0.00     0.000 O
ATOM      7   O  BGC B   1      26.313  10.003  21.9360  0.00  0.00     0.000 O
ATOM      9  HD  BGC B   1      26.556   9.787  22.7390  0.00  0.00     0.000 HD
ATOM      9   O  BGC B   1      27.851  11.861  23.4740  0.00  0.00     0.000 O
ATOM     11  HD  BGC B   1      28.093  11.646  24.2760  0.00  0.00     0.000 HD
ATOM     11   O  BGC B   1      27.012  14.592  23.1510  0.00  0.00     0.000 O
ATOM     13  HD  BGC B   1      27.254  14.376  23.9540  0.00  0.00     0.000 HD
ATOM     13   C  BGC B   1      26.036  15.433  20.4960  0.00  0.00     0.000 C
ATOM     14   O  BGC B   1      27.301  15.707  19.9020  0.00  0.00     0.000 O
ATOM     16  HD  BGC B   1      27.544  15.492  20.7050  0.00  0.00     0.000 HD
ENDROOT
BRANCH 1 16
ATOM     16  O4  BGC B   2      25.904  10.953  19.2450  0.00  0.00     0.000 O
BRANCH 16 20
ATOM     17  C1  BGC B   2      23.863   9.300  16.1400  0.00  0.00     0.000 C
ATOM     18  C2  BGC B   2      24.089  10.797  15.9950  0.00  0.00     0.000 C
ATOM     19  C3  BGC B   2      25.154  11.227  17.0020  0.00  0.00     0.000 C
ATOM     20  C4  BGC B   2      24.768  10.788  18.4000  0.00  0.00     0.000 C
ATOM     21  C5  BGC B   2      24.365   9.314  18.4570  0.00  0.00     0.000 C
ATOM     22  O5  BGC B   2      23.354   9.079  17.4690  0.00  0.00     0.000 O
ATOM     23   O  BGC B   2      24.549  11.101  14.6670  0.00  0.00     0.000 O
ATOM     25  HD  BGC B   2      24.944  11.038  15.4350  0.00  0.00     0.000 HD
ATOM     25   O  BGC B   2      25.320  12.639  16.9580  0.00  0.00     0.000 O
ATOM     27  HD  BGC B   2      25.715  12.576  17.7260  0.00  0.00     0.000 HD
ATOM     27   C  BGC B   2      23.796   8.905  19.8100  0.00  0.00     0.000 C
ATOM     28   O  BGC B   2      22.684   9.689  20.2120  0.00  0.00     0.000 O
ATOM     30  HD  BGC B   2      23.079   9.627  20.9800  0.00  0.00     0.000 HD
BRANCH 17 30
ATOM     30  O4  BGC B   3      22.796   8.961  15.2750  0.00  0.00     0.000 O
BRANCH 30 34
ATOM     31  C1  BGC B   3      21.449   5.800  13.0120  0.00  0.00     0.000 C
ATOM     32  C2  BGC B   3      21.406   5.564  14.5220  0.00  0.00     0.000 C
ATOM     33  C3  BGC B   3      21.537   6.900  15.2320  0.00  0.00     0.000 C
ATOM     34  C4  BGC B   3      22.803   7.621  14.7730  0.00  0.00     0.000 C
ATOM     35  C5  BGC B   3      22.850   7.694  13.2570  0.00  0.00     0.000 C
ATOM     36  O5  BGC B   3      22.710   6.378  12.7120  0.00  0.00     0.000 O
ATOM     37   O  BGC B   3      20.153   4.984  14.8770  0.00  0.00     0.000 O
ATOM     39  HD  BGC B   3      20.461   4.847  15.6750  0.00  0.00     0.000 HD
ATOM     39   O  BGC B   3      21.574   6.664  16.6310  0.00  0.00     0.000 O
ATOM     41  HD  BGC B   3      21.882   6.527  17.4290  0.00  0.00     0.000 HD
ATOM     41   C  BGC B   3      24.127   8.318  12.7060  0.00  0.00     0.000 C
ATOM     42   O  BGC B   3      25.252   7.599  13.1540  0.00  0.00     0.000 O
ATOM     44  HD  BGC B   3      25.560   7.462  13.9520  0.00  0.00     0.000 HD
BRANCH 31 44
ATOM     44  O4  BGC B   4      21.430   4.539  12.3940  0.00  0.00     0.000 O
BRANCH 44 48
ATOM     45  C1  BGC B   4      19.959   2.643   9.0710  0.00  0.00     0.000 C
ATOM     46  C2  BGC B   4      21.044   3.672   8.7890  0.00  0.00     0.000 C
ATOM     47  C3  BGC B   4      21.768   4.003  10.0720  0.00  0.00     0.000 C
ATOM     48  C4  BGC B   4      20.769   4.436  11.1490  0.00  0.00     0.000 C
ATOM     49  C5  BGC B   4      19.653   3.395  11.3000  0.00  0.00     0.000 C
ATOM     50  O5  BGC B   4      19.033   3.162  10.0260  0.00  0.00     0.000 O
ATOM     51   O  BGC B   4      21.989   3.145   7.8390  0.00  0.00     0.000 O
ATOM     53  HD  BGC B   4      22.451   3.040   8.5640  0.00  0.00     0.000 HD
ATOM     53   O  BGC B   4      22.697   5.067   9.8170  0.00  0.00     0.000 O
ATOM     55  HD  BGC B   4      23.158   4.962  10.5420  0.00  0.00     0.000 HD
ATOM     55   C  BGC B   4      18.550   3.793  12.2640  0.00  0.00     0.000 C
ATOM     56   O  BGC B   4      18.038   5.058  11.8430  0.00  0.00     0.000 O
ATOM     58  HD  BGC B   4      18.500   4.953  12.5680  0.00  0.00     0.000 HD
BRANCH 45 58
ATOM     58  O4  BGC B   5      19.165   2.578   7.8860  0.00  0.00     0.000 O
BRANCH 58 62
ATOM     59  C1  BGC B   5      17.427  -0.127   5.2770  0.00  0.00     0.000 C
ATOM     60  C2  BGC B   5      16.751  -0.001   6.6270  0.00  0.00     0.000 C
ATOM     61  C3  BGC B   5      17.189   1.273   7.3250  0.00  0.00     0.000 C
ATOM     62  C4  BGC B   5      18.707   1.311   7.4070  0.00  0.00     0.000 C
ATOM     63  C5  BGC B   5      19.330   1.098   6.0200  0.00  0.00     0.000 C
ATOM     64  O5  BGC B   5      18.843  -0.127   5.4800  0.00  0.00     0.000 O
ATOM     65   O  BGC B   5      21.157  -0.046   6.9410  0.00  0.00     0.000 O
ATOM     67  HD  BGC B   5      21.589  -0.144   7.6860  0.00  0.00     0.000 HD
ATOM     67   O  BGC B   5      21.157  -0.046   6.9410  0.00  0.00     0.000 O
ATOM     69  HD  BGC B   5      21.589  -0.144   7.6860  0.00  0.00     0.000 HD
ENDBRANCH 58 62
ENDBRANCH 45 58
ENDBRANCH 44 48
ENDBRANCH 31 44
ENDBRANCH 30 34
ENDBRANCH 17 30
ENDBRANCH 16 20
ENDBRANCH 1 16
TORSDOF 8
ENDMDL
MODEL 73
REMARK VINA RESULT:      -0.8     12.695     26.553
ROOT
ATOM      1  C1  BGC B   1      38.844  18.151   3.6760  0.00  0.00     0.000 C
ATOM      2  C2  BGC B   1      38.988  19.369   4.5870  0.00  0.00     0.000 C
ATOM      3  C3  BGC B   1      40.213  20.172   4.1920  0.00  0.00     0.000 C
ATOM      4  C4  BGC B   1      41.445  19.279   4.1270  0.00  0.00     0.000 C
ATOM      5  C5  BGC B   1      41.155  18.127   3.1760  0.00  0.00     0.000 C
ATOM      6  O5  BGC B   1      40.044  17.390   3.7190  0.00  0.00     0.000 O
ATOM      7   O  BGC B   1      37.819  20.196   4.4590  0.00  0.00     0.000 O
ATOM      9  HD  BGC B   1      37.908  21.044   4.6080  0.00  0.00     0.000 HD
ATOM      9   O  BGC B   1      40.398  21.228   5.1400  0.00  0.00     0.000 O
ATOM     11  HD  BGC B   1      40.487  22.076   5.2890  0.00  0.00     0.000 HD
ATOM     11   O  BGC B   1      42.547  20.025   3.6570  0.00  0.00     0.000 O
ATOM     13  HD  BGC B   1      42.636  20.873   3.8060  0.00  0.00     0.000 HD
ATOM     13   C  BGC B   1      42.316  17.165   2.9650  0.00  0.00     0.000 C
ATOM     14   O  BGC B   1      42.806  16.629   4.1900  0.00  0.00     0.000 O
ATOM     16  HD  BGC B   1      42.894  17.477   4.3390  0.00  0.00     0.000 HD
ENDROOT
BRANCH 1 16
ATOM     16  O4  BGC B   2      37.855  17.318   4.2790  0.00  0.00     0.000 O
BRANCH 16 20
ATOM     17  C1  BGC B   2      34.884  14.710   3.3270  0.00  0.00     0.000 C
ATOM     18  C2  BGC B   2      36.281  14.120   3.1960  0.00  0.00     0.000 C
ATOM     19  C3  BGC B   2      37.265  15.041   3.9140  0.00  0.00     0.000 C
ATOM     20  C4  BGC B   2      37.137  16.459   3.3980  0.00  0.00     0.000 C
ATOM     21  C5  BGC B   2      35.685  16.940   3.3710  0.00  0.00     0.000 C
ATOM     22  O5  BGC B   2      34.900  15.981   2.6510  0.00  0.00     0.000 O
ATOM     23   O  BGC B   2      36.326  12.818   3.8040  0.00  0.00     0.000 O
ATOM     25  HD  BGC B   2      36.597  13.602   4.0520  0.00  0.00     0.000 HD
ATOM     25   O  BGC B   2      38.594  14.567   3.7290  0.00  0.00     0.000 O
ATOM     27  HD  BGC B   2      38.865  15.352   3.9780  0.00  0.00     0.000 HD
ATOM     27   C  BGC B   2      35.519  18.288   2.6800  0.00  0.00     0.000 C
ATOM     28   O  BGC B   2      36.021  18.306   1.3540  0.00  0.00     0.000 O
ATOM     30  HD  BGC B   2      36.292  19.090   1.6020  0.00  0.00     0.000 HD
BRANCH 17 30
ATOM     30  O4  BGC B   3      34.022  13.893   2.5570  0.00  0.00     0.000 O
BRANCH 30 34
ATOM     31  C1  BGC B   3      30.096  12.665   2.4670  0.00  0.00     0.000 C
ATOM     32  C2  BGC B   3      30.310  14.136   2.1100  0.00  0.00     0.000 C
ATOM     33  C3  BGC B   3      31.778  14.357   1.7910  0.00  0.00     0.000 C
ATOM     34  C4  BGC B   3      32.648  13.889   2.9580  0.00  0.00     0.000 C
ATOM     35  C5  BGC B   3      32.284  12.469   3.3520  0.00  0.00     0.000 C
ATOM     36  O5  BGC B   3      30.879  12.393   3.6180  0.00  0.00     0.000 O
ATOM     37   O  BGC B   3      29.543  14.461   0.9530  0.00  0.00     0.000 O
ATOM     39  HD  BGC B   3      29.734  15.296   1.0810  0.00  0.00     0.000 HD
ATOM     39   O  BGC B   3      31.980  15.739   1.5370  0.00  0.00     0.000 O
ATOM     41  HD  BGC B   3      32.172  16.573   1.6660  0.00  0.00     0.000 HD
ATOM     41   C  BGC B   3      33.041  11.951   4.5700  0.00  0.00     0.000 C
ATOM     42   O  BGC B   3      32.817  12.794   5.6750  0.00  0.00     0.000 O
ATOM     44  HD  BGC B   3      33.008  13.629   5.8040  0.00  0.00     0.000 HD
BRANCH 31 44
ATOM     44  O4  BGC B   4      28.754  12.522   2.8530  0.00  0.00     0.000 O
BRANCH 44 48
ATOM     45  C1  BGC B   4      25.710   9.777   2.7740  0.00  0.00     0.000 C
ATOM     46  C2  BGC B   4      26.763   9.531   3.8450  0.00  0.00     0.000 C
ATOM     47  C3  BGC B   4      27.587  10.781   4.0370  0.00  0.00     0.000 C
ATOM     48  C4  BGC B   4      28.166  11.247   2.6970  0.00  0.00     0.000 C
ATOM     49  C5  BGC B   4      27.057  11.371   1.6450  0.00  0.00     0.000 C
ATOM     50  O5  BGC B   4      26.344  10.130   1.5430  0.00  0.00     0.000 O
ATOM     51   O  BGC B   4      26.127   9.192   5.0920  0.00  0.00     0.000 O
ATOM     53  HD  BGC B   4      26.328  10.017   5.2610  0.00  0.00     0.000 HD
ATOM     53   O  BGC B   4      28.654  10.495   4.9520  0.00  0.00     0.000 O
ATOM     55  HD  BGC B   4      28.855  11.320   5.1210  0.00  0.00     0.000 HD
ATOM     55   C  BGC B   4      27.550  11.716   0.2510  0.00  0.00     0.000 C
ATOM     56   O  BGC B   4      28.523  10.739  -0.1210  0.00  0.00     0.000 O
ATOM     58  HD  BGC B   4      28.723  11.564   0.0480  0.00  0.00     0.000 HD
BRANCH 45 58
ATOM     58  O4  BGC B   5      25.155   8.497   2.4710  0.00  0.00     0.000 O
BRANCH 58 62
ATOM     59  C1  BGC B   5      21.517   6.572   2.0150  0.00  0.00     0.000 C
ATOM     60  C2  BGC B   5      21.960   7.413   0.8350  0.00  0.00     0.000 C
ATOM     61  C3  BGC B   5      23.442   7.720   0.9260  0.00  0.00     0.000 C
ATOM     62  C4  BGC B   5      23.746   8.365   2.2690  0.00  0.00     0.000 C
ATOM     63  C5  BGC B   5      23.202   7.503   3.4180  0.00  0.00     0.000 C
ATOM     64  O5  BGC B   5      21.809   7.293   3.2160  0.00  0.00     0.000 O
ATOM     65   O  BGC B   5      22.719   9.402   4.7050  0.00  0.00     0.000 O
ATOM     67  HD  BGC B   5      22.935  10.237   4.7870  0.00  0.00     0.000 HD
ATOM     67   O  BGC B   5      22.719   9.402   4.7050  0.00  0.00     0.000 O
ATOM     69  HD  BGC B   5      22.935  10.237   4.7870  0.00  0.00     0.000 HD
ENDBRANCH 58 62
ENDBRANCH 45 58
ENDBRANCH 44 48
ENDBRANCH 31 44
ENDBRANCH 30 34
ENDBRANCH 17 30
ENDBRANCH 16 20
ENDBRANCH 1 16
TORSDOF 8
ENDMDL
MODEL 74
REMARK VINA RESULT:      -0.8     12.562     20.456
ROOT
ATOM      1  C1  BGC B   1      25.414  10.518  22.0840  0.00  0.00     0.000 C
ATOM      2  C2  BGC B   1      26.288   9.897  23.1720  0.00  0.00     0.000 C
ATOM      3  C3  BGC B   1      26.103  10.644  24.4780  0.00  0.00     0.000 C
ATOM      4  C4  BGC B   1      26.307  12.140  24.2770  0.00  0.00     0.000 C
ATOM      5  C5  BGC B   1      25.363  12.612  23.1810  0.00  0.00     0.000 C
ATOM      6  O5  BGC B   1      25.712  11.903  21.9770  0.00  0.00     0.000 O
ATOM      7   O  BGC B   1      25.909   8.522  23.3550  0.00  0.00     0.000 O
ATOM      9  HD  BGC B   1      26.040   8.169  24.1350  0.00  0.00     0.000 HD
ATOM      9   O  BGC B   1      27.028  10.129  25.4400  0.00  0.00     0.000 O
ATOM     11  HD  BGC B   1      27.159   9.776  26.2200  0.00  0.00     0.000 HD
ATOM     11   O  BGC B   1      26.027  12.823  25.4790  0.00  0.00     0.000 O
ATOM     13  HD  BGC B   1      26.158  12.470  26.2590  0.00  0.00     0.000 HD
ATOM     13   C  BGC B   1      25.413  14.106  22.8930  0.00  0.00     0.000 C
ATOM     14   O  BGC B   1      26.728  14.555  22.5820  0.00  0.00     0.000 O
ATOM     16  HD  BGC B   1      26.859  14.202  23.3620  0.00  0.00     0.000 HD
ENDROOT
BRANCH 1 16
ATOM     16  O4  BGC B   2      25.848   9.948  20.8500  0.00  0.00     0.000 O
BRANCH 16 20
ATOM     17  C1  BGC B   2      24.903   9.945  16.8950  0.00  0.00     0.000 C
ATOM     18  C2  BGC B   2      25.832  11.080  17.3010  0.00  0.00     0.000 C
ATOM     19  C3  BGC B   2      26.398  10.772  18.6850  0.00  0.00     0.000 C
ATOM     20  C4  BGC B   2      25.277  10.502  19.6670  0.00  0.00     0.000 C
ATOM     21  C5  BGC B   2      24.263   9.491  19.1320  0.00  0.00     0.000 C
ATOM     22  O5  BGC B   2      23.819   9.930  17.8420  0.00  0.00     0.000 O
ATOM     23   O  BGC B   2      26.916  11.190  16.3630  0.00  0.00     0.000 O
ATOM     25  HD  BGC B   2      26.848  10.858  17.1600  0.00  0.00     0.000 HD
ATOM     25   O  BGC B   2      27.197  11.860  19.1350  0.00  0.00     0.000 O
ATOM     27  HD  BGC B   2      27.129  11.528  19.9320  0.00  0.00     0.000 HD
ATOM     27   C  BGC B   2      23.035   9.352  20.0230  0.00  0.00     0.000 C
ATOM     28   O  BGC B   2      22.364  10.581  20.2520  0.00  0.00     0.000 O
ATOM     30  HD  BGC B   2      22.296  10.249  21.0490  0.00  0.00     0.000 HD
BRANCH 17 30
ATOM     30  O4  BGC B   3      24.314  10.319  15.6640  0.00  0.00     0.000 O
BRANCH 30 34
ATOM     31  C1  BGC B   3      22.808   8.582  12.2520  0.00  0.00     0.000 C
ATOM     32  C2  BGC B   3      21.892   8.482  13.4720  0.00  0.00     0.000 C
ATOM     33  C3  BGC B   3      22.359   9.478  14.5190  0.00  0.00     0.000 C
ATOM     34  C4  BGC B   3      23.832   9.242  14.8530  0.00  0.00     0.000 C
ATOM     35  C5  BGC B   3      24.663   9.211  13.5820  0.00  0.00     0.000 C
ATOM     36  O5  BGC B   3      24.117   8.243  12.6800  0.00  0.00     0.000 O
ATOM     37   O  BGC B   3      20.559   8.817  13.0950  0.00  0.00     0.000 O
ATOM     39  HD  BGC B   3      20.289   8.550  13.8730  0.00  0.00     0.000 HD
ATOM     39   O  BGC B   3      21.553   9.325  15.6770  0.00  0.00     0.000 O
ATOM     41  HD  BGC B   3      21.283   9.058  16.4560  0.00  0.00     0.000 HD
ATOM     41   C  BGC B   3      26.136   8.889  13.8130  0.00  0.00     0.000 C
ATOM     42   O  BGC B   3      26.265   7.647  14.4630  0.00  0.00     0.000 O
ATOM     44  HD  BGC B   3      25.995   7.380  15.2420  0.00  0.00     0.000 HD
BRANCH 31 44
ATOM     44  O4  BGC B   4      22.410   7.580  11.3520  0.00  0.00     0.000 O
BRANCH 44 48
ATOM     45  C1  BGC B   4      22.245   6.839   7.3230  0.00  0.00     0.000 C
ATOM     46  C2  BGC B   4      23.614   6.630   7.9550  0.00  0.00     0.000 C
ATOM     47  C3  BGC B   4      23.469   6.545   9.4540  0.00  0.00     0.000 C
ATOM     48  C4  BGC B   4      22.722   7.772   9.9870  0.00  0.00     0.000 C
ATOM     49  C5  BGC B   4      21.403   7.970   9.2310  0.00  0.00     0.000 C
ATOM     50  O5  BGC B   4      21.659   8.043   7.8210  0.00  0.00     0.000 O
ATOM     51   O  BGC B   4      24.200   5.408   7.4680  0.00  0.00     0.000 O
ATOM     53  HD  BGC B   4      23.938   5.134   8.2470  0.00  0.00     0.000 HD
ATOM     53   O  BGC B   4      24.776   6.480  10.0420  0.00  0.00     0.000 O
ATOM     55  HD  BGC B   4      24.514   6.206  10.8210  0.00  0.00     0.000 HD
ATOM     55   C  BGC B   4      20.646   9.231   9.6100  0.00  0.00     0.000 C
ATOM     56   O  BGC B   4      21.529  10.339   9.4320  0.00  0.00     0.000 O
ATOM     58  HD  BGC B   4      21.267  10.065  10.2100  0.00  0.00     0.000 HD
BRANCH 45 58
ATOM     58  O4  BGC B   5      22.490   7.165   5.9560  0.00  0.00     0.000 O
BRANCH 58 62
ATOM     59  C1  BGC B   5      21.246   6.238   2.1160  0.00  0.00     0.000 C
ATOM     60  C2  BGC B   5      20.289   7.094   2.9210  0.00  0.00     0.000 C
ATOM     61  C3  BGC B   5      20.998   7.710   4.1120  0.00  0.00     0.000 C
ATOM     62  C4  BGC B   5      21.657   6.613   4.9340  0.00  0.00     0.000 C
ATOM     63  C5  BGC B   5      22.550   5.735   4.0460  0.00  0.00     0.000 C
ATOM     64  O5  BGC B   5      21.767   5.218   2.9740  0.00  0.00     0.000 O
ATOM     65   O  BGC B   5      22.052   3.827   5.3150  0.00  0.00     0.000 O
ATOM     67  HD  BGC B   5      21.766   3.591   6.0970  0.00  0.00     0.000 HD
ATOM     67   O  BGC B   5      22.052   3.827   5.3150  0.00  0.00     0.000 O
ATOM     69  HD  BGC B   5      21.766   3.591   6.0970  0.00  0.00     0.000 HD
ENDBRANCH 58 62
ENDBRANCH 45 58
ENDBRANCH 44 48
ENDBRANCH 31 44
ENDBRANCH 30 34
ENDBRANCH 17 30
ENDBRANCH 16 20
ENDBRANCH 1 16
TORSDOF 8
ENDMDL
MODEL 75
REMARK VINA RESULT:      -0.8     13.623     15.546
ROOT
ATOM      1  C1  BGC B   1      11.438   3.662  23.8900  0.00  0.00     0.000 C
ATOM      2  C2  BGC B   1      10.170   4.353  24.3880  0.00  0.00     0.000 C
ATOM      3  C3  BGC B   1      10.118   4.318  25.9040  0.00  0.00     0.000 C
ATOM      4  C4  BGC B   1      10.311   2.896  26.4170  0.00  0.00     0.000 C
ATOM      5  C5  BGC B   1      11.614   2.351  25.8510  0.00  0.00     0.000 C
ATOM      6  O5  BGC B   1      11.490   2.343  24.4170  0.00  0.00     0.000 O
ATOM      7   O  BGC B   1      10.172   5.721  23.9470  0.00  0.00     0.000 O
ATOM      9  HD  BGC B   1       9.745   6.300  24.4280  0.00  0.00     0.000 HD
ATOM      9   O  BGC B   1       8.863   4.850  26.3360  0.00  0.00     0.000 O
ATOM     11  HD  BGC B   1       8.436   5.429  26.8180  0.00  0.00     0.000 HD
ATOM     11   O  BGC B   1      10.365   2.904  27.8270  0.00  0.00     0.000 O
ATOM     13  HD  BGC B   1       9.937   3.483  28.3080  0.00  0.00     0.000 HD
ATOM     13   C  BGC B   1      11.974   0.947  26.3130  0.00  0.00     0.000 C
ATOM     14   O  BGC B   1      10.938   0.006  26.0490  0.00  0.00     0.000 O
ATOM     16  HD  BGC B   1      10.510   0.586  26.5300  0.00  0.00     0.000 HD
ENDROOT
BRANCH 1 16
ATOM     16  O4  BGC B   2      11.273   3.494  22.4830  0.00  0.00     0.000 O
BRANCH 16 20
ATOM     17  C1  BGC B   2      13.377   3.357  19.0060  0.00  0.00     0.000 C
ATOM     18  C2  BGC B   2      13.796   2.299  20.0160  0.00  0.00     0.000 C
ATOM     19  C3  BGC B   2      12.722   2.210  21.0980  0.00  0.00     0.000 C
ATOM     20  C4  BGC B   2      12.460   3.576  21.6980  0.00  0.00     0.000 C
ATOM     21  C5  BGC B   2      12.231   4.647  20.6310  0.00  0.00     0.000 C
ATOM     22  O5  BGC B   2      13.326   4.613  19.7080  0.00  0.00     0.000 O
ATOM     23   O  BGC B   2      13.921   1.021  19.3700  0.00  0.00     0.000 O
ATOM     25  HD  BGC B   2      13.316   1.377  19.8780  0.00  0.00     0.000 HD
ATOM     25   O  BGC B   2      13.130   1.296  22.1100  0.00  0.00     0.000 O
ATOM     27  HD  BGC B   2      12.525   1.652  22.6180  0.00  0.00     0.000 HD
ATOM     27   C  BGC B   2      12.154   6.054  21.2090  0.00  0.00     0.000 C
ATOM     28   O  BGC B   2      13.298   6.414  21.9670  0.00  0.00     0.000 O
ATOM     30  HD  BGC B   2      12.693   6.769  22.4750  0.00  0.00     0.000 HD
BRANCH 17 30
ATOM     30  O4  BGC B   3      14.444   3.491  18.0860  0.00  0.00     0.000 O
BRANCH 30 34
ATOM     31  C1  BGC B   3      15.091   4.271  14.0990  0.00  0.00     0.000 C
ATOM     32  C2  BGC B   3      14.577   5.464  14.9040  0.00  0.00     0.000 C
ATOM     33  C3  BGC B   3      14.761   5.175  16.3830  0.00  0.00     0.000 C
ATOM     34  C4  BGC B   3      14.075   3.861  16.7540  0.00  0.00     0.000 C
ATOM     35  C5  BGC B   3      14.524   2.749  15.8220  0.00  0.00     0.000 C
ATOM     36  O5  BGC B   3      14.306   3.147  14.4650  0.00  0.00     0.000 O
ATOM     37   O  BGC B   3      15.338   6.624  14.5730  0.00  0.00     0.000 O
ATOM     39  HD  BGC B   3      14.774   7.102  15.0230  0.00  0.00     0.000 HD
ATOM     39   O  BGC B   3      14.212   6.254  17.1250  0.00  0.00     0.000 O
ATOM     41  HD  BGC B   3      13.648   6.732  17.5750  0.00  0.00     0.000 HD
ATOM     41   C  BGC B   3      13.820   1.418  16.0610  0.00  0.00     0.000 C
ATOM     42   O  BGC B   3      12.427   1.576  15.9310  0.00  0.00     0.000 O
ATOM     44  HD  BGC B   3      11.863   2.054  16.3810  0.00  0.00     0.000 HD
BRANCH 31 44
ATOM     44  O4  BGC B   4      14.811   4.530  12.7470  0.00  0.00     0.000 O
BRANCH 44 48
ATOM     45  C1  BGC B   4      16.291   3.792   8.9970  0.00  0.00     0.000 C
ATOM     46  C2  BGC B   4      15.644   2.592   9.6750  0.00  0.00     0.000 C
ATOM     47  C3  BGC B   4      14.808   3.063  10.8390  0.00  0.00     0.000 C
ATOM     48  C4  BGC B   4      15.650   3.927  11.7830  0.00  0.00     0.000 C
ATOM     49  C5  BGC B   4      16.348   5.051  11.0070  0.00  0.00     0.000 C
ATOM     50  O5  BGC B   4      17.116   4.491   9.9310  0.00  0.00     0.000 O
ATOM     51   O  BGC B   4      14.799   1.895   8.7400  0.00  0.00     0.000 O
ATOM     53  HD  BGC B   4      14.190   2.318   9.1870  0.00  0.00     0.000 HD
ATOM     53   O  BGC B   4      14.312   1.917  11.5450  0.00  0.00     0.000 O
ATOM     55  HD  BGC B   4      13.702   2.340  11.9920  0.00  0.00     0.000 HD
ATOM     55   C  BGC B   4      17.299   5.892  11.8400  0.00  0.00     0.000 C
ATOM     56   O  BGC B   4      18.240   5.008  12.4510  0.00  0.00     0.000 O
ATOM     58  HD  BGC B   4      17.631   5.431  12.8980  0.00  0.00     0.000 HD
BRANCH 45 58
ATOM     58  O4  BGC B   5      17.253   3.256   8.0880  0.00  0.00     0.000 O
BRANCH 58 62
ATOM     59  C1  BGC B   5      18.601   3.613   4.1890  0.00  0.00     0.000 C
ATOM     60  C2  BGC B   5      18.987   4.747   5.1170  0.00  0.00     0.000 C
ATOM     61  C3  BGC B   5      18.817   4.331   6.5660  0.00  0.00     0.000 C
ATOM     62  C4  BGC B   5      17.399   3.831   6.7880  0.00  0.00     0.000 C
ATOM     63  C5  BGC B   5      17.043   2.741   5.7670  0.00  0.00     0.000 C
ATOM     64  O5  BGC B   5      17.241   3.258   4.4550  0.00  0.00     0.000 O
ATOM     65   O  BGC B   5      14.807   3.442   5.6950  0.00  0.00     0.000 O
ATOM     67  HD  BGC B   5      14.221   3.882   6.1560  0.00  0.00     0.000 HD
ATOM     67   O  BGC B   5      14.807   3.442   5.6950  0.00  0.00     0.000 O
ATOM     69  HD  BGC B   5      14.221   3.882   6.1560  0.00  0.00     0.000 HD
ENDBRANCH 58 62
ENDBRANCH 45 58
ENDBRANCH 44 48
ENDBRANCH 31 44
ENDBRANCH 30 34
ENDBRANCH 17 30
ENDBRANCH 16 20
ENDBRANCH 1 16
TORSDOF 8
ENDMDL
MODEL 76
REMARK VINA RESULT:      -0.8     12.446     18.164
ROOT
ATOM      1  C1  BGC B   1      19.613  10.940  22.5820  0.00  0.00     0.000 C
ATOM      2  C2  BGC B   1      18.800  10.247  23.6750  0.00  0.00     0.000 C
ATOM      3  C3  BGC B   1      18.753  11.116  24.9180  0.00  0.00     0.000 C
ATOM      4  C4  BGC B   1      20.156  11.534  25.3380  0.00  0.00     0.000 C
ATOM      5  C5  BGC B   1      20.828  12.219  24.1570  0.00  0.00     0.000 C
ATOM      6  O5  BGC B   1      20.902  11.258  23.0870  0.00  0.00     0.000 O
ATOM      7   O  BGC B   1      17.462  10.026  23.2010  0.00  0.00     0.000 O
ATOM      9  HD  BGC B   1      16.827   9.991  23.7890  0.00  0.00     0.000 HD
ATOM      9   O  BGC B   1      18.103  10.389  25.9650  0.00  0.00     0.000 O
ATOM     11  HD  BGC B   1      17.468  10.355  26.5530  0.00  0.00     0.000 HD
ATOM     11   O  BGC B   1      20.078  12.425  26.4290  0.00  0.00     0.000 O
ATOM     13  HD  BGC B   1      19.444  12.390  27.0170  0.00  0.00     0.000 HD
ATOM     13   C  BGC B   1      22.230  12.742  24.4350  0.00  0.00     0.000 C
ATOM     14   O  BGC B   1      23.101  11.726  24.9250  0.00  0.00     0.000 O
ATOM     16  HD  BGC B   1      22.466  11.691  25.5130  0.00  0.00     0.000 HD
ENDROOT
BRANCH 1 16
ATOM     16  O4  BGC B   2      19.841   9.958  21.5730  0.00  0.00     0.000 O
BRANCH 16 20
ATOM     17  C1  BGC B   2      20.854   9.601  17.6510  0.00  0.00     0.000 C
ATOM     18  C2  BGC B   2      22.027   9.942  18.5570  0.00  0.00     0.000 C
ATOM     19  C3  BGC B   2      21.612   9.691  20.0050  0.00  0.00     0.000 C
ATOM     20  C4  BGC B   2      20.336  10.441  20.3270  0.00  0.00     0.000 C
ATOM     21  C5  BGC B   2      19.245  10.213  19.2810  0.00  0.00     0.000 C
ATOM     22  O5  BGC B   2      19.786  10.506  17.9860  0.00  0.00     0.000 O
ATOM     23   O  BGC B   2      23.155   9.109  18.2400  0.00  0.00     0.000 O
ATOM     25  HD  BGC B   2      22.567   9.101  18.8760  0.00  0.00     0.000 HD
ATOM     25   O  BGC B   2      22.655  10.092  20.8850  0.00  0.00     0.000 O
ATOM     27  HD  BGC B   2      22.068  10.084  21.5210  0.00  0.00     0.000 HD
ATOM     27   C  BGC B   2      18.027  11.105  19.4880  0.00  0.00     0.000 C
ATOM     28   O  BGC B   2      18.341  12.488  19.5130  0.00  0.00     0.000 O
ATOM     30  HD  BGC B   2      17.753  12.480  20.1490  0.00  0.00     0.000 HD
BRANCH 17 30
ATOM     30  O4  BGC B   3      21.236   9.952  16.3350  0.00  0.00     0.000 O
BRANCH 30 34
ATOM     31  C1  BGC B   3      20.541   8.798  12.4480  0.00  0.00     0.000 C
ATOM     32  C2  BGC B   3      19.389   9.562  13.0980  0.00  0.00     0.000 C
ATOM     33  C3  BGC B   3      19.905  10.262  14.3430  0.00  0.00     0.000 C
ATOM     34  C4  BGC B   3      20.563   9.253  15.2830  0.00  0.00     0.000 C
ATOM     35  C5  BGC B   3      21.597   8.431  14.5350  0.00  0.00     0.000 C
ATOM     36  O5  BGC B   3      20.990   7.833  13.3860  0.00  0.00     0.000 O
ATOM     37   O  BGC B   3      18.902  10.550  12.1930  0.00  0.00     0.000 O
ATOM     39  HD  BGC B   3      18.237  10.691  12.7300  0.00  0.00     0.000 HD
ATOM     39   O  BGC B   3      18.812  10.905  14.9830  0.00  0.00     0.000 O
ATOM     41  HD  BGC B   3      18.147  11.045  15.5200  0.00  0.00     0.000 HD
ATOM     41   C  BGC B   3      22.242   7.334  15.3750  0.00  0.00     0.000 C
ATOM     42   O  BGC B   3      21.255   6.463  15.8760  0.00  0.00     0.000 O
ATOM     44  HD  BGC B   3      20.590   6.603  16.4130  0.00  0.00     0.000 HD
BRANCH 31 44
ATOM     44  O4  BGC B   4      20.006   8.084  11.3630  0.00  0.00     0.000 O
BRANCH 44 48
ATOM     45  C1  BGC B   4      20.963   6.850   7.5730  0.00  0.00     0.000 C
ATOM     46  C2  BGC B   4      21.850   6.282   8.6710  0.00  0.00     0.000 C
ATOM     47  C3  BGC B   4      21.181   6.477  10.0100  0.00  0.00     0.000 C
ATOM     48  C4  BGC B   4      20.814   7.950  10.2110  0.00  0.00     0.000 C
ATOM     49  C5  BGC B   4      20.009   8.474   9.0160  0.00  0.00     0.000 C
ATOM     50  O5  BGC B   4      20.738   8.242   7.8020  0.00  0.00     0.000 O
ATOM     51   O  BGC B   4      22.065   4.875   8.4530  0.00  0.00     0.000 O
ATOM     53  HD  BGC B   4      21.471   4.827   9.0810  0.00  0.00     0.000 HD
ATOM     53   O  BGC B   4      22.083   6.056  11.0430  0.00  0.00     0.000 O
ATOM     55  HD  BGC B   4      21.489   6.009  11.6710  0.00  0.00     0.000 HD
ATOM     55   C  BGC B   4      19.698   9.959   9.0710  0.00  0.00     0.000 C
ATOM     56   O  BGC B   4      20.935  10.658   9.2210  0.00  0.00     0.000 O
ATOM     58  HD  BGC B   4      20.340  10.610   9.8490  0.00  0.00     0.000 HD
BRANCH 45 58
ATOM     58  O4  BGC B   5      21.764   6.864   6.3910  0.00  0.00     0.000 O
BRANCH 58 62
ATOM     59  C1  BGC B   5      21.673   5.631   2.4390  0.00  0.00     0.000 C
ATOM     60  C2  BGC B   5      21.036   6.978   2.7150  0.00  0.00     0.000 C
ATOM     61  C3  BGC B   5      21.482   7.512   4.0630  0.00  0.00     0.000 C
ATOM     62  C4  BGC B   5      21.190   6.480   5.1400  0.00  0.00     0.000 C
ATOM     63  C5  BGC B   5      21.793   5.119   4.7630  0.00  0.00     0.000 C
ATOM     64  O5  BGC B   5      21.294   4.732   3.4870  0.00  0.00     0.000 O
ATOM     65   O  BGC B   5      20.025   3.973   5.7910  0.00  0.00     0.000 O
ATOM     67  HD  BGC B   5      19.406   4.079   6.3870  0.00  0.00     0.000 HD
ATOM     67   O  BGC B   5      20.025   3.973   5.7910  0.00  0.00     0.000 O
ATOM     69  HD  BGC B   5      19.406   4.079   6.3870  0.00  0.00     0.000 HD
ENDBRANCH 58 62
ENDBRANCH 45 58
ENDBRANCH 44 48
ENDBRANCH 31 44
ENDBRANCH 30 34
ENDBRANCH 17 30
ENDBRANCH 16 20
ENDBRANCH 1 16
TORSDOF 8
ENDMDL
MODEL 77
REMARK VINA RESULT:      -0.7     12.036     18.284
ROOT
ATOM      1  C1  BGC B   1      19.100  13.742   3.7630  0.00  0.00     0.000 C
ATOM      2  C2  BGC B   1      18.630  12.374   3.2690  0.00  0.00     0.000 C
ATOM      3  C3  BGC B   1      18.517  12.378   1.7570  0.00  0.00     0.000 C
ATOM      4  C4  BGC B   1      17.668  13.551   1.2830  0.00  0.00     0.000 C
ATOM      5  C5  BGC B   1      18.266  14.835   1.8390  0.00  0.00     0.000 C
ATOM      6  O5  BGC B   1      18.219  14.744   3.2750  0.00  0.00     0.000 O
ATOM      7   O  BGC B   1      19.582  11.374   3.6700  0.00  0.00     0.000 O
ATOM      9  HD  BGC B   1      19.649  10.664   3.1800  0.00  0.00     0.000 HD
ATOM      9   O  BGC B   1      17.950  11.135   1.3330  0.00  0.00     0.000 O
ATOM     11  HD  BGC B   1      18.018  10.424   0.8430  0.00  0.00     0.000 HD
ATOM     11   O  BGC B   1      17.665  13.594  -0.1270  0.00  0.00     0.000 O
ATOM     13  HD  BGC B   1      17.732  12.883  -0.6180  0.00  0.00     0.000 HD
ATOM     13   C  BGC B   1      17.553  16.110   1.4120  0.00  0.00     0.000 C
ATOM     14   O  BGC B   1      16.164  16.085   1.7240  0.00  0.00     0.000 O
ATOM     16  HD  BGC B   1      16.231  15.374   1.2340  0.00  0.00     0.000 HD
ENDROOT
BRANCH 1 16
ATOM     16  O4  BGC B   2      18.914  13.739   5.1770  0.00  0.00     0.000 O
BRANCH 16 20
ATOM     17  C1  BGC B   2      20.544  15.205   8.6030  0.00  0.00     0.000 C
ATOM     18  C2  BGC B   2      19.747  16.235   7.8150  0.00  0.00     0.000 C
ATOM     19  C3  BGC B   2      18.900  15.502   6.7780  0.00  0.00     0.000 C
ATOM     20  C4  BGC B   2      19.768  14.601   5.9250  0.00  0.00     0.000 C
ATOM     21  C5  BGC B   2      20.691  13.716   6.7640  0.00  0.00     0.000 C
ATOM     22  O5  BGC B   2      21.424  14.551   7.6700  0.00  0.00     0.000 O
ATOM     23   O  BGC B   2      18.881  16.969   8.6970  0.00  0.00     0.000 O
ATOM     25  HD  BGC B   2      18.751  16.324   8.1330  0.00  0.00     0.000 HD
ATOM     25   O  BGC B   2      18.214  16.444   5.9600  0.00  0.00     0.000 O
ATOM     27  HD  BGC B   2      18.084  15.799   5.3960  0.00  0.00     0.000 HD
ATOM     27   C  BGC B   2      21.700  12.944   5.9240  0.00  0.00     0.000 C
ATOM     28   O  BGC B   2      22.504  13.778   5.1040  0.00  0.00     0.000 O
ATOM     30  HD  BGC B   2      22.374  13.133   4.5400  0.00  0.00     0.000 HD
BRANCH 17 30
ATOM     30  O4  BGC B   3      21.397  15.925   9.4720  0.00  0.00     0.000 O
BRANCH 30 34
ATOM     31  C1  BGC B   3      23.138  15.569  13.1830  0.00  0.00     0.000 C
ATOM     32  C2  BGC B   3      23.721  14.642  12.1170  0.00  0.00     0.000 C
ATOM     33  C3  BGC B   3      23.292  15.138  10.7470  0.00  0.00     0.000 C
ATOM     34  C4  BGC B   3      21.770  15.250  10.6780  0.00  0.00     0.000 C
ATOM     35  C5  BGC B   3      21.246  16.065  11.8470  0.00  0.00     0.000 C
ATOM     36  O5  BGC B   3      21.725  15.502  13.0730  0.00  0.00     0.000 O
ATOM     37   O  BGC B   3      25.145  14.676  12.1840  0.00  0.00     0.000 O
ATOM     39  HD  BGC B   3      25.170  14.013  11.6270  0.00  0.00     0.000 HD
ATOM     39   O  BGC B   3      23.773  14.228   9.7690  0.00  0.00     0.000 O
ATOM     41  HD  BGC B   3      23.798  13.565   9.2120  0.00  0.00     0.000 HD
ATOM     41   C  BGC B   3      19.725  16.153  11.9100  0.00  0.00     0.000 C
ATOM     42   O  BGC B   3      19.167  14.862  11.9790  0.00  0.00     0.000 O
ATOM     44  HD  BGC B   3      19.193  14.199  11.4220  0.00  0.00     0.000 HD
BRANCH 31 44
ATOM     44  O4  BGC B   4      23.468  15.023  14.4340  0.00  0.00     0.000 O
BRANCH 44 48
ATOM     45  C1  BGC B   4      24.257  16.166  18.2910  0.00  0.00     0.000 C
ATOM     46  C2  BGC B   4      22.792  16.250  17.8880  0.00  0.00     0.000 C
ATOM     47  C3  BGC B   4      22.571  15.453  16.6260  0.00  0.00     0.000 C
ATOM     48  C4  BGC B   4      23.540  15.911  15.5310  0.00  0.00     0.000 C
ATOM     49  C5  BGC B   4      24.984  15.895  16.0490  0.00  0.00     0.000 C
ATOM     50  O5  BGC B   4      25.079  16.684  17.2430  0.00  0.00     0.000 O
ATOM     51   O  BGC B   4      21.961  15.713  18.9350  0.00  0.00     0.000 O
ATOM     53  HD  BGC B   4      21.944  15.041  18.3880  0.00  0.00     0.000 HD
ATOM     53   O  BGC B   4      21.218  15.647  16.1870  0.00  0.00     0.000 O
ATOM     55  HD  BGC B   4      21.201  14.976  15.6400  0.00  0.00     0.000 HD
ATOM     55   C  BGC B   4      26.007  16.444  15.0710  0.00  0.00     0.000 C
ATOM     56   O  BGC B   4      25.593  17.760  14.7010  0.00  0.00     0.000 O
ATOM     58  HD  BGC B   4      25.576  17.089  14.1540  0.00  0.00     0.000 HD
BRANCH 45 58
ATOM     58  O4  BGC B   5      24.435  17.137  19.3220  0.00  0.00     0.000 O
BRANCH 58 62
ATOM     59  C1  BGC B   5      26.425  17.670  22.9140  0.00  0.00     0.000 C
ATOM     60  C2  BGC B   5      27.224  18.010  21.6720  0.00  0.00     0.000 C
ATOM     61  C3  BGC B   5      26.304  18.183  20.4780  0.00  0.00     0.000 C
ATOM     62  C4  BGC B   5      25.443  16.940  20.3160  0.00  0.00     0.000 C
ATOM     63  C5  BGC B   5      24.724  16.605  21.6310  0.00  0.00     0.000 C
ATOM     64  O5  BGC B   5      25.695  16.466  22.6640  0.00  0.00     0.000 O
ATOM     65   O  BGC B   5      24.867  14.304  21.2010  0.00  0.00     0.000 O
ATOM     67  HD  BGC B   5      24.971  13.743  20.5510  0.00  0.00     0.000 HD
ATOM     67   O  BGC B   5      24.867  14.304  21.2010  0.00  0.00     0.000 O
ATOM     69  HD  BGC B   5      24.971  13.743  20.5510  0.00  0.00     0.000 HD
ENDBRANCH 58 62
ENDBRANCH 45 58
ENDBRANCH 44 48
ENDBRANCH 31 44
ENDBRANCH 30 34
ENDBRANCH 17 30
ENDBRANCH 16 20
ENDBRANCH 1 16
TORSDOF 8
ENDMDL
MODEL 78
REMARK VINA RESULT:      -0.7     11.747     16.873
ROOT
ATOM      1  C1  BGC B   1      15.682  12.994   3.9670  0.00  0.00     0.000 C
ATOM      2  C2  BGC B   1      15.861  11.603   3.3610  0.00  0.00     0.000 C
ATOM      3  C3  BGC B   1      16.535  11.708   2.0070  0.00  0.00     0.000 C
ATOM      4  C4  BGC B   1      15.802  12.701   1.1140  0.00  0.00     0.000 C
ATOM      5  C5  BGC B   1      15.717  14.033   1.8440  0.00  0.00     0.000 C
ATOM      6  O5  BGC B   1      14.968  13.815   3.0530  0.00  0.00     0.000 O
ATOM      7   O  BGC B   1      16.677  10.806   4.2360  0.00  0.00     0.000 O
ATOM      9  HD  BGC B   1      17.147  10.171   3.8810  0.00  0.00     0.000 HD
ATOM      9   O  BGC B   1      16.569  10.410   1.4050  0.00  0.00     0.000 O
ATOM     11  HD  BGC B   1      17.039   9.775   1.0500  0.00  0.00     0.000 HD
ATOM     11   O  BGC B   1      16.507  12.859  -0.0980  0.00  0.00     0.000 O
ATOM     13  HD  BGC B   1      16.977  12.224  -0.4530  0.00  0.00     0.000 HD
ATOM     13   C  BGC B   1      15.049  15.151   1.0560  0.00  0.00     0.000 C
ATOM     14   O  BGC B   1      13.744  14.795   0.6100  0.00  0.00     0.000 O
ATOM     16  HD  BGC B   1      14.214  14.160   0.2560  0.00  0.00     0.000 HD
ENDROOT
BRANCH 1 16
ATOM     16  O4  BGC B   2      14.808  12.832   5.0830  0.00  0.00     0.000 O
BRANCH 16 20
ATOM     17  C1  BGC B   2      14.072  14.333   8.7900  0.00  0.00     0.000 C
ATOM     18  C2  BGC B   2      13.576  15.224   7.6600  0.00  0.00     0.000 C
ATOM     19  C3  BGC B   2      13.573  14.411   6.3680  0.00  0.00     0.000 C
ATOM     20  C4  BGC B   2      14.936  13.796   6.1250  0.00  0.00     0.000 C
ATOM     21  C5  BGC B   2      15.476  13.069   7.3570  0.00  0.00     0.000 C
ATOM     22  O5  BGC B   2      15.428  13.967   8.4730  0.00  0.00     0.000 O
ATOM     23   O  BGC B   2      12.240  15.674   7.9360  0.00  0.00     0.000 O
ATOM     25  HD  BGC B   2      12.569  15.065   7.4150  0.00  0.00     0.000 HD
ATOM     25   O  BGC B   2      13.205  15.243   5.2730  0.00  0.00     0.000 O
ATOM     27  HD  BGC B   2      13.534  14.634   4.7520  0.00  0.00     0.000 HD
ATOM     27   C  BGC B   2      16.919  12.611   7.1920  0.00  0.00     0.000 C
ATOM     28   O  BGC B   2      17.810  13.665   6.8680  0.00  0.00     0.000 O
ATOM     30  HD  BGC B   2      18.139  13.057   6.3470  0.00  0.00     0.000 HD
BRANCH 17 30
ATOM     30  O4  BGC B   3      14.168  15.149   9.9420  0.00  0.00     0.000 O
BRANCH 30 34
ATOM     31  C1  BGC B   3      13.815  14.876  14.0320  0.00  0.00     0.000 C
ATOM     32  C2  BGC B   3      15.059  14.201  13.4560  0.00  0.00     0.000 C
ATOM     33  C3  BGC B   3      15.280  14.704  12.0400  0.00  0.00     0.000 C
ATOM     34  C4  BGC B   3      14.027  14.473  11.1960  0.00  0.00     0.000 C
ATOM     35  C5  BGC B   3      12.806  15.044  11.8960  0.00  0.00     0.000 C
ATOM     36  O5  BGC B   3      12.716  14.500  13.2160  0.00  0.00     0.000 O
ATOM     37   O  BGC B   3      16.197  14.551  14.2420  0.00  0.00     0.000 O
ATOM     39  HD  BGC B   3      16.658  13.962  13.8050  0.00  0.00     0.000 HD
ATOM     39   O  BGC B   3      16.391  14.015  11.4870  0.00  0.00     0.000 O
ATOM     41  HD  BGC B   3      16.853  13.426  11.0500  0.00  0.00     0.000 HD
ATOM     41   C  BGC B   3      11.494  14.779  11.1660  0.00  0.00     0.000 C
ATOM     42   O  BGC B   3      11.305  13.394  10.9950  0.00  0.00     0.000 O
ATOM     44  HD  BGC B   3      11.767  12.806  10.5590  0.00  0.00     0.000 HD
BRANCH 31 44
ATOM     44  O4  BGC B   4      13.584  14.312  15.2970  0.00  0.00     0.000 O
BRANCH 44 48
ATOM     45  C1  BGC B   4      12.083  15.291  18.9840  0.00  0.00     0.000 C
ATOM     46  C2  BGC B   4      11.033  15.099  17.8980  0.00  0.00     0.000 C
ATOM     47  C3  BGC B   4      11.648  14.374  16.7270  0.00  0.00     0.000 C
ATOM     48  C4  BGC B   4      12.906  15.107  16.2490  0.00  0.00     0.000 C
ATOM     49  C5  BGC B   4      13.865  15.351  17.4200  0.00  0.00     0.000 C
ATOM     50  O5  BGC B   4      13.180  16.048  18.4710  0.00  0.00     0.000 O
ATOM     51   O  BGC B   4       9.933  14.321  18.4070  0.00  0.00     0.000 O
ATOM     53  HD  BGC B   4      10.337  13.706  17.9510  0.00  0.00     0.000 HD
ATOM     53   O  BGC B   4      10.688  14.317  15.6620  0.00  0.00     0.000 O
ATOM     55  HD  BGC B   4      11.091  13.701  15.2060  0.00  0.00     0.000 HD
ATOM     55   C  BGC B   4      15.090  16.175  17.0660  0.00  0.00     0.000 C
ATOM     56   O  BGC B   4      14.639  17.402  16.4900  0.00  0.00     0.000 O
ATOM     58  HD  BGC B   4      15.042  16.786  16.0340  0.00  0.00     0.000 HD
BRANCH 45 58
ATOM     58  O4  BGC B   5      11.508  16.194  19.9280  0.00  0.00     0.000 O
BRANCH 58 62
ATOM     59  C1  BGC B   5      10.933  16.708  23.9970  0.00  0.00     0.000 C
ATOM     60  C2  BGC B   5      12.335  16.992  23.4980  0.00  0.00     0.000 C
ATOM     61  C3  BGC B   5      12.337  17.181  21.9920  0.00  0.00     0.000 C
ATOM     62  C4  BGC B   5      11.697  15.973  21.3280  0.00  0.00     0.000 C
ATOM     63  C5  BGC B   5      10.314  15.692  21.9330  0.00  0.00     0.000 C
ATOM     64  O5  BGC B   5      10.451  15.531  23.3410  0.00  0.00     0.000 O
ATOM     65   O  BGC B   5      10.585  13.380  21.6530  0.00  0.00     0.000 O
ATOM     67  HD  BGC B   5      11.038  12.803  21.1920  0.00  0.00     0.000 HD
ATOM     67   O  BGC B   5      10.585  13.380  21.6530  0.00  0.00     0.000 O
ATOM     69  HD  BGC B   5      11.038  12.803  21.1920  0.00  0.00     0.000 HD
ENDBRANCH 58 62
ENDBRANCH 45 58
ENDBRANCH 44 48
ENDBRANCH 31 44
ENDBRANCH 30 34
ENDBRANCH 17 30
ENDBRANCH 16 20
ENDBRANCH 1 16
TORSDOF 8
ENDMDL
MODEL 79
REMARK VINA RESULT:      -0.7     11.364     16.826
ROOT
ATOM      1  C1  BGC B   1      15.685  12.993   3.9600  0.00  0.00     0.000 C
ATOM      2  C2  BGC B   1      15.883  11.681   3.2030  0.00  0.00     0.000 C
ATOM      3  C3  BGC B   1      16.856  11.882   2.0570  0.00  0.00     0.000 C
ATOM      4  C4  BGC B   1      16.430  13.059   1.1880  0.00  0.00     0.000 C
ATOM      5  C5  BGC B   1      16.291  14.287   2.0760  0.00  0.00     0.000 C
ATOM      6  O5  BGC B   1      15.269  14.001   3.0490  0.00  0.00     0.000 O
ATOM      7   O  BGC B   1      16.409  10.691   4.1020  0.00  0.00     0.000 O
ATOM      9  HD  BGC B   1      16.894  10.058   3.7640  0.00  0.00     0.000 HD
ATOM      9   O  BGC B   1      16.920  10.678   1.2880  0.00  0.00     0.000 O
ATOM     11  HD  BGC B   1      17.405  10.045   0.9500  0.00  0.00     0.000 HD
ATOM     11   O  BGC B   1      17.404  13.292   0.1950  0.00  0.00     0.000 O
ATOM     13  HD  BGC B   1      17.889  12.659  -0.1430  0.00  0.00     0.000 HD
ATOM     13   C  BGC B   1      15.915  15.567   1.3420  0.00  0.00     0.000 C
ATOM     14   O  BGC B   1      14.721  15.422   0.5780  0.00  0.00     0.000 O
ATOM     16  HD  BGC B   1      15.206  14.789   0.2400  0.00  0.00     0.000 HD
ENDROOT
BRANCH 1 16
ATOM     16  O4  BGC B   2      14.569  12.790   4.8240  0.00  0.00     0.000 O
BRANCH 16 20
ATOM     17  C1  BGC B   2      13.130  13.872   8.4710  0.00  0.00     0.000 C
ATOM     18  C2  BGC B   2      12.984  14.953   7.4100  0.00  0.00     0.000 C
ATOM     19  C3  BGC B   2      13.209  14.321   6.0390  0.00  0.00     0.000 C
ATOM     20  C4  BGC B   2      14.535  13.589   6.0040  0.00  0.00     0.000 C
ATOM     21  C5  BGC B   2      14.715  12.651   7.1980  0.00  0.00     0.000 C
ATOM     22  O5  BGC B   2      14.487  13.396   8.4010  0.00  0.00     0.000 O
ATOM     23   O  BGC B   2      11.662  15.516   7.4570  0.00  0.00     0.000 O
ATOM     25  HD  BGC B   2      12.049  14.946   6.9330  0.00  0.00     0.000 HD
ATOM     25   O  BGC B   2      13.173  15.324   5.0310  0.00  0.00     0.000 O
ATOM     27  HD  BGC B   2      13.560  14.755   4.5060  0.00  0.00     0.000 HD
ATOM     27   C  BGC B   2      16.114  12.054   7.2790  0.00  0.00     0.000 C
ATOM     28   O  BGC B   2      17.141  13.031   7.3190  0.00  0.00     0.000 O
ATOM     30  HD  BGC B   2      17.528  12.462   6.7940  0.00  0.00     0.000 HD
BRANCH 17 30
ATOM     30  O4  BGC B   3      13.028  14.515   9.7270  0.00  0.00     0.000 O
BRANCH 30 34
ATOM     31  C1  BGC B   3      11.724  13.757  13.5550  0.00  0.00     0.000 C
ATOM     32  C2  BGC B   3      13.007  13.023  13.1640  0.00  0.00     0.000 C
ATOM     33  C3  BGC B   3      13.588  13.677  11.9230  0.00  0.00     0.000 C
ATOM     34  C4  BGC B   3      12.547  13.704  10.8040  0.00  0.00     0.000 C
ATOM     35  C5  BGC B   3      11.250  14.316  11.3030  0.00  0.00     0.000 C
ATOM     36  O5  BGC B   3      10.815  13.619  12.4750  0.00  0.00     0.000 O
ATOM     37   O  BGC B   3      13.959  13.134  14.2200  0.00  0.00     0.000 O
ATOM     39  HD  BGC B   3      14.457  12.558  13.8090  0.00  0.00     0.000 HD
ATOM     39   O  BGC B   3      14.735  12.942  11.5230  0.00  0.00     0.000 O
ATOM     41  HD  BGC B   3      15.234  12.365  11.1120  0.00  0.00     0.000 HD
ATOM     41   C  BGC B   3      10.123  14.301  10.2770  0.00  0.00     0.000 C
ATOM     42   O  BGC B   3       9.864  12.981   9.8600  0.00  0.00     0.000 O
ATOM     44  HD  BGC B   3      10.362  12.405   9.4490  0.00  0.00     0.000 HD
BRANCH 31 44
ATOM     44  O4  BGC B   4      11.163  13.064  14.6400  0.00  0.00     0.000 O
BRANCH 44 48
ATOM     45  C1  BGC B   4       8.940  13.723  18.0210  0.00  0.00     0.000 C
ATOM     46  C2  BGC B   4       8.157  13.795  16.7180  0.00  0.00     0.000 C
ATOM     47  C3  BGC B   4       8.963  13.162  15.6110  0.00  0.00     0.000 C
ATOM     48  C4  BGC B   4      10.352  13.802  15.5320  0.00  0.00     0.000 C
ATOM     49  C5  BGC B   4      11.034  13.781  16.9060  0.00  0.00     0.000 C
ATOM     50  O5  BGC B   4      10.185  14.410  17.8780  0.00  0.00     0.000 O
ATOM     51   O  BGC B   4       6.909  13.089  16.8540  0.00  0.00     0.000 O
ATOM     53  HD  BGC B   4       7.354  12.495  16.4080  0.00  0.00     0.000 HD
ATOM     53   O  BGC B   4       8.271  13.354  14.3680  0.00  0.00     0.000 O
ATOM     55  HD  BGC B   4       8.716  12.760  13.9220  0.00  0.00     0.000 HD
ATOM     55   C  BGC B   4      12.371  14.498  16.9550  0.00  0.00     0.000 C
ATOM     56   O  BGC B   4      12.167  15.832  16.4870  0.00  0.00     0.000 O
ATOM     58  HD  BGC B   4      12.612  15.239  16.0410  0.00  0.00     0.000 HD
BRANCH 45 58
ATOM     58  O4  BGC B   5       8.241  14.556  18.9450  0.00  0.00     0.000 O
BRANCH 58 62
ATOM     59  C1  BGC B   5       6.771  14.593  22.8160  0.00  0.00     0.000 C
ATOM     60  C2  BGC B   5       8.270  14.772  22.6880  0.00  0.00     0.000 C
ATOM     61  C3  BGC B   5       8.642  15.157  21.2690  0.00  0.00     0.000 C
ATOM     62  C4  BGC B   5       8.075  14.131  20.3000  0.00  0.00     0.000 C
ATOM     63  C5  BGC B   5       6.570  13.939  20.5340  0.00  0.00     0.000 C
ATOM     64  O5  BGC B   5       6.359  13.578  21.8950  0.00  0.00     0.000 O
ATOM     65   O  BGC B   5       6.702  11.669  19.9640  0.00  0.00     0.000 O
ATOM     67  HD  BGC B   5       7.200  11.108  19.5300  0.00  0.00     0.000 HD
ATOM     67   O  BGC B   5       6.702  11.669  19.9640  0.00  0.00     0.000 O
ATOM     69  HD  BGC B   5       7.200  11.108  19.5300  0.00  0.00     0.000 HD
ENDBRANCH 58 62
ENDBRANCH 45 58
ENDBRANCH 44 48
ENDBRANCH 31 44
ENDBRANCH 30 34
ENDBRANCH 17 30
ENDBRANCH 16 20
ENDBRANCH 1 16
TORSDOF 8
ENDMDL
MODEL 80
REMARK VINA RESULT:      -0.7     11.293     16.881
ROOT
ATOM      1  C1  BGC B   1      19.746   6.541   6.7530  0.00  0.00     0.000 C
ATOM      2  C2  BGC B   1      20.416   6.486   5.3810  0.00  0.00     0.000 C
ATOM      3  C3  BGC B   1      19.757   5.424   4.5220  0.00  0.00     0.000 C
ATOM      4  C4  BGC B   1      19.705   4.091   5.2580  0.00  0.00     0.000 C
ATOM      5  C5  BGC B   1      19.000   4.303   6.5900  0.00  0.00     0.000 C
ATOM      6  O5  BGC B   1      19.781   5.249   7.3440  0.00  0.00     0.000 O
ATOM      7   O  BGC B   1      20.283   7.765   4.7380  0.00  0.00     0.000 O
ATOM      9  HD  BGC B   1      20.277   7.781   3.8720  0.00  0.00     0.000 HD
ATOM      9   O  BGC B   1      20.486   5.302   3.2970  0.00  0.00     0.000 O
ATOM     11  HD  BGC B   1      20.480   5.319   2.4310  0.00  0.00     0.000 HD
ATOM     11   O  BGC B   1      18.995   3.150   4.4830  0.00  0.00     0.000 O
ATOM     13  HD  BGC B   1      18.988   3.166   3.6170  0.00  0.00     0.000 HD
ATOM     13   C  BGC B   1      18.825   3.045   7.4270  0.00  0.00     0.000 C
ATOM     14   O  BGC B   1      20.060   2.378   7.6690  0.00  0.00     0.000 O
ATOM     16  HD  BGC B   1      20.053   2.394   6.8040  0.00  0.00     0.000 HD
ENDROOT
BRANCH 1 16
ATOM     16  O4  BGC B   2      20.588   7.348   7.5750  0.00  0.00     0.000 O
BRANCH 16 20
ATOM     17  C1  BGC B   2      20.461  10.024  10.6350  0.00  0.00     0.000 C
ATOM     18  C2  BGC B   2      20.034   8.619  11.0330  0.00  0.00     0.000 C
ATOM     19  C3  BGC B   2      20.464   7.651   9.9330  0.00  0.00     0.000 C
ATOM     20  C4  BGC B   2      19.934   8.106   8.5890  0.00  0.00     0.000 C
ATOM     21  C5  BGC B   2      20.226   9.583   8.3170  0.00  0.00     0.000 C
ATOM     22  O5  BGC B   2      19.749  10.354   9.4270  0.00  0.00     0.000 O
ATOM     23   O  BGC B   2      20.667   8.241  12.2670  0.00  0.00     0.000 O
ATOM     25  HD  BGC B   2      20.813   8.044  11.4360  0.00  0.00     0.000 HD
ATOM     25   O  BGC B   2      19.995   6.341  10.2300  0.00  0.00     0.000 O
ATOM     27  HD  BGC B   2      20.141   6.144   9.4000  0.00  0.00     0.000 HD
ATOM     27   C  BGC B   2      19.538  10.103   7.0610  0.00  0.00     0.000 C
ATOM     28   O  BGC B   2      18.131   9.919   7.0740  0.00  0.00     0.000 O
ATOM     30  HD  BGC B   2      18.278   9.722   6.2430  0.00  0.00     0.000 HD
BRANCH 17 30
ATOM     30  O4  BGC B   3      19.948  10.902  11.6180  0.00  0.00     0.000 O
BRANCH 30 34
ATOM     31  C1  BGC B   3      20.896  14.442  13.4880  0.00  0.00     0.000 C
ATOM     32  C2  BGC B   3      20.530  14.583  12.0110  0.00  0.00     0.000 C
ATOM     33  C3  BGC B   3      19.831  13.315  11.5550  0.00  0.00     0.000 C
ATOM     34  C4  BGC B   3      20.706  12.095  11.8440  0.00  0.00     0.000 C
ATOM     35  C5  BGC B   3      21.150  12.095  13.2960  0.00  0.00     0.000 C
ATOM     36  O5  BGC B   3      21.785  13.342  13.5990  0.00  0.00     0.000 O
ATOM     37   O  BGC B   3      19.633  15.678  11.8450  0.00  0.00     0.000 O
ATOM     39  HD  BGC B   3      19.725  15.602  10.9880  0.00  0.00     0.000 HD
ATOM     39   O  BGC B   3      19.565  13.423  10.1650  0.00  0.00     0.000 O
ATOM     41  HD  BGC B   3      19.657  13.347   9.3070  0.00  0.00     0.000 HD
ATOM     41   C  BGC B   3      22.104  10.961  13.6520  0.00  0.00     0.000 C
ATOM     42   O  BGC B   3      23.248  11.014  12.8340  0.00  0.00     0.000 O
ATOM     44  HD  BGC B   3      23.340  10.938  11.9760  0.00  0.00     0.000 HD
BRANCH 31 44
ATOM     44  O4  BGC B   4      21.628  15.585  13.8460  0.00  0.00     0.000 O
BRANCH 44 48
ATOM     45  C1  BGC B   4      22.412  17.978  17.0810  0.00  0.00     0.000 C
ATOM     46  C2  BGC B   4      23.068  16.605  17.1290  0.00  0.00     0.000 C
ATOM     47  C3  BGC B   4      23.041  15.986  15.7530  0.00  0.00     0.000 C
ATOM     48  C4  BGC B   4      21.611  15.969  15.2060  0.00  0.00     0.000 C
ATOM     49  C5  BGC B   4      20.986  17.368  15.2860  0.00  0.00     0.000 C
ATOM     50  O5  BGC B   4      21.061  17.855  16.6340  0.00  0.00     0.000 O
ATOM     51   O  BGC B   4      24.436  16.727  17.5630  0.00  0.00     0.000 O
ATOM     53  HD  BGC B   4      24.570  16.623  16.7140  0.00  0.00     0.000 HD
ATOM     53   O  BGC B   4      23.542  14.645  15.8400  0.00  0.00     0.000 O
ATOM     55  HD  BGC B   4      23.677  14.541  14.9910  0.00  0.00     0.000 HD
ATOM     55   C  BGC B   4      19.526  17.428  14.8730  0.00  0.00     0.000 C
ATOM     56   O  BGC B   4      18.809  16.482  15.6700  0.00  0.00     0.000 O
ATOM     58  HD  BGC B   4      18.944  16.379  14.8200  0.00  0.00     0.000 HD
BRANCH 45 58
ATOM     58  O4  BGC B   5      22.245  18.379  18.4410  0.00  0.00     0.000 O
BRANCH 58 62
ATOM     59  C1  BGC B   5      22.067  21.813  20.7480  0.00  0.00     0.000 C
ATOM     60  C2  BGC B   5      21.520  21.946  19.3410  0.00  0.00     0.000 C
ATOM     61  C3  BGC B   5      21.249  20.579  18.7440  0.00  0.00     0.000 C
ATOM     62  C4  BGC B   5      22.509  19.732  18.8190  0.00  0.00     0.000 C
ATOM     63  C5  BGC B   5      23.056  19.703  20.2540  0.00  0.00     0.000 C
ATOM     64  O5  BGC B   5      23.271  21.041  20.6920  0.00  0.00     0.000 O
ATOM     65   O  BGC B   5      25.268  19.613  19.4810  0.00  0.00     0.000 O
ATOM     67  HD  BGC B   5      25.732  19.399  18.7820  0.00  0.00     0.000 HD
ATOM     67   O  BGC B   5      25.268  19.613  19.4810  0.00  0.00     0.000 O
ATOM     69  HD  BGC B   5      25.732  19.399  18.7820  0.00  0.00     0.000 HD
ENDBRANCH 58 62
ENDBRANCH 45 58
ENDBRANCH 44 48
ENDBRANCH 31 44
ENDBRANCH 30 34
ENDBRANCH 17 30
ENDBRANCH 16 20
ENDBRANCH 1 16
TORSDOF 8
ENDMDL
MODEL 81
REMARK VINA RESULT:      -0.6     13.867     18.821
ROOT
ATOM      1  C1  BGC B   1      20.088   7.279  24.2650  0.00  0.00     0.000 C
ATOM      2  C2  BGC B   1      20.732   6.388  25.3260  0.00  0.00     0.000 C
ATOM      3  C3  BGC B   1      20.148   6.698  26.6910  0.00  0.00     0.000 C
ATOM      4  C4  BGC B   1      20.224   8.191  26.9830  0.00  0.00     0.000 C
ATOM      5  C5  BGC B   1      19.531   8.940  25.8540  0.00  0.00     0.000 C
ATOM      6  O5  BGC B   1      20.244   8.641  24.6390  0.00  0.00     0.000 O
ATOM      7   O  BGC B   1      20.478   5.011  25.0040  0.00  0.00     0.000 O
ATOM      9  HD  BGC B   1      20.452   4.443  25.6580  0.00  0.00     0.000 HD
ATOM      9   O  BGC B   1      20.860   5.948  27.6790  0.00  0.00     0.000 O
ATOM     11  HD  BGC B   1      20.834   5.380  28.3330  0.00  0.00     0.000 HD
ATOM     11   O  BGC B   1      19.581   8.467  28.2090  0.00  0.00     0.000 O
ATOM     13  HD  BGC B   1      19.556   7.900  28.8620  0.00  0.00     0.000 HD
ATOM     13   C  BGC B   1      19.481  10.451  26.0260  0.00  0.00     0.000 C
ATOM     14   O  BGC B   1      20.773  11.018  26.2190  0.00  0.00     0.000 O
ATOM     16  HD  BGC B   1      20.747  10.451  26.8730  0.00  0.00     0.000 HD
ENDROOT
BRANCH 1 16
ATOM     16  O4  BGC B   2      20.874   7.125  23.0850  0.00  0.00     0.000 O
BRANCH 16 20
ATOM     17  C1  BGC B   2      20.558   7.134  19.0310  0.00  0.00     0.000 C
ATOM     18  C2  BGC B   2      20.539   8.524  19.6480  0.00  0.00     0.000 C
ATOM     19  C3  BGC B   2      21.024   8.420  21.0920  0.00  0.00     0.000 C
ATOM     20  C4  BGC B   2      20.212   7.390  21.8510  0.00  0.00     0.000 C
ATOM     21  C5  BGC B   2      20.101   6.065  21.0970  0.00  0.00     0.000 C
ATOM     22  O5  BGC B   2      19.620   6.332  19.7730  0.00  0.00     0.000 O
ATOM     23   O  BGC B   2      21.416   9.400  18.9200  0.00  0.00     0.000 O
ATOM     25  HD  BGC B   2      21.483   8.981  19.6750  0.00  0.00     0.000 HD
ATOM     25   O  BGC B   2      20.929   9.689  21.7280  0.00  0.00     0.000 O
ATOM     27  HD  BGC B   2      20.996   9.271  22.4830  0.00  0.00     0.000 HD
ATOM     27   C  BGC B   2      19.135   5.087  21.7530  0.00  0.00     0.000 C
ATOM     28   O  BGC B   2      17.830   5.615  21.9240  0.00  0.00     0.000 O
ATOM     30  HD  BGC B   2      17.897   5.197  22.6790  0.00  0.00     0.000 HD
BRANCH 17 30
ATOM     30  O4  BGC B   3      19.997   7.253  17.7370  0.00  0.00     0.000 O
BRANCH 30 34
ATOM     31  C1  BGC B   3      20.287   5.524  14.0150  0.00  0.00     0.000 C
ATOM     32  C2  BGC B   3      19.565   4.670  15.0570  0.00  0.00     0.000 C
ATOM     33  C3  BGC B   3      19.177   5.552  16.2310  0.00  0.00     0.000 C
ATOM     34  C4  BGC B   3      20.409   6.264  16.7870  0.00  0.00     0.000 C
ATOM     35  C5  BGC B   3      21.157   6.975  15.6720  0.00  0.00     0.000 C
ATOM     36  O5  BGC B   3      21.456   6.041  14.6300  0.00  0.00     0.000 O
ATOM     37   O  BGC B   3      18.376   4.127  14.4870  0.00  0.00     0.000 O
ATOM     39  HD  BGC B   3      18.285   3.631  15.1900  0.00  0.00     0.000 HD
ATOM     39   O  BGC B   3      18.577   4.736  17.2260  0.00  0.00     0.000 O
ATOM     41  HD  BGC B   3      18.486   4.240  17.9300  0.00  0.00     0.000 HD
ATOM     41   C  BGC B   3      22.453   7.639  16.1220  0.00  0.00     0.000 C
ATOM     42   O  BGC B   3      23.312   6.685  16.7000  0.00  0.00     0.000 O
ATOM     44  HD  BGC B   3      23.221   6.188  17.4040  0.00  0.00     0.000 HD
BRANCH 31 44
ATOM     44  O4  BGC B   4      20.719   4.659  12.9960  0.00  0.00     0.000 O
BRANCH 44 48
ATOM     45  C1  BGC B   4      21.408   4.637   8.9550  0.00  0.00     0.000 C
ATOM     46  C2  BGC B   4      22.524   5.250   9.7890  0.00  0.00     0.000 C
ATOM     47  C3  BGC B   4      22.348   4.854  11.2340  0.00  0.00     0.000 C
ATOM     48  C4  BGC B   4      20.942   5.221  11.7180  0.00  0.00     0.000 C
ATOM     49  C5  BGC B   4      19.880   4.652  10.7690  0.00  0.00     0.000 C
ATOM     50  O5  BGC B   4      20.140   5.094   9.4290  0.00  0.00     0.000 O
ATOM     51   O  BGC B   4      23.803   4.778   9.3250  0.00  0.00     0.000 O
ATOM     53  HD  BGC B   4      23.721   4.280  10.0280  0.00  0.00     0.000 HD
ATOM     53   O  BGC B   4      23.327   5.544  12.0250  0.00  0.00     0.000 O
ATOM     55  HD  BGC B   4      23.244   5.046  12.7290  0.00  0.00     0.000 HD
ATOM     55   C  BGC B   4      18.456   5.061  11.1030  0.00  0.00     0.000 C
ATOM     56   O  BGC B   4      18.413   6.488  11.1490  0.00  0.00     0.000 O
ATOM     58  HD  BGC B   4      18.330   5.990  11.8530  0.00  0.00     0.000 HD
BRANCH 45 58
ATOM     58  O4  BGC B   5      21.492   5.257   7.6720  0.00  0.00     0.000 O
BRANCH 58 62
ATOM     59  C1  BGC B   5      21.453   4.371   3.6270  0.00  0.00     0.000 C
ATOM     60  C2  BGC B   5      20.102   4.335   4.3140  0.00  0.00     0.000 C
ATOM     61  C3  BGC B   5      20.161   5.061   5.6440  0.00  0.00     0.000 C
ATOM     62  C4  BGC B   5      21.281   4.479   6.4920  0.00  0.00     0.000 C
ATOM     63  C5  BGC B   5      22.603   4.471   5.7110  0.00  0.00     0.000 C
ATOM     64  O5  BGC B   5      22.414   3.759   4.4930  0.00  0.00     0.000 O
ATOM     65   O  BGC B   5      23.287   2.486   6.7540  0.00  0.00     0.000 O
ATOM     67  HD  BGC B   5      23.140   2.008   7.4610  0.00  0.00     0.000 HD
ATOM     67   O  BGC B   5      23.287   2.486   6.7540  0.00  0.00     0.000 O
ATOM     69  HD  BGC B   5      23.140   2.008   7.4610  0.00  0.00     0.000 HD
ENDBRANCH 58 62
ENDBRANCH 45 58
ENDBRANCH 44 48
ENDBRANCH 31 44
ENDBRANCH 30 34
ENDBRANCH 17 30
ENDBRANCH 16 20
ENDBRANCH 1 16
TORSDOF 8
ENDMDL
MODEL 82
REMARK VINA RESULT:      -0.6     12.546     18.544
ROOT
ATOM      1  C1  BGC B   1      17.189  13.142   4.0010  0.00  0.00     0.000 C
ATOM      2  C2  BGC B   1      18.483  12.824   4.7490  0.00  0.00     0.000 C
ATOM      3  C3  BGC B   1      19.424  12.041   3.8540  0.00  0.00     0.000 C
ATOM      4  C4  BGC B   1      18.718  10.828   3.2610  0.00  0.00     0.000 C
ATOM      5  C5  BGC B   1      17.465  11.304   2.5400  0.00  0.00     0.000 C
ATOM      6  O5  BGC B   1      16.619  11.934   3.5180  0.00  0.00     0.000 O
ATOM      7   O  BGC B   1      19.117  14.053   5.1410  0.00  0.00     0.000 O
ATOM      9  HD  BGC B   1      19.978  14.051   5.2310  0.00  0.00     0.000 HD
ATOM      9   O  BGC B   1      20.566  11.643   4.6180  0.00  0.00     0.000 O
ATOM     11  HD  BGC B   1      21.427  11.641   4.7090  0.00  0.00     0.000 HD
ATOM     11   O  BGC B   1      19.579  10.177   2.3520  0.00  0.00     0.000 O
ATOM     13  HD  BGC B   1      20.440  10.175   2.4420  0.00  0.00     0.000 HD
ATOM     13   C  BGC B   1      16.671  10.206   1.8470  0.00  0.00     0.000 C
ATOM     14   O  BGC B   1      16.309   9.155   2.7380  0.00  0.00     0.000 O
ATOM     16  HD  BGC B   1      17.170   9.153   2.8280  0.00  0.00     0.000 HD
ENDROOT
BRANCH 1 16
ATOM     16  O4  BGC B   2      16.270  13.622   4.9810  0.00  0.00     0.000 O
BRANCH 16 20
ATOM     17  C1  BGC B   2      13.290  16.336   5.5150  0.00  0.00     0.000 C
ATOM     18  C2  BGC B   2      13.038  15.369   4.3680  0.00  0.00     0.000 C
ATOM     19  C3  BGC B   2      14.013  14.201   4.4950  0.00  0.00     0.000 C
ATOM     20  C4  BGC B   2      15.438  14.708   4.5820  0.00  0.00     0.000 C
ATOM     21  C5  BGC B   2      15.600  15.816   5.6230  0.00  0.00     0.000 C
ATOM     22  O5  BGC B   2      14.630  16.837   5.3570  0.00  0.00     0.000 O
ATOM     23   O  BGC B   2      11.692  14.868   4.4300  0.00  0.00     0.000 O
ATOM     25  HD  BGC B   2      12.463  14.536   4.6420  0.00  0.00     0.000 HD
ATOM     25   O  BGC B   2      13.868  13.326   3.3820  0.00  0.00     0.000 O
ATOM     27  HD  BGC B   2      14.639  12.994   3.5940  0.00  0.00     0.000 HD
ATOM     27   C  BGC B   2      16.978  16.465   5.5900  0.00  0.00     0.000 C
ATOM     28   O  BGC B   2      17.322  16.991   4.3190  0.00  0.00     0.000 O
ATOM     30  HD  BGC B   2      18.093  16.659   4.5310  0.00  0.00     0.000 HD
BRANCH 17 30
ATOM     30  O4  BGC B   3      12.450  17.454   5.3010  0.00  0.00     0.000 O
BRANCH 30 34
ATOM     31  C1  BGC B   3      10.388  20.300   7.4400  0.00  0.00     0.000 C
ATOM     32  C2  BGC B   3      11.906  20.471   7.4560  0.00  0.00     0.000 C
ATOM     33  C3  BGC B   3      12.506  19.635   6.3390  0.00  0.00     0.000 C
ATOM     34  C4  BGC B   3      12.065  18.178   6.4740  0.00  0.00     0.000 C
ATOM     35  C5  BGC B   3      10.554  18.093   6.5970  0.00  0.00     0.000 C
ATOM     36  O5  BGC B   3      10.116  18.927   7.6750  0.00  0.00     0.000 O
ATOM     37   O  BGC B   3      12.233  21.839   7.2210  0.00  0.00     0.000 O
ATOM     39  HD  BGC B   3      13.057  21.659   7.4190  0.00  0.00     0.000 HD
ATOM     39   O  BGC B   3      13.921  19.739   6.4100  0.00  0.00     0.000 O
ATOM     41  HD  BGC B   3      14.744  19.559   6.6080  0.00  0.00     0.000 HD
ATOM     41   C  BGC B   3      10.030  16.680   6.8280  0.00  0.00     0.000 C
ATOM     42   O  BGC B   3      10.605  16.133   7.9910  0.00  0.00     0.000 O
ATOM     44  HD  BGC B   3      11.429  15.953   8.1880  0.00  0.00     0.000 HD
BRANCH 31 44
ATOM     44  O4  BGC B   4       9.879  21.002   8.5450  0.00  0.00     0.000 O
BRANCH 44 48
ATOM     45  C1  BGC B   4       6.592  23.152   9.7190  0.00  0.00     0.000 C
ATOM     46  C2  BGC B   4       6.308  21.703   9.3510  0.00  0.00     0.000 C
ATOM     47  C3  BGC B   4       7.603  20.928   9.3230  0.00  0.00     0.000 C
ATOM     48  C4  BGC B   4       8.613  21.614   8.3990  0.00  0.00     0.000 C
ATOM     49  C5  BGC B   4       8.766  23.094   8.7710  0.00  0.00     0.000 C
ATOM     50  O5  BGC B   4       7.480  23.731   8.7620  0.00  0.00     0.000 O
ATOM     51   O  BGC B   4       5.426  21.110  10.3230  0.00  0.00     0.000 O
ATOM     53  HD  BGC B   4       6.175  20.765  10.5890  0.00  0.00     0.000 HD
ATOM     53   O  BGC B   4       7.336  19.600   8.8490  0.00  0.00     0.000 O
ATOM     55  HD  BGC B   4       8.085  19.255   9.1150  0.00  0.00     0.000 HD
ATOM     55   C  BGC B   4       9.662  23.887   7.8370  0.00  0.00     0.000 C
ATOM     56   O  BGC B   4       9.158  23.725   6.5100  0.00  0.00     0.000 O
ATOM     58  HD  BGC B   4       9.906  23.381   6.7760  0.00  0.00     0.000 HD
BRANCH 45 58
ATOM     58  O4  BGC B   5       5.379  23.863   9.4730  0.00  0.00     0.000 O
BRANCH 58 62
ATOM     59  C1  BGC B   5       2.801  26.583  11.2340  0.00  0.00     0.000 C
ATOM     60  C2  BGC B   5       4.075  27.171  10.6610  0.00  0.00     0.000 C
ATOM     61  C3  BGC B   5       4.726  26.196   9.6990  0.00  0.00     0.000 C
ATOM     62  C4  BGC B   5       4.942  24.863  10.3970  0.00  0.00     0.000 C
ATOM     63  C5  BGC B   5       3.633  24.361  11.0230  0.00  0.00     0.000 C
ATOM     64  O5  BGC B   5       3.130  25.361  11.9020  0.00  0.00     0.000 O
ATOM     65   O  BGC B   5       4.785  23.380  12.8130  0.00  0.00     0.000 O
ATOM     67  HD  BGC B   5       5.570  23.088  13.0340  0.00  0.00     0.000 HD
ATOM     67   O  BGC B   5       4.785  23.380  12.8130  0.00  0.00     0.000 O
ATOM     69  HD  BGC B   5       5.570  23.088  13.0340  0.00  0.00     0.000 HD
ENDBRANCH 58 62
ENDBRANCH 45 58
ENDBRANCH 44 48
ENDBRANCH 31 44
ENDBRANCH 30 34
ENDBRANCH 17 30
ENDBRANCH 16 20
ENDBRANCH 1 16
TORSDOF 8
ENDMDL
MODEL 83
REMARK VINA RESULT:      -0.5     13.612     17.877
ROOT
ATOM      1  C1  BGC B   1       9.839  25.064  14.3440  0.00  0.00     0.000 C
ATOM      2  C2  BGC B   1       9.119  26.281  13.7660  0.00  0.00     0.000 C
ATOM      3  C3  BGC B   1       9.006  27.368  14.8180  0.00  0.00     0.000 C
ATOM      4  C4  BGC B   1       8.394  26.816  16.0990  0.00  0.00     0.000 C
ATOM      5  C5  BGC B   1       9.225  25.626  16.5570  0.00  0.00     0.000 C
ATOM      6  O5  BGC B   1       9.163  24.633  15.5170  0.00  0.00     0.000 O
ATOM      7   O  BGC B   1       9.864  26.783  12.6450  0.00  0.00     0.000 O
ATOM      9  HD  BGC B   1       9.795  27.627  12.4610  0.00  0.00     0.000 HD
ATOM      9   O  BGC B   1       8.214  28.438  14.2940  0.00  0.00     0.000 O
ATOM     11  HD  BGC B   1       8.145  29.281  14.1100  0.00  0.00     0.000 HD
ATOM     11   O  BGC B   1       8.397  27.816  17.0940  0.00  0.00     0.000 O
ATOM     13  HD  BGC B   1       8.328  28.660  16.9110  0.00  0.00     0.000 HD
ATOM     13   C  BGC B   1       8.765  24.990  17.8610  0.00  0.00     0.000 C
ATOM     14   O  BGC B   1       7.397  24.598  17.8210  0.00  0.00     0.000 O
ATOM     16  HD  BGC B   1       7.328  25.441  17.6370  0.00  0.00     0.000 HD
ENDROOT
BRANCH 1 16
ATOM     16  O4  BGC B   2       9.658  24.009  13.4010  0.00  0.00     0.000 O
BRANCH 16 20
ATOM     17  C1  BGC B   2      11.517  20.718  11.9010  0.00  0.00     0.000 C
ATOM     18  C2  BGC B   2      10.977  20.526  13.3100  0.00  0.00     0.000 C
ATOM     19  C3  BGC B   2      10.005  21.663  13.6160  0.00  0.00     0.000 C
ATOM     20  C4  BGC B   2      10.669  23.005  13.3810  0.00  0.00     0.000 C
ATOM     21  C5  BGC B   2      11.363  23.081  12.0200  0.00  0.00     0.000 C
ATOM     22  O5  BGC B   2      12.247  21.960  11.8960  0.00  0.00     0.000 O
ATOM     23   O  BGC B   2      10.279  19.273  13.4050  0.00  0.00     0.000 O
ATOM     25  HD  BGC B   2      10.020  20.097  13.3350  0.00  0.00     0.000 HD
ATOM     25   O  BGC B   2       9.555  21.566  14.9620  0.00  0.00     0.000 O
ATOM     27  HD  BGC B   2       9.296  22.389  14.8930  0.00  0.00     0.000 HD
ATOM     27   C  BGC B   2      12.192  24.347  11.8460  0.00  0.00     0.000 C
ATOM     28   O  BGC B   2      13.170  24.522  12.8580  0.00  0.00     0.000 O
ATOM     30  HD  BGC B   2      12.911  25.346  12.7890  0.00  0.00     0.000 HD
BRANCH 17 30
ATOM     30  O4  BGC B   3      12.494  19.715  11.6960  0.00  0.00     0.000 O
BRANCH 30 34
ATOM     31  C1  BGC B   3      14.030  17.390   8.6690  0.00  0.00     0.000 C
ATOM     32  C2  BGC B   3      14.432  18.863   8.6040  0.00  0.00     0.000 C
ATOM     33  C3  BGC B   3      14.150  19.509   9.9490  0.00  0.00     0.000 C
ATOM     34  C4  BGC B   3      12.687  19.302  10.3390  0.00  0.00     0.000 C
ATOM     35  C5  BGC B   3      12.318  17.833  10.2440  0.00  0.00     0.000 C
ATOM     36  O5  BGC B   3      12.638  17.345   8.9370  0.00  0.00     0.000 O
ATOM     37   O  BGC B   3      15.829  18.964   8.3380  0.00  0.00     0.000 O
ATOM     39  HD  BGC B   3      15.729  19.817   8.2230  0.00  0.00     0.000 HD
ATOM     39   O  BGC B   3      14.453  20.893   9.8560  0.00  0.00     0.000 O
ATOM     41  HD  BGC B   3      14.353  21.746   9.7410  0.00  0.00     0.000 HD
ATOM     41   C  BGC B   3      10.848  17.544  10.5280  0.00  0.00     0.000 C
ATOM     42   O  BGC B   3      10.030  18.269   9.6410  0.00  0.00     0.000 O
ATOM     44  HD  BGC B   3       9.930  19.121   9.5250  0.00  0.00     0.000 HD
BRANCH 31 44
ATOM     44  O4  BGC B   4      14.208  16.854   7.3840  0.00  0.00     0.000 O
BRANCH 44 48
ATOM     45  C1  BGC B   4      15.187  13.332   5.5290  0.00  0.00     0.000 C
ATOM     46  C2  BGC B   4      13.757  13.404   6.0460  0.00  0.00     0.000 C
ATOM     47  C3  BGC B   4      13.401  14.841   6.3390  0.00  0.00     0.000 C
ATOM     48  C4  BGC B   4      14.433  15.462   7.2860  0.00  0.00     0.000 C
ATOM     49  C5  BGC B   4      15.853  15.258   6.7440  0.00  0.00     0.000 C
ATOM     50  O5  BGC B   4      16.084  13.861   6.5060  0.00  0.00     0.000 O
ATOM     51   O  BGC B   4      12.848  12.887   5.0560  0.00  0.00     0.000 O
ATOM     53  HD  BGC B   4      12.715  13.734   4.9350  0.00  0.00     0.000 HD
ATOM     53   O  BGC B   4      12.101  14.880   6.9470  0.00  0.00     0.000 O
ATOM     55  HD  BGC B   4      11.968  15.727   6.8260  0.00  0.00     0.000 HD
ATOM     55   C  BGC B   4      16.954  15.739   7.6720  0.00  0.00     0.000 C
ATOM     56   O  BGC B   4      16.772  15.094   8.9340  0.00  0.00     0.000 O
ATOM     58  HD  BGC B   4      16.639  15.941   8.8130  0.00  0.00     0.000 HD
BRANCH 45 58
ATOM     58  O4  BGC B   5      15.531  11.947   5.5230  0.00  0.00     0.000 O
BRANCH 58 62
ATOM     59  C1  BGC B   5      17.433   9.060   3.2430  0.00  0.00     0.000 C
ATOM     60  C2  BGC B   5      18.325  10.167   3.7660  0.00  0.00     0.000 C
ATOM     61  C3  BGC B   5      17.643  10.911   4.8980  0.00  0.00     0.000 C
ATOM     62  C4  BGC B   5      16.283  11.406   4.4340  0.00  0.00     0.000 C
ATOM     63  C5  BGC B   5      15.460  10.253   3.8420  0.00  0.00     0.000 C
ATOM     64  O5  BGC B   5      16.206   9.645   2.7940  0.00  0.00     0.000 O
ATOM     65   O  BGC B   5      14.451  11.682   2.2820  0.00  0.00     0.000 O
ATOM     67  HD  BGC B   5      14.278  12.519   2.1430  0.00  0.00     0.000 HD
ATOM     67   O  BGC B   5      14.451  11.682   2.2820  0.00  0.00     0.000 O
ATOM     69  HD  BGC B   5      14.278  12.519   2.1430  0.00  0.00     0.000 HD
ENDBRANCH 58 62
ENDBRANCH 45 58
ENDBRANCH 44 48
ENDBRANCH 31 44
ENDBRANCH 30 34
ENDBRANCH 17 30
ENDBRANCH 16 20
ENDBRANCH 1 16
TORSDOF 8
ENDMDL
MODEL 84
REMARK VINA RESULT:      -0.5      6.081     16.411
ROOT
ATOM      1  C1  BGC B   1      21.157  15.652  10.0490  0.00  0.00     0.000 C
ATOM      2  C2  BGC B   1      21.252  16.465  11.3380  0.00  0.00     0.000 C
ATOM      3  C3  BGC B   1      22.600  17.155  11.4210  0.00  0.00     0.000 C
ATOM      4  C4  BGC B   1      23.731  16.156  11.2150  0.00  0.00     0.000 C
ATOM      5  C5  BGC B   1      23.507  15.440   9.8910  0.00  0.00     0.000 C
ATOM      6  O5  BGC B   1      22.249  14.746   9.9850  0.00  0.00     0.000 O
ATOM      7   O  BGC B   1      20.211  17.457  11.3500  0.00  0.00     0.000 O
ATOM      9  HD  BGC B   1      20.354  18.185  11.7970  0.00  0.00     0.000 HD
ATOM      9   O  BGC B   1      22.713  17.798  12.6930  0.00  0.00     0.000 O
ATOM     11  HD  BGC B   1      22.856  18.526  13.1410  0.00  0.00     0.000 HD
ATOM     11   O  BGC B   1      24.966  16.836  11.1900  0.00  0.00     0.000 O
ATOM     13  HD  BGC B   1      25.109  17.564  11.6380  0.00  0.00     0.000 HD
ATOM     13   C  BGC B   1      24.587  14.435   9.5170  0.00  0.00     0.000 C
ATOM     14   O  BGC B   1      24.793  13.457  10.5310  0.00  0.00     0.000 O
ATOM     16  HD  BGC B   1      24.935  14.185  10.9780  0.00  0.00     0.000 HD
ENDROOT
BRANCH 1 16
ATOM     16  O4  BGC B   2      19.999  14.830  10.1810  0.00  0.00     0.000 O
BRANCH 16 20
ATOM     17  C1  BGC B   2      17.399  12.742   7.8530  0.00  0.00     0.000 C
ATOM     18  C2  BGC B   2      18.575  11.914   8.3500  0.00  0.00     0.000 C
ATOM     19  C3  BGC B   2      19.262  12.677   9.4810  0.00  0.00     0.000 C
ATOM     20  C4  BGC B   2      19.629  14.075   9.0290  0.00  0.00     0.000 C
ATOM     21  C5  BGC B   2      18.459  14.800   8.3630  0.00  0.00     0.000 C
ATOM     22  O5  BGC B   2      17.940  13.965   7.3200  0.00  0.00     0.000 O
ATOM     23   O  BGC B   2      18.113  10.648   8.8490  0.00  0.00     0.000 O
ATOM     25  HD  BGC B   2      18.369  11.382   9.2300  0.00  0.00     0.000 HD
ATOM     25   O  BGC B   2      20.424  11.974   9.9030  0.00  0.00     0.000 O
ATOM     27  HD  BGC B   2      20.680  12.708  10.2850  0.00  0.00     0.000 HD
ATOM     27   C  BGC B   2      18.862  16.129   7.7370  0.00  0.00     0.000 C
ATOM     28   O  BGC B   2      19.912  16.009   6.7900  0.00  0.00     0.000 O
ATOM     30  HD  BGC B   2      20.168  16.743   7.1720  0.00  0.00     0.000 HD
BRANCH 17 30
ATOM     30  O4  BGC B   3      16.860  12.059   6.7370  0.00  0.00     0.000 O
BRANCH 30 34
ATOM     31  C1  BGC B   3      13.223  11.339   4.9550  0.00  0.00     0.000 C
ATOM     32  C2  BGC B   3      13.771  12.748   4.7320  0.00  0.00     0.000 C
ATOM     33  C3  BGC B   3      15.249  12.761   5.0790  0.00  0.00     0.000 C
ATOM     34  C4  BGC B   3      15.461  12.253   6.5050  0.00  0.00     0.000 C
ATOM     35  C5  BGC B   3      14.769  10.915   6.6980  0.00  0.00     0.000 C
ATOM     36  O5  BGC B   3      13.391  11.035   6.3300  0.00  0.00     0.000 O
ATOM     37   O  BGC B   3      13.627  13.103   3.3580  0.00  0.00     0.000 O
ATOM     39  HD  BGC B   3      13.859  13.912   3.5600  0.00  0.00     0.000 HD
ATOM     39   O  BGC B   3      15.732  14.089   4.9430  0.00  0.00     0.000 O
ATOM     41  HD  BGC B   3      15.964  14.899   5.1450  0.00  0.00     0.000 HD
ATOM     41   C  BGC B   3      14.851  10.375   8.1210  0.00  0.00     0.000 C
ATOM     42   O  BGC B   3      14.295  11.300   9.0240  0.00  0.00     0.000 O
ATOM     44  HD  BGC B   3      14.528  12.110   9.2260  0.00  0.00     0.000 HD
BRANCH 31 44
ATOM     44  O4  BGC B   4      11.838  11.390   4.7230  0.00  0.00     0.000 O
BRANCH 44 48
ATOM     45  C1  BGC B   4       8.761   9.005   3.4400  0.00  0.00     0.000 C
ATOM     46  C2  BGC B   4       9.161   8.803   4.8950  0.00  0.00     0.000 C
ATOM     47  C3  BGC B   4       9.999   9.971   5.3530  0.00  0.00     0.000 C
ATOM     48  C4  BGC B   4      11.187  10.177   4.4080  0.00  0.00     0.000 C
ATOM     49  C5  BGC B   4      10.709  10.269   2.9540  0.00  0.00     0.000 C
ATOM     50  O5  BGC B   4       9.930   9.110   2.6250  0.00  0.00     0.000 O
ATOM     51   O  BGC B   4       7.986   8.714   5.7220  0.00  0.00     0.000 O
ATOM     53  HD  BGC B   4       8.218   9.529   5.9010  0.00  0.00     0.000 HD
ATOM     53   O  BGC B   4      10.477   9.705   6.6800  0.00  0.00     0.000 O
ATOM     55  HD  BGC B   4      10.710  10.519   6.8590  0.00  0.00     0.000 HD
ATOM     55   C  BGC B   4      11.827  10.357   1.9300  0.00  0.00     0.000 C
ATOM     56   O  BGC B   4      12.691   9.238   2.1310  0.00  0.00     0.000 O
ATOM     58  HD  BGC B   4      12.924  10.052   2.3110  0.00  0.00     0.000 HD
BRANCH 45 58
ATOM     58  O4  BGC B   5       8.204   7.763   3.0110  0.00  0.00     0.000 O
BRANCH 58 62
ATOM     59  C1  BGC B   5       5.217   6.197   0.6090  0.00  0.00     0.000 C
ATOM     60  C2  BGC B   5       6.422   6.748  -0.1270  0.00  0.00     0.000 C
ATOM     61  C3  BGC B   5       7.598   6.902   0.8170  0.00  0.00     0.000 C
ATOM     62  C4  BGC B   5       7.185   7.751   2.0090  0.00  0.00     0.000 C
ATOM     63  C5  BGC B   5       5.915   7.185   2.6610  0.00  0.00     0.000 C
ATOM     64  O5  BGC B   5       4.892   7.095   1.6750  0.00  0.00     0.000 O
ATOM     65   O  BGC B   5       5.166   9.333   3.2260  0.00  0.00     0.000 O
ATOM     67  HD  BGC B   5       5.455  10.140   3.3520  0.00  0.00     0.000 HD
ATOM     67   O  BGC B   5       5.166   9.333   3.2260  0.00  0.00     0.000 O
ATOM     69  HD  BGC B   5       5.455  10.140   3.3520  0.00  0.00     0.000 HD
ENDBRANCH 58 62
ENDBRANCH 45 58
ENDBRANCH 44 48
ENDBRANCH 31 44
ENDBRANCH 30 34
ENDBRANCH 17 30
ENDBRANCH 16 20
ENDBRANCH 1 16
TORSDOF 8
ENDMDL
MODEL 85
REMARK VINA RESULT:      -0.4     11.009     16.263
ROOT
ATOM      1  C1  BGC B   1      16.361  12.051   4.5560  0.00  0.00     0.000 C
ATOM      2  C2  BGC B   1      15.786  10.696   4.1460  0.00  0.00     0.000 C
ATOM      3  C3  BGC B   1      15.526  10.671   2.6530  0.00  0.00     0.000 C
ATOM      4  C4  BGC B   1      14.687  11.871   2.2310  0.00  0.00     0.000 C
ATOM      5  C5  BGC B   1      15.392  13.138   2.6930  0.00  0.00     0.000 C
ATOM      6  O5  BGC B   1      15.481  13.082   4.1280  0.00  0.00     0.000 O
ATOM      7   O  BGC B   1      16.728   9.662   4.4800  0.00  0.00     0.000 O
ATOM      9  HD  BGC B   1      16.716   8.938   4.0050  0.00  0.00     0.000 HD
ATOM      9   O  BGC B   1      14.867   9.446   2.3190  0.00  0.00     0.000 O
ATOM     11  HD  BGC B   1      14.855   8.722   1.8440  0.00  0.00     0.000 HD
ATOM     11   O  BGC B   1      14.548  11.882   0.8270  0.00  0.00     0.000 O
ATOM     13  HD  BGC B   1      14.536  11.158   0.3520  0.00  0.00     0.000 HD
ATOM     13   C  BGC B   1      14.697  14.434   2.3020  0.00  0.00     0.000 C
ATOM     14   O  BGC B   1      13.345  14.480   2.7470  0.00  0.00     0.000 O
ATOM     16  HD  BGC B   1      13.333  13.756   2.2720  0.00  0.00     0.000 HD
ENDROOT
BRANCH 1 16
ATOM     16  O4  BGC B   2      16.314  12.089   5.9810  0.00  0.00     0.000 O
BRANCH 16 20
ATOM     17  C1  BGC B   2      18.319  13.581   9.1890  0.00  0.00     0.000 C
ATOM     18  C2  BGC B   2      17.470  14.614   8.4640  0.00  0.00     0.000 C
ATOM     19  C3  BGC B   2      16.504  13.883   7.5350  0.00  0.00     0.000 C
ATOM     20  C4  BGC B   2      17.260  12.944   6.6180  0.00  0.00     0.000 C
ATOM     21  C5  BGC B   2      18.243  12.053   7.3780  0.00  0.00     0.000 C
ATOM     22  O5  BGC B   2      19.084  12.886   8.1860  0.00  0.00     0.000 O
ATOM     23   O  BGC B   2      16.716  15.387   9.4130  0.00  0.00     0.000 O
ATOM     25  HD  BGC B   2      16.514  14.735   8.8800  0.00  0.00     0.000 HD
ATOM     25   O  BGC B   2      15.760  14.825   6.7710  0.00  0.00     0.000 O
ATOM     27  HD  BGC B   2      15.559  14.173   6.2380  0.00  0.00     0.000 HD
ATOM     27   C  BGC B   2      19.143  11.240   6.4560  0.00  0.00     0.000 C
ATOM     28   O  BGC B   2      19.877  12.037   5.5410  0.00  0.00     0.000 O
ATOM     30  HD  BGC B   2      19.675  11.385   5.0080  0.00  0.00     0.000 HD
BRANCH 17 30
ATOM     30  O4  BGC B   3      19.273  14.296   9.9510  0.00  0.00     0.000 O
BRANCH 30 34
ATOM     31  C1  BGC B   3      21.402  13.958  13.4550  0.00  0.00     0.000 C
ATOM     32  C2  BGC B   3      21.835  12.991  12.3540  0.00  0.00     0.000 C
ATOM     33  C3  BGC B   3      21.273  13.473  11.0280  0.00  0.00     0.000 C
ATOM     34  C4  BGC B   3      19.756  13.633  11.1240  0.00  0.00     0.000 C
ATOM     35  C5  BGC B   3      19.390  14.488  12.3240  0.00  0.00     0.000 C
ATOM     36  O5  BGC B   3      19.984  13.934  13.5030  0.00  0.00     0.000 O
ATOM     37   O  BGC B   3      23.258  12.979  12.2630  0.00  0.00     0.000 O
ATOM     39  HD  BGC B   3      23.202  12.305  11.7230  0.00  0.00     0.000 HD
ATOM     39   O  BGC B   3      21.615  12.528  10.0250  0.00  0.00     0.000 O
ATOM     41  HD  BGC B   3      21.558  11.855   9.4840  0.00  0.00     0.000 HD
ATOM     41   C  BGC B   3      17.889  14.627  12.5510  0.00  0.00     0.000 C
ATOM     42   O  BGC B   3      17.303  13.356  12.7120  0.00  0.00     0.000 O
ATOM     44  HD  BGC B   3      17.247  12.682  12.1710  0.00  0.00     0.000 HD
BRANCH 31 44
ATOM     44  O4  BGC B   4      21.851  13.426  14.6750  0.00  0.00     0.000 O
BRANCH 44 48
ATOM     45  C1  BGC B   4      23.269  14.638  18.3260  0.00  0.00     0.000 C
ATOM     46  C2  BGC B   4      21.761  14.760  18.1540  0.00  0.00     0.000 C
ATOM     47  C3  BGC B   4      21.322  13.940  16.9660  0.00  0.00     0.000 C
ATOM     48  C4  BGC B   4      22.120  14.338  15.7210  0.00  0.00     0.000 C
ATOM     49  C5  BGC B   4      23.626  14.287  16.0070  0.00  0.00     0.000 C
ATOM     50  O5  BGC B   4      23.931  15.102  17.1480  0.00  0.00     0.000 O
ATOM     51   O  BGC B   4      21.090  14.277  19.3330  0.00  0.00     0.000 O
ATOM     53  HD  BGC B   4      20.968  13.593  18.8160  0.00  0.00     0.000 HD
ATOM     53   O  BGC B   4      19.924  14.168  16.7390  0.00  0.00     0.000 O
ATOM     55  HD  BGC B   4      19.802  13.484  16.2220  0.00  0.00     0.000 HD
ATOM     55   C  BGC B   4      24.498  14.778  14.8650  0.00  0.00     0.000 C
ATOM     56   O  BGC B   4      24.070  16.097  14.5260  0.00  0.00     0.000 O
ATOM     58  HD  BGC B   4      23.947  15.414  14.0080  0.00  0.00     0.000 HD
BRANCH 45 58
ATOM     58  O4  BGC B   5      23.634  15.628  19.2870  0.00  0.00     0.000 O
BRANCH 58 62
ATOM     59  C1  BGC B   5      26.205  16.132  22.4940  0.00  0.00     0.000 C
ATOM     60  C2  BGC B   5      26.752  16.562  21.1480  0.00  0.00     0.000 C
ATOM     61  C3  BGC B   5      25.628  16.729  20.1450  0.00  0.00     0.000 C
ATOM     62  C4  BGC B   5      24.812  15.448  20.0780  0.00  0.00     0.000 C
ATOM     63  C5  BGC B   5      24.355  15.024  21.4810  0.00  0.00     0.000 C
ATOM     64  O5  BGC B   5      25.499  14.899  22.3190  0.00  0.00     0.000 O
ATOM     65   O  BGC B   5      24.527  12.753  20.9250  0.00  0.00     0.000 O
ATOM     67  HD  BGC B   5      24.541  12.223  20.2400  0.00  0.00     0.000 HD
ATOM     67   O  BGC B   5      24.527  12.753  20.9250  0.00  0.00     0.000 O
ATOM     69  HD  BGC B   5      24.541  12.223  20.2400  0.00  0.00     0.000 HD
ENDBRANCH 58 62
ENDBRANCH 45 58
ENDBRANCH 44 48
ENDBRANCH 31 44
ENDBRANCH 30 34
ENDBRANCH 17 30
ENDBRANCH 16 20
ENDBRANCH 1 16
TORSDOF 8
ENDMDL
MODEL 86
REMARK VINA RESULT:      -0.4     12.961     18.448
ROOT
ATOM      1  C1  BGC B   1      17.656  13.003   5.7520  0.00  0.00     0.000 C
ATOM      2  C2  BGC B   1      18.732  11.922   5.6520  0.00  0.00     0.000 C
ATOM      3  C3  BGC B   1      19.249  11.832   4.2290  0.00  0.00     0.000 C
ATOM      4  C4  BGC B   1      18.097  11.675   3.2450  0.00  0.00     0.000 C
ATOM      5  C5  BGC B   1      17.124  12.826   3.4550  0.00  0.00     0.000 C
ATOM      6  O5  BGC B   1      16.632  12.734   4.8050  0.00  0.00     0.000 O
ATOM      7   O  BGC B   1      19.819  12.254   6.5310  0.00  0.00     0.000 O
ATOM      9  HD  BGC B   1      20.608  11.964   6.3220  0.00  0.00     0.000 HD
ATOM      9   O  BGC B   1      20.154  10.728   4.1350  0.00  0.00     0.000 O
ATOM     11  HD  BGC B   1      20.943  10.438   3.9260  0.00  0.00     0.000 HD
ATOM     11   O  BGC B   1      18.594  11.701   1.9250  0.00  0.00     0.000 O
ATOM     13  HD  BGC B   1      19.383  11.411   1.7170  0.00  0.00     0.000 HD
ATOM     13   C  BGC B   1      15.934  12.838   2.5070  0.00  0.00     0.000 C
ATOM     14   O  BGC B   1      15.203  11.615   2.5390  0.00  0.00     0.000 O
ATOM     16  HD  BGC B   1      15.992  11.326   2.3300  0.00  0.00     0.000 HD
ENDROOT
BRANCH 1 16
ATOM     16  O4  BGC B   2      17.039  12.833   7.0260  0.00  0.00     0.000 O
BRANCH 16 20
ATOM     17  C1  BGC B   2      15.305  14.952  10.0340  0.00  0.00     0.000 C
ATOM     18  C2  BGC B   2      14.422  14.800   8.8040  0.00  0.00     0.000 C
ATOM     19  C3  BGC B   2      15.010  13.707   7.9160  0.00  0.00     0.000 C
ATOM     20  C4  BGC B   2      16.464  14.001   7.6060  0.00  0.00     0.000 C
ATOM     21  C5  BGC B   2      17.271  14.334   8.8620  0.00  0.00     0.000 C
ATOM     22  O5  BGC B   2      16.599  15.382   9.5710  0.00  0.00     0.000 O
ATOM     23   O  BGC B   2      13.091  14.423   9.1950  0.00  0.00     0.000 O
ATOM     25  HD  BGC B   2      13.761  13.987   8.8620  0.00  0.00     0.000 HD
ATOM     25   O  BGC B   2      14.261  13.606   6.7110  0.00  0.00     0.000 O
ATOM     27  HD  BGC B   2      14.931  13.171   6.3770  0.00  0.00     0.000 HD
ATOM     27   C  BGC B   2      18.683  14.815   8.5500  0.00  0.00     0.000 C
ATOM     28   O  BGC B   2      18.716  15.939   7.6850  0.00  0.00     0.000 O
ATOM     30  HD  BGC B   2      19.386  15.503   7.3520  0.00  0.00     0.000 HD
BRANCH 17 30
ATOM     30  O4  BGC B   3      14.795  16.045  10.7730  0.00  0.00     0.000 O
BRANCH 30 34
ATOM     31  C1  BGC B   3      14.468  17.333  14.6660  0.00  0.00     0.000 C
ATOM     32  C2  BGC B   3      15.883  17.397  14.0930  0.00  0.00     0.000 C
ATOM     33  C3  BGC B   3      15.806  17.288  12.5810  0.00  0.00     0.000 C
ATOM     34  C4  BGC B   3      15.054  16.020  12.1800  0.00  0.00     0.000 C
ATOM     35  C5  BGC B   3      13.716  15.950  12.8970  0.00  0.00     0.000 C
ATOM     36  O5  BGC B   3      13.925  16.072  14.3070  0.00  0.00     0.000 O
ATOM     37   O  BGC B   3      16.475  18.652  14.4260  0.00  0.00     0.000 O
ATOM     39  HD  BGC B   3      17.232  18.355  14.1280  0.00  0.00     0.000 HD
ATOM     39   O  BGC B   3      17.128  17.271  12.0630  0.00  0.00     0.000 O
ATOM     41  HD  BGC B   3      17.886  16.974  11.7660  0.00  0.00     0.000 HD
ATOM     41   C  BGC B   3      12.935  14.670  12.6260  0.00  0.00     0.000 C
ATOM     42   O  BGC B   3      13.699  13.547  12.9960  0.00  0.00     0.000 O
ATOM     44  HD  BGC B   3      14.457  13.250  12.6990  0.00  0.00     0.000 HD
BRANCH 31 44
ATOM     44  O4  BGC B   4      14.586  17.333  16.0660  0.00  0.00     0.000 O
BRANCH 44 48
ATOM     45  C1  BGC B   4      12.591  18.567  19.4280  0.00  0.00     0.000 C
ATOM     46  C2  BGC B   4      11.949  17.395  18.6990  0.00  0.00     0.000 C
ATOM     47  C3  BGC B   4      12.947  16.789  17.7430  0.00  0.00     0.000 C
ATOM     48  C4  BGC B   4      13.508  17.866  16.8080  0.00  0.00     0.000 C
ATOM     49  C5  BGC B   4      14.042  19.055  17.6160  0.00  0.00     0.000 C
ATOM     50  O5  BGC B   4      13.013  19.553  18.4840  0.00  0.00     0.000 O
ATOM     51   O  BGC B   4      11.537  16.391  19.6460  0.00  0.00     0.000 O
ATOM     53  HD  BGC B   4      12.260  16.015  19.3540  0.00  0.00     0.000 HD
ATOM     53   O  BGC B   4      12.290  15.773  16.9710  0.00  0.00     0.000 O
ATOM     55  HD  BGC B   4      13.013  15.398  16.6790  0.00  0.00     0.000 HD
ATOM     55   C  BGC B   4      14.514  20.226  16.7720  0.00  0.00     0.000 C
ATOM     56   O  BGC B   4      13.436  20.609  15.9170  0.00  0.00     0.000 O
ATOM     58  HD  BGC B   4      14.159  20.233  15.6250  0.00  0.00     0.000 HD
BRANCH 45 58
ATOM     58  O4  BGC B   5      11.528  19.235  20.1070  0.00  0.00     0.000 O
BRANCH 58 62
ATOM     59  C1  BGC B   5      10.529  20.835  23.7930  0.00  0.00     0.000 C
ATOM     60  C2  BGC B   5      11.470  21.675  22.9530  0.00  0.00     0.000 C
ATOM     61  C3  BGC B   5      11.438  21.224  21.5050  0.00  0.00     0.000 C
ATOM     62  C4  BGC B   5      11.734  19.735  21.4300  0.00  0.00     0.000 C
ATOM     63  C5  BGC B   5      10.800  18.950  22.3620  0.00  0.00     0.000 C
ATOM     64  O5  BGC B   5      10.929  19.466  23.6830  0.00  0.00     0.000 O
ATOM     65   O  BGC B   5      12.475  17.375  22.8250  0.00  0.00     0.000 O
ATOM     67  HD  BGC B   5      13.214  17.060  22.5040  0.00  0.00     0.000 HD
ATOM     67   O  BGC B   5      12.475  17.375  22.8250  0.00  0.00     0.000 O
ATOM     69  HD  BGC B   5      13.214  17.060  22.5040  0.00  0.00     0.000 HD
ENDBRANCH 58 62
ENDBRANCH 45 58
ENDBRANCH 44 48
ENDBRANCH 31 44
ENDBRANCH 30 34
ENDBRANCH 17 30
ENDBRANCH 16 20
ENDBRANCH 1 16
TORSDOF 8
ENDMDL
MODEL 87
REMARK VINA RESULT:      -0.4     11.432     18.771
ROOT
ATOM      1  C1  BGC B   1      20.573  15.075   2.5490  0.00  0.00     0.000 C
ATOM      2  C2  BGC B   1      21.740  15.569   3.4020  0.00  0.00     0.000 C
ATOM      3  C3  BGC B   1      23.055  15.103   2.8070  0.00  0.00     0.000 C
ATOM      4  C4  BGC B   1      23.035  13.598   2.5680  0.00  0.00     0.000 C
ATOM      5  C5  BGC B   1      21.833  13.265   1.6960  0.00  0.00     0.000 C
ATOM      6  O5  BGC B   1      20.653  13.662   2.4190  0.00  0.00     0.000 O
ATOM      7   O  BGC B   1      21.722  17.006   3.4420  0.00  0.00     0.000 O
ATOM      9  HD  BGC B   1      22.476  17.415   3.5590  0.00  0.00     0.000 HD
ATOM      9   O  BGC B   1      24.118  15.464   3.6940  0.00  0.00     0.000 O
ATOM     11  HD  BGC B   1      24.872  15.873   3.8110  0.00  0.00     0.000 HD
ATOM     11   O  BGC B   1      24.224  13.206   1.9180  0.00  0.00     0.000 O
ATOM     13  HD  BGC B   1      24.979  13.615   2.0350  0.00  0.00     0.000 HD
ATOM     13   C  BGC B   1      21.701  11.794   1.3260  0.00  0.00     0.000 C
ATOM     14   O  BGC B   1      21.680  10.947   2.4700  0.00  0.00     0.000 O
ATOM     16  HD  BGC B   1      22.434  11.356   2.5880  0.00  0.00     0.000 HD
ENDROOT
BRANCH 1 16
ATOM     16  O4  BGC B   2      19.393  15.311   3.3140  0.00  0.00     0.000 O
BRANCH 16 20
ATOM     17  C1  BGC B   2      15.469  16.293   2.8890  0.00  0.00     0.000 C
ATOM     18  C2  BGC B   2      15.779  14.846   2.5370  0.00  0.00     0.000 C
ATOM     19  C3  BGC B   2      17.166  14.502   3.0740  0.00  0.00     0.000 C
ATOM     20  C4  BGC B   2      18.191  15.499   2.5710  0.00  0.00     0.000 C
ATOM     21  C5  BGC B   2      17.745  16.947   2.7780  0.00  0.00     0.000 C
ATOM     22  O5  BGC B   2      16.441  17.109   2.2080  0.00  0.00     0.000 O
ATOM     23   O  BGC B   2      14.811  13.972   3.1410  0.00  0.00     0.000 O
ATOM     25  HD  BGC B   2      15.629  14.181   3.3340  0.00  0.00     0.000 HD
ATOM     25   O  BGC B   2      17.526  13.183   2.6780  0.00  0.00     0.000 O
ATOM     27  HD  BGC B   2      18.344  13.392   2.8710  0.00  0.00     0.000 HD
ATOM     27   C  BGC B   2      18.673  17.955   2.1110  0.00  0.00     0.000 C
ATOM     28   O  BGC B   2      18.838  17.731   0.7200  0.00  0.00     0.000 O
ATOM     30  HD  BGC B   2      19.656  17.940   0.9130  0.00  0.00     0.000 HD
BRANCH 17 30
ATOM     30  O4  BGC B   3      14.231  16.607   2.2800  0.00  0.00     0.000 O
BRANCH 30 34
ATOM     31  C1  BGC B   3      10.931  18.979   2.9170  0.00  0.00     0.000 C
ATOM     32  C2  BGC B   3      12.175  19.735   2.4510  0.00  0.00     0.000 C
ATOM     33  C3  BGC B   3      13.169  18.740   1.8790  0.00  0.00     0.000 C
ATOM     34  C4  BGC B   3      13.477  17.650   2.9050  0.00  0.00     0.000 C
ATOM     35  C5  BGC B   3      12.189  17.040   3.4310  0.00  0.00     0.000 C
ATOM     36  O5  BGC B   3      11.341  18.078   3.9330  0.00  0.00     0.000 O
ATOM     37   O  BGC B   3      11.816  20.656   1.4240  0.00  0.00     0.000 O
ATOM     39  HD  BGC B   3      12.611  20.996   1.4730  0.00  0.00     0.000 HD
ATOM     39   O  BGC B   3      14.351  19.439   1.5210  0.00  0.00     0.000 O
ATOM     41  HD  BGC B   3      15.146  19.779   1.5700  0.00  0.00     0.000 HD
ATOM     41   C  BGC B   3      12.398  16.005   4.5300  0.00  0.00     0.000 C
ATOM     42   O  BGC B   3      13.096  16.578   5.6110  0.00  0.00     0.000 O
ATOM     44  HD  BGC B   3      13.891  16.917   5.6600  0.00  0.00     0.000 HD
BRANCH 31 44
ATOM     44  O4  BGC B   4      10.082  19.915   3.5310  0.00  0.00     0.000 O
BRANCH 44 48
ATOM     45  C1  BGC B   4       6.170  20.416   4.6480  0.00  0.00     0.000 C
ATOM     46  C2  BGC B   4       6.932  19.368   5.4470  0.00  0.00     0.000 C
ATOM     47  C3  BGC B   4       8.414  19.548   5.2270  0.00  0.00     0.000 C
ATOM     48  C4  BGC B   4       8.735  19.538   3.7290  0.00  0.00     0.000 C
ATOM     49  C5  BGC B   4       7.854  20.547   2.9820  0.00  0.00     0.000 C
ATOM     50  O5  BGC B   4       6.471  20.281   3.2580  0.00  0.00     0.000 O
ATOM     51   O  BGC B   4       6.644  19.512   6.8500  0.00  0.00     0.000 O
ATOM     53  HD  BGC B   4       7.425  19.886   6.8320  0.00  0.00     0.000 HD
ATOM     53   O  BGC B   4       9.111  18.477   5.8790  0.00  0.00     0.000 O
ATOM     55  HD  BGC B   4       9.892  18.850   5.8600  0.00  0.00     0.000 HD
ATOM     55   C  BGC B   4       8.018  20.527   1.4730  0.00  0.00     0.000 C
ATOM     56   O  BGC B   4       7.783  19.190   1.0270  0.00  0.00     0.000 O
ATOM     58  HD  BGC B   4       8.564  19.563   1.0090  0.00  0.00     0.000 HD
BRANCH 45 58
ATOM     58  O4  BGC B   5       4.798  20.025   4.6980  0.00  0.00     0.000 O
BRANCH 58 62
ATOM     59  C1  BGC B   5       1.002  21.594   5.2210  0.00  0.00     0.000 C
ATOM     60  C2  BGC B   5       1.595  21.774   3.8380  0.00  0.00     0.000 C
ATOM     61  C3  BGC B   5       2.763  20.829   3.6330  0.00  0.00     0.000 C
ATOM     62  C4  BGC B   5       3.777  21.023   4.7490  0.00  0.00     0.000 C
ATOM     63  C5  BGC B   5       3.098  20.908   6.1220  0.00  0.00     0.000 C
ATOM     64  O5  BGC B   5       2.028  21.845   6.1870  0.00  0.00     0.000 O
ATOM     65   O  BGC B   5       4.542  22.508   7.0460  0.00  0.00     0.000 O
ATOM     67  HD  BGC B   5       5.316  22.874   6.9190  0.00  0.00     0.000 HD
ATOM     67   O  BGC B   5       4.542  22.508   7.0460  0.00  0.00     0.000 O
ATOM     69  HD  BGC B   5       5.316  22.874   6.9190  0.00  0.00     0.000 HD
ENDBRANCH 58 62
ENDBRANCH 45 58
ENDBRANCH 44 48
ENDBRANCH 31 44
ENDBRANCH 30 34
ENDBRANCH 17 30
ENDBRANCH 16 20
ENDBRANCH 1 16
TORSDOF 8
ENDMDL
MODEL 88
REMARK VINA RESULT:      -0.3     13.177     20.036
ROOT
ATOM      1  C1  BGC B   1      25.548   9.528  20.8690  0.00  0.00     0.000 C
ATOM      2  C2  BGC B   1      26.157   8.510  21.8320  0.00  0.00     0.000 C
ATOM      3  C3  BGC B   1      25.633   8.742  23.2360  0.00  0.00     0.000 C
ATOM      4  C4  BGC B   1      25.821  10.197  23.6470  0.00  0.00     0.000 C
ATOM      5  C5  BGC B   1      25.152  11.083  22.6070  0.00  0.00     0.000 C
ATOM      6  O5  BGC B   1      25.809  10.840  21.3490  0.00  0.00     0.000 O
ATOM      7   O  BGC B   1      25.799   7.184  21.4060  0.00  0.00     0.000 O
ATOM      9  HD  BGC B   1      25.751   6.567  22.0110  0.00  0.00     0.000 HD
ATOM      9   O  BGC B   1      26.317   7.865  24.1350  0.00  0.00     0.000 O
ATOM     11  HD  BGC B   1      26.270   7.248  24.7410  0.00  0.00     0.000 HD
ATOM     11   O  BGC B   1      25.232  10.411  24.9120  0.00  0.00     0.000 O
ATOM     13  HD  BGC B   1      25.185   9.794  25.5170  0.00  0.00     0.000 HD
ATOM     13   C  BGC B   1      25.211  12.574  22.9040  0.00  0.00     0.000 C
ATOM     14   O  BGC B   1      26.545  13.035  23.1010  0.00  0.00     0.000 O
ATOM     16  HD  BGC B   1      26.497  12.417  23.7060  0.00  0.00     0.000 HD
ENDROOT
BRANCH 1 16
ATOM     16  O4  BGC B   2      26.289   9.422  19.6550  0.00  0.00     0.000 O
BRANCH 16 20
ATOM     17  C1  BGC B   2      25.538  10.352  15.7690  0.00  0.00     0.000 C
ATOM     18  C2  BGC B   2      26.654  11.178  16.3900  0.00  0.00     0.000 C
ATOM     19  C3  BGC B   2      27.086  10.508  17.6920  0.00  0.00     0.000 C
ATOM     20  C4  BGC B   2      25.892  10.292  18.5990  0.00  0.00     0.000 C
ATOM     21  C5  BGC B   2      24.722   9.625  17.8730  0.00  0.00     0.000 C
ATOM     22  O5  BGC B   2      24.431  10.380  16.6890  0.00  0.00     0.000 O
ATOM     23   O  BGC B   2      27.778  11.241  15.4970  0.00  0.00     0.000 O
ATOM     25  HD  BGC B   2      27.611  10.786  16.2150  0.00  0.00     0.000 HD
ATOM     25   O  BGC B   2      28.063  11.308  18.3470  0.00  0.00     0.000 O
ATOM     27  HD  BGC B   2      27.896  10.853  19.0650  0.00  0.00     0.000 HD
ATOM     27   C  BGC B   2      23.453   9.573  18.7140  0.00  0.00     0.000 C
ATOM     28   O  BGC B   2      23.029  10.847  19.1720  0.00  0.00     0.000 O
ATOM     30  HD  BGC B   2      22.862  10.392  19.8900  0.00  0.00     0.000 HD
BRANCH 17 30
ATOM     30  O4  BGC B   3      25.088  11.061  14.6300  0.00  0.00     0.000 O
BRANCH 30 34
ATOM     31  C1  BGC B   3      23.409  10.355  10.9410  0.00  0.00     0.000 C
ATOM     32  C2  BGC B   3      22.468  10.123  12.1220  0.00  0.00     0.000 C
ATOM     33  C3  BGC B   3      23.054  10.785  13.3560  0.00  0.00     0.000 C
ATOM     34  C4  BGC B   3      24.471  10.271  13.6080  0.00  0.00     0.000 C
ATOM     35  C5  BGC B   3      25.312  10.401  12.3500  0.00  0.00     0.000 C
ATOM     36  O5  BGC B   3      24.649   9.745  11.2640  0.00  0.00     0.000 O
ATOM     37   O  BGC B   3      21.203  10.721  11.8460  0.00  0.00     0.000 O
ATOM     39  HD  BGC B   3      20.884  10.331  12.5510  0.00  0.00     0.000 HD
ATOM     39   O  BGC B   3      22.213  10.499  14.4630  0.00  0.00     0.000 O
ATOM     41  HD  BGC B   3      21.894  10.109  15.1670  0.00  0.00     0.000 HD
ATOM     41   C  BGC B   3      26.718   9.827  12.4830  0.00  0.00     0.000 C
ATOM     42   O  BGC B   3      26.656   8.467  12.8420  0.00  0.00     0.000 O
ATOM     44  HD  BGC B   3      26.336   8.077  13.5460  0.00  0.00     0.000 HD
BRANCH 31 44
ATOM     44  O4  BGC B   4      22.888   9.644   9.8470  0.00  0.00     0.000 O
BRANCH 44 48
ATOM     45  C1  BGC B   4      22.649   9.842   5.7600  0.00  0.00     0.000 C
ATOM     46  C2  BGC B   4      24.004   9.407   6.2990  0.00  0.00     0.000 C
ATOM     47  C3  BGC B   4      23.862   8.995   7.7440  0.00  0.00     0.000 C
ATOM     48  C4  BGC B   4      23.205  10.117   8.5540  0.00  0.00     0.000 C
ATOM     49  C5  BGC B   4      21.898  10.568   7.8900  0.00  0.00     0.000 C
ATOM     50  O5  BGC B   4      22.151  10.939   6.5270  0.00  0.00     0.000 O
ATOM     51   O  BGC B   4      24.502   8.289   5.5390  0.00  0.00     0.000 O
ATOM     53  HD  BGC B   4      24.226   7.865   6.2420  0.00  0.00     0.000 HD
ATOM     53   O  BGC B   4      25.165   8.714   8.2750  0.00  0.00     0.000 O
ATOM     55  HD  BGC B   4      24.889   8.289   8.9770  0.00  0.00     0.000 HD
ATOM     55   C  BGC B   4      21.233  11.758   8.5580  0.00  0.00     0.000 C
ATOM     56   O  BGC B   4      22.189  12.817   8.6140  0.00  0.00     0.000 O
ATOM     58  HD  BGC B   4      21.913  12.393   9.3170  0.00  0.00     0.000 HD
BRANCH 45 58
ATOM     58  O4  BGC B   5      22.909  10.451   4.4950  0.00  0.00     0.000 O
BRANCH 58 62
ATOM     59  C1  BGC B   5      21.624  10.404   0.5590  0.00  0.00     0.000 C
ATOM     60  C2  BGC B   5      20.768  11.212   1.5130  0.00  0.00     0.000 C
ATOM     61  C3  BGC B   5      21.527  11.506   2.7920  0.00  0.00     0.000 C
ATOM     62  C4  BGC B   5      22.031  10.204   3.3950  0.00  0.00     0.000 C
ATOM     63  C5  BGC B   5      22.822   9.397   2.3550  0.00  0.00     0.000 C
ATOM     64  O5  BGC B   5      21.999   9.187   1.2120  0.00  0.00     0.000 O
ATOM     65   O  BGC B   5      22.069   7.368   3.2570  0.00  0.00     0.000 O
ATOM     67  HD  BGC B   5      21.742   7.031   3.9840  0.00  0.00     0.000 HD
ATOM     67   O  BGC B   5      22.069   7.368   3.2570  0.00  0.00     0.000 O
ATOM     69  HD  BGC B   5      21.742   7.031   3.9840  0.00  0.00     0.000 HD
ENDBRANCH 58 62
ENDBRANCH 45 58
ENDBRANCH 44 48
ENDBRANCH 31 44
ENDBRANCH 30 34
ENDBRANCH 17 30
ENDBRANCH 16 20
ENDBRANCH 1 16
TORSDOF 8
ENDMDL
MODEL 89
REMARK VINA RESULT:      -0.3     12.102     17.596
ROOT
ATOM      1  C1  BGC B   1      18.648  11.815   5.5730  0.00  0.00     0.000 C
ATOM      2  C2  BGC B   1      19.553  10.598   5.3850  0.00  0.00     0.000 C
ATOM      3  C3  BGC B   1      20.266  10.681   4.0490  0.00  0.00     0.000 C
ATOM      4  C4  BGC B   1      19.271  10.914   2.9200  0.00  0.00     0.000 C
ATOM      5  C5  BGC B   1      18.459  12.161   3.2420  0.00  0.00     0.000 C
ATOM      6  O5  BGC B   1      17.756  11.910   4.4720  0.00  0.00     0.000 O
ATOM      7   O  BGC B   1      20.527  10.565   6.4410  0.00  0.00     0.000 O
ATOM      9  HD  BGC B   1      21.287  10.184   6.2760  0.00  0.00     0.000 HD
ATOM      9   O  BGC B   1      21.000   9.471   3.8410  0.00  0.00     0.000 O
ATOM     11  HD  BGC B   1      21.759   9.089   3.6760  0.00  0.00     0.000 HD
ATOM     11   O  BGC B   1      19.966  11.093   1.7050  0.00  0.00     0.000 O
ATOM     13  HD  BGC B   1      20.725  10.711   1.5400  0.00  0.00     0.000 HD
ATOM     13   C  BGC B   1      17.447  12.556   2.1770  0.00  0.00     0.000 C
ATOM     14   O  BGC B   1      16.546  11.498   1.8660  0.00  0.00     0.000 O
ATOM     16  HD  BGC B   1      17.305  11.116   1.7000  0.00  0.00     0.000 HD
ENDROOT
BRANCH 1 16
ATOM     16  O4  BGC B   2      17.821  11.526   6.6990  0.00  0.00     0.000 O
BRANCH 16 20
ATOM     17  C1  BGC B   2      16.120  13.320   9.9270  0.00  0.00     0.000 C
ATOM     18  C2  BGC B   2      15.367  13.560   8.6270  0.00  0.00     0.000 C
ATOM     19  C3  BGC B   2      15.870  12.565   7.5840  0.00  0.00     0.000 C
ATOM     20  C4  BGC B   2      17.378  12.649   7.4570  0.00  0.00     0.000 C
ATOM     21  C5  BGC B   2      18.082  12.593   8.8130  0.00  0.00     0.000 C
ATOM     22  O5  BGC B   2      17.509  13.593   9.6650  0.00  0.00     0.000 O
ATOM     23   O  BGC B   2      13.958  13.358   8.8280  0.00  0.00     0.000 O
ATOM     25  HD  BGC B   2      14.584  12.881   8.4670  0.00  0.00     0.000 HD
ATOM     25   O  BGC B   2      15.254  12.825   6.3290  0.00  0.00     0.000 O
ATOM     27  HD  BGC B   2      15.880  12.347   5.9680  0.00  0.00     0.000 HD
ATOM     27   C  BGC B   2      19.578  12.866   8.7170  0.00  0.00     0.000 C
ATOM     28   O  BGC B   2      19.885  14.107   8.1040  0.00  0.00     0.000 O
ATOM     30  HD  BGC B   2      20.510  13.629   7.7430  0.00  0.00     0.000 HD
BRANCH 17 30
ATOM     30  O4  BGC B   3      15.709  14.329  10.8300  0.00  0.00     0.000 O
BRANCH 30 34
ATOM     31  C1  BGC B   3      16.435  15.438  14.7250  0.00  0.00     0.000 C
ATOM     32  C2  BGC B   3      17.377  16.068  13.7000  0.00  0.00     0.000 C
ATOM     33  C3  BGC B   3      16.774  15.910  12.3160  0.00  0.00     0.000 C
ATOM     34  C4  BGC B   3      16.477  14.437  12.0340  0.00  0.00     0.000 C
ATOM     35  C5  BGC B   3      15.657  13.838  13.1620  0.00  0.00     0.000 C
ATOM     36  O5  BGC B   3      16.327  14.060  14.4080  0.00  0.00     0.000 O
ATOM     37   O  BGC B   3      17.518  17.460  13.9750  0.00  0.00     0.000 O
ATOM     39  HD  BGC B   3      18.153  17.495  13.3880  0.00  0.00     0.000 HD
ATOM     39   O  BGC B   3      17.691  16.427  11.3630  0.00  0.00     0.000 O
ATOM     41  HD  BGC B   3      18.326  16.462  10.7760  0.00  0.00     0.000 HD
ATOM     41   C  BGC B   3      15.390  12.345  13.0090  0.00  0.00     0.000 C
ATOM     42   O  BGC B   3      16.607  11.641  12.9170  0.00  0.00     0.000 O
ATOM     44  HD  BGC B   3      17.242  11.676  12.3300  0.00  0.00     0.000 HD
BRANCH 31 44
ATOM     44  O4  BGC B   4      17.071  15.512  15.9750  0.00  0.00     0.000 O
BRANCH 44 48
ATOM     45  C1  BGC B   4      16.128  16.243  19.8970  0.00  0.00     0.000 C
ATOM     46  C2  BGC B   4      16.070  14.778  19.4890  0.00  0.00     0.000 C
ATOM     47  C3  BGC B   4      16.799  14.590  18.1820  0.00  0.00     0.000 C
ATOM     48  C4  BGC B   4      16.247  15.549  17.1220  0.00  0.00     0.000 C
ATOM     49  C5  BGC B   4      16.245  16.989  17.6480  0.00  0.00     0.000 C
ATOM     50  O5  BGC B   4      15.523  17.052  18.8870  0.00  0.00     0.000 O
ATOM     51   O  BGC B   4      16.694  13.960  20.4980  0.00  0.00     0.000 O
ATOM     53  HD  BGC B   4      17.333  13.968  19.9130  0.00  0.00     0.000 HD
ATOM     53   O  BGC B   4      16.625  13.234  17.7460  0.00  0.00     0.000 O
ATOM     55  HD  BGC B   4      17.264  13.242  17.1610  0.00  0.00     0.000 HD
ATOM     55   C  BGC B   4      15.606  17.998  16.7110  0.00  0.00     0.000 C
ATOM     56   O  BGC B   4      14.285  17.542  16.4150  0.00  0.00     0.000 O
ATOM     58  HD  BGC B   4      14.924  17.550  15.8300  0.00  0.00     0.000 HD
BRANCH 45 58
ATOM     58  O4  BGC B   5      15.213  16.383  20.9840  0.00  0.00     0.000 O
BRANCH 58 62
ATOM     59  C1  BGC B   5      14.934  18.000  24.7860  0.00  0.00     0.000 C
ATOM     60  C2  BGC B   5      14.748  18.982  23.6460  0.00  0.00     0.000 C
ATOM     61  C3  BGC B   5      14.454  18.247  22.3520  0.00  0.00     0.000 C
ATOM     62  C4  BGC B   5      15.549  17.224  22.0900  0.00  0.00     0.000 C
ATOM     63  C5  BGC B   5      15.742  16.313  23.3100  0.00  0.00     0.000 C
ATOM     64  O5  BGC B   5      16.013  17.122  24.4500  0.00  0.00     0.000 O
ATOM     65   O  BGC B   5      18.044  16.138  22.9000  0.00  0.00     0.000 O
ATOM     67  HD  BGC B   5      18.627  16.227  22.2660  0.00  0.00     0.000 HD
ATOM     67   O  BGC B   5      18.044  16.138  22.9000  0.00  0.00     0.000 O
ATOM     69  HD  BGC B   5      18.627  16.227  22.2660  0.00  0.00     0.000 HD
ENDBRANCH 58 62
ENDBRANCH 45 58
ENDBRANCH 44 48
ENDBRANCH 31 44
ENDBRANCH 30 34
ENDBRANCH 17 30
ENDBRANCH 16 20
ENDBRANCH 1 16
TORSDOF 8
ENDMDL
MODEL 90
REMARK VINA RESULT:      -0.3     11.666     17.625
ROOT
ATOM      1  C1  BGC B   1      18.648  11.815   5.5730  0.00  0.00     0.000 C
ATOM      2  C2  BGC B   1      19.520  10.566   5.6850  0.00  0.00     0.000 C
ATOM      3  C3  BGC B   1      20.562  10.557   4.5830  0.00  0.00     0.000 C
ATOM      4  C4  BGC B   1      19.908  10.756   3.2210  0.00  0.00     0.000 C
ATOM      5  C5  BGC B   1      19.092  12.040   3.2620  0.00  0.00     0.000 C
ATOM      6  O5  BGC B   1      18.081  11.875   4.2720  0.00  0.00     0.000 O
ATOM      7   O  BGC B   1      20.182  10.563   6.9610  0.00  0.00     0.000 O
ATOM      9  HD  BGC B   1      20.942  10.152   7.0200  0.00  0.00     0.000 HD
ATOM      9   O  BGC B   1      21.275   9.318   4.6300  0.00  0.00     0.000 O
ATOM     11  HD  BGC B   1      22.035   8.907   4.6880  0.00  0.00     0.000 HD
ATOM     11   O  BGC B   1      20.904  10.850   2.2270  0.00  0.00     0.000 O
ATOM     13  HD  BGC B   1      21.664  10.440   2.2850  0.00  0.00     0.000 HD
ATOM     13   C  BGC B   1      18.411  12.405   1.9510  0.00  0.00     0.000 C
ATOM     14   O  BGC B   1      17.582  11.357   1.4600  0.00  0.00     0.000 O
ATOM     16  HD  BGC B   1      18.342  10.946   1.5180  0.00  0.00     0.000 HD
ENDROOT
BRANCH 1 16
ATOM     16  O4  BGC B   2      17.544  11.610   6.4520  0.00  0.00     0.000 O
BRANCH 16 20
ATOM     17  C1  BGC B   2      15.129  13.621   9.0330  0.00  0.00     0.000 C
ATOM     18  C2  BGC B   2      14.754  13.811   7.5710  0.00  0.00     0.000 C
ATOM     19  C3  BGC B   2      15.473  12.748   6.7440  0.00  0.00     0.000 C
ATOM     20  C4  BGC B   2      16.963  12.783   7.0150  0.00  0.00     0.000 C
ATOM     21  C5  BGC B   2      17.283  12.781   8.5100  0.00  0.00     0.000 C
ATOM     22  O5  BGC B   2      16.548  13.841   9.1350  0.00  0.00     0.000 O
ATOM     23   O  BGC B   2      13.335  13.659   7.4010  0.00  0.00     0.000 O
ATOM     25  HD  BGC B   2      14.013  13.146   7.2400  0.00  0.00     0.000 HD
ATOM     25   O  BGC B   2      15.219  12.957   5.3590  0.00  0.00     0.000 O
ATOM     27  HD  BGC B   2      15.897  12.444   5.1980  0.00  0.00     0.000 HD
ATOM     27   C  BGC B   2      18.762  13.008   8.8010  0.00  0.00     0.000 C
ATOM     28   O  BGC B   2      19.269  14.205   8.2360  0.00  0.00     0.000 O
ATOM     30  HD  BGC B   2      19.948  13.692   8.0750  0.00  0.00     0.000 HD
BRANCH 17 30
ATOM     30  O4  BGC B   3      14.537  14.688   9.7500  0.00  0.00     0.000 O
BRANCH 30 34
ATOM     31  C1  BGC B   3      14.259  15.985  13.6440  0.00  0.00     0.000 C
ATOM     32  C2  BGC B   3      15.463  16.532  12.8770  0.00  0.00     0.000 C
ATOM     33  C3  BGC B   3      15.238  16.316  11.3910  0.00  0.00     0.000 C
ATOM     34  C4  BGC B   3      14.966  14.840  11.1070  0.00  0.00     0.000 C
ATOM     35  C5  BGC B   3      13.855  14.324  12.0040  0.00  0.00     0.000 C
ATOM     36  O5  BGC B   3      14.183  14.594  13.3710  0.00  0.00     0.000 O
ATOM     37   O  BGC B   3      15.582  17.932  13.1170  0.00  0.00     0.000 O
ATOM     39  HD  BGC B   3      16.351  17.918  12.7180  0.00  0.00     0.000 HD
ATOM     39   O  BGC B   3      16.393  16.757  10.6930  0.00  0.00     0.000 O
ATOM     41  HD  BGC B   3      17.161  16.742  10.2930  0.00  0.00     0.000 HD
ATOM     41   C  BGC B   3      13.577  12.833  11.8530  0.00  0.00     0.000 C
ATOM     42   O  BGC B   3      14.746  12.093  12.1170  0.00  0.00     0.000 O
ATOM     44  HD  BGC B   3      15.514  12.078  11.7180  0.00  0.00     0.000 HD
BRANCH 31 44
ATOM     44  O4  BGC B   4      14.548  16.108  15.0130  0.00  0.00     0.000 O
BRANCH 44 48
ATOM     45  C1  BGC B   4      12.639  17.074  18.5100  0.00  0.00     0.000 C
ATOM     46  C2  BGC B   4      12.631  15.591  18.1670  0.00  0.00     0.000 C
ATOM     47  C3  BGC B   4      13.669  15.313  17.1090  0.00  0.00     0.000 C
ATOM     48  C4  BGC B   4      13.454  16.229  15.8990  0.00  0.00     0.000 C
ATOM     49  C5  BGC B   4      13.372  17.695  16.3410  0.00  0.00     0.000 C
ATOM     50  O5  BGC B   4      12.354  17.844  17.3410  0.00  0.00     0.000 O
ATOM     51   O  BGC B   4      12.935  14.812  19.3400  0.00  0.00     0.000 O
ATOM     53  HD  BGC B   4      13.704  14.771  18.9450  0.00  0.00     0.000 HD
ATOM     53   O  BGC B   4      13.560  13.941  16.7030  0.00  0.00     0.000 O
ATOM     55  HD  BGC B   4      14.330  13.900  16.3080  0.00  0.00     0.000 HD
ATOM     55   C  BGC B   4      13.043  18.669  15.2240  0.00  0.00     0.000 C
ATOM     56   O  BGC B   4      11.829  18.234  14.6100  0.00  0.00     0.000 O
ATOM     58  HD  BGC B   4      12.598  18.193  14.2150  0.00  0.00     0.000 HD
BRANCH 45 58
ATOM     58  O4  BGC B   5      11.478  17.297  19.3090  0.00  0.00     0.000 O
BRANCH 58 62
ATOM     59  C1  BGC B   5       9.464  20.310  21.3130  0.00  0.00     0.000 C
ATOM     60  C2  BGC B   5       9.224  20.251  19.8180  0.00  0.00     0.000 C
ATOM     61  C3  BGC B   5       9.652  18.906  19.2630  0.00  0.00     0.000 C
ATOM     62  C4  BGC B   5      11.096  18.632  19.6500  0.00  0.00     0.000 C
ATOM     63  C5  BGC B   5      11.289  18.786  21.1650  0.00  0.00     0.000 C
ATOM     64  O5  BGC B   5      10.856  20.086  21.5550  0.00  0.00     0.000 O
ATOM     65   O  BGC B   5      13.465  19.609  20.8740  0.00  0.00     0.000 O
ATOM     67  HD  BGC B   5      14.114  19.618  20.3010  0.00  0.00     0.000 HD
ATOM     67   O  BGC B   5      13.465  19.609  20.8740  0.00  0.00     0.000 O
ATOM     69  HD  BGC B   5      14.114  19.618  20.3010  0.00  0.00     0.000 HD
ENDBRANCH 58 62
ENDBRANCH 45 58
ENDBRANCH 44 48
ENDBRANCH 31 44
ENDBRANCH 30 34
ENDBRANCH 17 30
ENDBRANCH 16 20
ENDBRANCH 1 16
TORSDOF 8
ENDMDL
MODEL 91
REMARK VINA RESULT:      -0.3     11.703     16.783
ROOT
ATOM      1  C1  BGC B   1      15.651  13.233   4.5730  0.00  0.00     0.000 C
ATOM      2  C2  BGC B   1      15.212  11.819   4.1950  0.00  0.00     0.000 C
ATOM      3  C3  BGC B   1      14.973  11.730   2.7010  0.00  0.00     0.000 C
ATOM      4  C4  BGC B   1      14.029  12.832   2.2390  0.00  0.00     0.000 C
ATOM      5  C5  BGC B   1      14.605  14.173   2.6720  0.00  0.00     0.000 C
ATOM      6  O5  BGC B   1      14.682  14.163   4.1100  0.00  0.00     0.000 O
ATOM      7   O  BGC B   1      16.244  10.889   4.5660  0.00  0.00     0.000 O
ATOM      9  HD  BGC B   1      16.306  10.155   4.1110  0.00  0.00     0.000 HD
ATOM      9   O  BGC B   1      14.437  10.439   2.3940  0.00  0.00     0.000 O
ATOM     11  HD  BGC B   1      14.500   9.705   1.9390  0.00  0.00     0.000 HD
ATOM     11   O  BGC B   1      13.906  12.794   0.8340  0.00  0.00     0.000 O
ATOM     13  HD  BGC B   1      13.968  12.060   0.3790  0.00  0.00     0.000 HD
ATOM     13   C  BGC B   1      13.794  15.386   2.2400  0.00  0.00     0.000 C
ATOM     14   O  BGC B   1      12.439  15.315   2.6710  0.00  0.00     0.000 O
ATOM     16  HD  BGC B   1      12.501  14.581   2.2160  0.00  0.00     0.000 HD
ENDROOT
BRANCH 1 16
ATOM     16  O4  BGC B   2      15.583  13.303   5.9960  0.00  0.00     0.000 O
BRANCH 16 20
ATOM     17  C1  BGC B   2      17.400  15.063   9.1810  0.00  0.00     0.000 C
ATOM     18  C2  BGC B   2      16.465  15.992   8.4200  0.00  0.00     0.000 C
ATOM     19  C3  BGC B   2      15.584  15.147   7.5030  0.00  0.00     0.000 C
ATOM     20  C4  BGC B   2      16.436  14.261   6.6180  0.00  0.00     0.000 C
ATOM     21  C5  BGC B   2      17.491  13.488   7.4120  0.00  0.00     0.000 C
ATOM     22  O5  BGC B   2      18.239  14.419   8.2040  0.00  0.00     0.000 O
ATOM     23   O  BGC B   2      15.630  16.714   9.3410  0.00  0.00     0.000 O
ATOM     25  HD  BGC B   2      15.497  16.031   8.8240  0.00  0.00     0.000 HD
ATOM     25   O  BGC B   2      14.763  15.994   6.7060  0.00  0.00     0.000 O
ATOM     27  HD  BGC B   2      14.630  15.312   6.1890  0.00  0.00     0.000 HD
ATOM     27   C  BGC B   2      18.475  12.740   6.5210  0.00  0.00     0.000 C
ATOM     28   O  BGC B   2      19.140  13.579   5.5910  0.00  0.00     0.000 O
ATOM     30  HD  BGC B   2      19.008  12.897   5.0740  0.00  0.00     0.000 HD
BRANCH 17 30
ATOM     30  O4  BGC B   3      18.273  15.886   9.9320  0.00  0.00     0.000 O
BRANCH 30 34
ATOM     31  C1  BGC B   3      20.383  15.844  13.4630  0.00  0.00     0.000 C
ATOM     32  C2  BGC B   3      20.919  14.895  12.3930  0.00  0.00     0.000 C
ATOM     33  C3  BGC B   3      20.329  15.286  11.0490  0.00  0.00     0.000 C
ATOM     34  C4  BGC B   3      18.803  15.303  11.1270  0.00  0.00     0.000 C
ATOM     35  C5  BGC B   3      18.343  16.151  12.3000  0.00  0.00     0.000 C
ATOM     36  O5  BGC B   3      18.973  15.687  13.4980  0.00  0.00     0.000 O
ATOM     37   O  BGC B   3      22.337  15.017  12.3160  0.00  0.00     0.000 O
ATOM     39  HD  BGC B   3      22.352  14.326  11.7930  0.00  0.00     0.000 HD
ATOM     39   O  BGC B   3      20.771  14.352  10.0750  0.00  0.00     0.000 O
ATOM     41  HD  BGC B   3      20.785  13.662   9.5520  0.00  0.00     0.000 HD
ATOM     41   C  BGC B   3      16.833  16.151  12.5090  0.00  0.00     0.000 C
ATOM     42   O  BGC B   3      16.369  14.835  12.6990  0.00  0.00     0.000 O
ATOM     44  HD  BGC B   3      16.383  14.145  12.1760  0.00  0.00     0.000 HD
BRANCH 31 44
ATOM     44  O4  BGC B   4      20.866  15.390  14.7010  0.00  0.00     0.000 O
BRANCH 44 48
ATOM     45  C1  BGC B   4      22.119  16.827  18.3300  0.00  0.00     0.000 C
ATOM     46  C2  BGC B   4      20.609  16.800  18.1420  0.00  0.00     0.000 C
ATOM     47  C3  BGC B   4      20.264  15.911  16.9730  0.00  0.00     0.000 C
ATOM     48  C4  BGC B   4      21.035  16.350  15.7240  0.00  0.00     0.000 C
ATOM     49  C5  BGC B   4      22.535  16.451  16.0250  0.00  0.00     0.000 C
ATOM     50  O5  BGC B   4      22.747  17.321  17.1460  0.00  0.00     0.000 O
ATOM     51   O  BGC B   4      19.973  16.286  19.3280  0.00  0.00     0.000 O
ATOM     53  HD  BGC B   4      19.922  15.581  18.8280  0.00  0.00     0.000 HD
ATOM     53   O  BGC B   4      18.853  15.999  16.7260  0.00  0.00     0.000 O
ATOM     55  HD  BGC B   4      18.802  15.293  16.2270  0.00  0.00     0.000 HD
ATOM     55   C  BGC B   4      23.370  16.992  14.8790  0.00  0.00     0.000 C
ATOM     56   O  BGC B   4      22.822  18.256  14.4990  0.00  0.00     0.000 O
ATOM     58  HD  BGC B   4      22.771  17.550  14.0000  0.00  0.00     0.000 HD
BRANCH 45 58
ATOM     58  O4  BGC B   5      22.378  17.872  19.2680  0.00  0.00     0.000 O
BRANCH 58 62
ATOM     59  C1  BGC B   5      24.851  18.703  22.4830  0.00  0.00     0.000 C
ATOM     60  C2  BGC B   5      25.371  19.148  21.1310  0.00  0.00     0.000 C
ATOM     61  C3  BGC B   5      24.247  19.181  20.1130  0.00  0.00     0.000 C
ATOM     62  C4  BGC B   5      23.557  17.827  20.0740  0.00  0.00     0.000 C
ATOM     63  C5  BGC B   5      23.127  17.398  21.4840  0.00  0.00     0.000 C
ATOM     64  O5  BGC B   5      24.268  17.404  22.3360  0.00  0.00     0.000 O
ATOM     65   O  BGC B   5      23.520  15.140  20.9910  0.00  0.00     0.000 O
ATOM     67  HD  BGC B   5      23.592  14.596  20.3210  0.00  0.00     0.000 HD
ATOM     67   O  BGC B   5      23.520  15.140  20.9910  0.00  0.00     0.000 O
ATOM     69  HD  BGC B   5      23.592  14.596  20.3210  0.00  0.00     0.000 HD
ENDBRANCH 58 62
ENDBRANCH 45 58
ENDBRANCH 44 48
ENDBRANCH 31 44
ENDBRANCH 30 34
ENDBRANCH 17 30
ENDBRANCH 16 20
ENDBRANCH 1 16
TORSDOF 8
ENDMDL
MODEL 92
REMARK VINA RESULT:      -0.1     32.944     37.912
ROOT
ATOM      1  C1  BGC B   1      34.991  23.749  19.7000  0.00  0.00     0.000 C
ATOM      2  C2  BGC B   1      34.491  23.000  18.4660  0.00  0.00     0.000 C
ATOM      3  C3  BGC B   1      35.336  23.362  17.2600  0.00  0.00     0.000 C
ATOM      4  C4  BGC B   1      35.419  24.875  17.0950  0.00  0.00     0.000 C
ATOM      5  C5  BGC B   1      35.944  25.473  18.3920  0.00  0.00     0.000 C
ATOM      6  O5  BGC B   1      35.002  25.143  19.4300  0.00  0.00     0.000 O
ATOM      7   O  BGC B   1      34.585  21.585  18.7010  0.00  0.00     0.000 O
ATOM      9  HD  BGC B   1      34.690  21.069  18.0140  0.00  0.00     0.000 HD
ATOM      9   O  BGC B   1      34.767  22.754  16.0970  0.00  0.00     0.000 O
ATOM     11  HD  BGC B   1      34.872  22.238  15.4090  0.00  0.00     0.000 HD
ATOM     11   O  BGC B   1      36.294  25.188  16.0330  0.00  0.00     0.000 O
ATOM     13  HD  BGC B   1      36.399  24.672  15.3450  0.00  0.00     0.000 HD
ATOM     13   C  BGC B   1      36.131  26.983  18.3700  0.00  0.00     0.000 C
ATOM     14   O  BGC B   1      34.939  27.671  18.0030  0.00  0.00     0.000 O
ATOM     16  HD  BGC B   1      35.045  27.155  17.3160  0.00  0.00     0.000 HD
ENDROOT
BRANCH 1 16
ATOM     16  O4  BGC B   2      33.992  23.573  20.7040  0.00  0.00     0.000 O
BRANCH 16 20
ATOM     17  C1  BGC B   2      33.556  23.177  24.7270  0.00  0.00     0.000 C
ATOM     18  C2  BGC B   2      33.856  24.600  24.2820  0.00  0.00     0.000 C
ATOM     19  C3  BGC B   2      33.636  24.693  22.7740  0.00  0.00     0.000 C
ATOM     20  C4  BGC B   2      34.443  23.632  22.0550  0.00  0.00     0.000 C
ATOM     21  C5  BGC B   2      34.251  22.242  22.6630  0.00  0.00     0.000 C
ATOM     22  O5  BGC B   2      34.509  22.321  24.0700  0.00  0.00     0.000 O
ATOM     23   O  BGC B   2      32.974  25.521  24.9440  0.00  0.00     0.000 O
ATOM     25  HD  BGC B   2      32.996  25.185  24.1460  0.00  0.00     0.000 HD
ATOM     25   O  BGC B   2      34.001  25.988  22.3100  0.00  0.00     0.000 O
ATOM     27  HD  BGC B   2      34.024  25.652  21.5130  0.00  0.00     0.000 HD
ATOM     27   C  BGC B   2      35.196  21.201  22.0750  0.00  0.00     0.000 C
ATOM     28   O  BGC B   2      36.564  21.555  22.1900  0.00  0.00     0.000 O
ATOM     30  HD  BGC B   2      36.587  21.219  21.3920  0.00  0.00     0.000 HD
BRANCH 17 30
ATOM     30  O4  BGC B   3      33.879  23.101  26.1030  0.00  0.00     0.000 O
BRANCH 30 34
ATOM     31  C1  BGC B   3      32.688  21.133  29.5140  0.00  0.00     0.000 C
ATOM     32  C2  BGC B   3      33.417  20.256  28.4970  0.00  0.00     0.000 C
ATOM     33  C3  BGC B   3      34.139  21.150  27.5040  0.00  0.00     0.000 C
ATOM     34  C4  BGC B   3      33.155  22.126  26.8600  0.00  0.00     0.000 C
ATOM     35  C5  BGC B   3      32.363  22.860  27.9270  0.00  0.00     0.000 C
ATOM     36  O5  BGC B   3      31.741  21.910  28.7980  0.00  0.00     0.000 O
ATOM     37   O  BGC B   3      34.386  19.453  29.1680  0.00  0.00     0.000 O
ATOM     39  HD  BGC B   3      34.508  19.013  28.4330  0.00  0.00     0.000 HD
ATOM     39   O  BGC B   3      34.749  20.330  26.5190  0.00  0.00     0.000 O
ATOM     41  HD  BGC B   3      34.870  19.889  25.7840  0.00  0.00     0.000 HD
ATOM     41   C  BGC B   3      31.290  23.791  27.3720  0.00  0.00     0.000 C
ATOM     42   O  BGC B   3      30.390  23.068  26.5660  0.00  0.00     0.000 O
ATOM     44  HD  BGC B   3      30.512  22.628  25.8300  0.00  0.00     0.000 HD
BRANCH 31 44
ATOM     44  O4  BGC B   4      31.953  20.276  30.3490  0.00  0.00     0.000 O
BRANCH 44 48
ATOM     45  C1  BGC B   4      30.601  19.995  34.2090  0.00  0.00     0.000 C
ATOM     46  C2  BGC B   4      29.842  20.987  33.3380  0.00  0.00     0.000 C
ATOM     47  C3  BGC B   4      30.154  20.722  31.8860  0.00  0.00     0.000 C
ATOM     48  C4  BGC B   4      31.669  20.730  31.6570  0.00  0.00     0.000 C
ATOM     49  C5  BGC B   4      32.368  19.784  32.6400  0.00  0.00     0.000 C
ATOM     50  O5  BGC B   4      32.006  20.128  33.9860  0.00  0.00     0.000 O
ATOM     51   O  BGC B   4      28.425  20.844  33.5490  0.00  0.00     0.000 O
ATOM     53  HD  BGC B   4      28.494  20.425  32.7940  0.00  0.00     0.000 HD
ATOM     53   O  BGC B   4      29.538  21.742  31.0870  0.00  0.00     0.000 O
ATOM     55  HD  BGC B   4      29.607  21.323  30.3330  0.00  0.00     0.000 HD
ATOM     55   C  BGC B   4      33.884  19.812  32.5680  0.00  0.00     0.000 C
ATOM     56   O  BGC B   4      34.304  21.165  32.7490  0.00  0.00     0.000 O
ATOM     58  HD  BGC B   4      34.374  20.746  31.9940  0.00  0.00     0.000 HD
BRANCH 45 58
ATOM     58  O4  BGC B   5      30.463  20.467  35.5490  0.00  0.00     0.000 O
BRANCH 58 62
ATOM     59  C1  BGC B   5      29.469  19.169  39.3540  0.00  0.00     0.000 C
ATOM     60  C2  BGC B   5      30.872  18.825  38.8960  0.00  0.00     0.000 C
ATOM     61  C3  BGC B   5      31.268  19.679  37.7070  0.00  0.00     0.000 C
ATOM     62  C4  BGC B   5      30.227  19.536  36.6090  0.00  0.00     0.000 C
ATOM     63  C5  BGC B   5      28.821  19.820  37.1560  0.00  0.00     0.000 C
ATOM     64  O5  BGC B   5      28.573  18.954  38.2590  0.00  0.00     0.000 O
ATOM     65   O  BGC B   5      27.865  18.238  35.7130  0.00  0.00     0.000 O
ATOM     67  HD  BGC B   5      28.020  17.818  34.9720  0.00  0.00     0.000 HD
ATOM     67   O  BGC B   5      27.865  18.238  35.7130  0.00  0.00     0.000 O
ATOM     69  HD  BGC B   5      28.020  17.818  34.9720  0.00  0.00     0.000 HD
ENDBRANCH 58 62
ENDBRANCH 45 58
ENDBRANCH 44 48
ENDBRANCH 31 44
ENDBRANCH 30 34
ENDBRANCH 17 30
ENDBRANCH 16 20
ENDBRANCH 1 16
TORSDOF 8
ENDMDL
MODEL 93
REMARK VINA RESULT:      -0.1     59.904     64.901
ROOT
ATOM      1  C1  BGC B   1      16.031  69.725  30.0410  0.00  0.00     0.000 C
ATOM      2  C2  BGC B   1      16.006  71.251  30.1060  0.00  0.00     0.000 C
ATOM      3  C3  BGC B   1      17.055  71.749  31.0810  0.00  0.00     0.000 C
ATOM      4  C4  BGC B   1      16.911  71.054  32.4290  0.00  0.00     0.000 C
ATOM      5  C5  BGC B   1      16.971  69.550  32.2040  0.00  0.00     0.000 C
ATOM      6  O5  BGC B   1      15.867  69.198  31.3500  0.00  0.00     0.000 O
ATOM      7   O  BGC B   1      16.282  71.785  28.8000  0.00  0.00     0.000 O
ATOM      9  HD  BGC B   1      16.650  72.567  28.7540  0.00  0.00     0.000 HD
ATOM      9   O  BGC B   1      16.920  73.166  31.2220  0.00  0.00     0.000 O
ATOM     11  HD  BGC B   1      17.288  73.949  31.1760  0.00  0.00     0.000 HD
ATOM     11   O  BGC B   1      17.961  71.454  33.2830  0.00  0.00     0.000 O
ATOM     13  HD  BGC B   1      18.328  72.237  33.2370  0.00  0.00     0.000 HD
ATOM     13   C  BGC B   1      16.890  68.711  33.4710  0.00  0.00     0.000 C
ATOM     14   O  BGC B   1      15.731  69.007  34.2440  0.00  0.00     0.000 O
ATOM     16  HD  BGC B   1      16.099  69.790  34.1990  0.00  0.00     0.000 HD
ENDROOT
BRANCH 1 16
ATOM     16  O4  BGC B   2      14.855  69.337  29.3340  0.00  0.00     0.000 O
BRANCH 16 20
ATOM     17  C1  BGC B   2      13.476  66.507  26.7590  0.00  0.00     0.000 C
ATOM     18  C2  BGC B   2      13.623  66.012  28.1910  0.00  0.00     0.000 C
ATOM     19  C3  BGC B   2      13.785  67.222  29.1080  0.00  0.00     0.000 C
ATOM     20  C4  BGC B   2      14.925  68.099  28.6310  0.00  0.00     0.000 C
ATOM     21  C5  BGC B   2      14.833  68.414  27.1380  0.00  0.00     0.000 C
ATOM     22  O5  BGC B   2      14.702  67.181  26.4190  0.00  0.00     0.000 O
ATOM     23   O  BGC B   2      12.451  65.278  28.5830  0.00  0.00     0.000 O
ATOM     25  HD  BGC B   2      12.737  66.079  28.7490  0.00  0.00     0.000 HD
ATOM     25   O  BGC B   2      14.021  66.789  30.4430  0.00  0.00     0.000 O
ATOM     27  HD  BGC B   2      14.308  67.589  30.6090  0.00  0.00     0.000 HD
ATOM     27   C  BGC B   2      16.066  69.133  26.6050  0.00  0.00     0.000 C
ATOM     28   O  BGC B   2      17.274  68.428  26.8400  0.00  0.00     0.000 O
ATOM     30  HD  BGC B   2      17.560  69.228  27.0060  0.00  0.00     0.000 HD
BRANCH 17 30
ATOM     30  O4  BGC B   3      13.442  65.360  25.9310  0.00  0.00     0.000 O
BRANCH 30 34
ATOM     31  C1  BGC B   3      11.787  64.086  22.3860  0.00  0.00     0.000 C
ATOM     32  C2  BGC B   3      12.911  65.110  22.2300  0.00  0.00     0.000 C
ATOM     33  C3  BGC B   3      13.686  65.192  23.5330  0.00  0.00     0.000 C
ATOM     34  C4  BGC B   3      12.741  65.509  24.6920  0.00  0.00     0.000 C
ATOM     35  C5  BGC B   3      11.572  64.539  24.7010  0.00  0.00     0.000 C
ATOM     36  O5  BGC B   3      10.934  64.551  23.4200  0.00  0.00     0.000 O
ATOM     37   O  BGC B   3      13.801  64.687  21.2000  0.00  0.00     0.000 O
ATOM     39  HD  BGC B   3      14.193  65.458  21.2450  0.00  0.00     0.000 HD
ATOM     39   O  BGC B   3      14.677  66.200  23.4050  0.00  0.00     0.000 O
ATOM     41  HD  BGC B   3      15.069  66.971  23.4490  0.00  0.00     0.000 HD
ATOM     41   C  BGC B   3      10.528  64.837  25.7710  0.00  0.00     0.000 C
ATOM     42   O  BGC B   3      10.026  66.143  25.6090  0.00  0.00     0.000 O
ATOM     44  HD  BGC B   3      10.417  66.914  25.6530  0.00  0.00     0.000 HD
BRANCH 31 44
ATOM     44  O4  BGC B   4      11.033  64.113  21.2020  0.00  0.00     0.000 O
BRANCH 44 48
ATOM     45  C1  BGC B   4       8.788  61.654  18.8110  0.00  0.00     0.000 C
ATOM     46  C2  BGC B   4       8.112  62.072  20.1090  0.00  0.00     0.000 C
ATOM     47  C3  BGC B   4       8.841  63.255  20.6980  0.00  0.00     0.000 C
ATOM     48  C4  BGC B   4      10.332  62.937  20.8510  0.00  0.00     0.000 C
ATOM     49  C5  BGC B   4      10.913  62.427  19.5270  0.00  0.00     0.000 C
ATOM     50  O5  BGC B   4      10.149  61.304  19.0640  0.00  0.00     0.000 O
ATOM     51   O  BGC B   4       6.743  62.443  19.8560  0.00  0.00     0.000 O
ATOM     53  HD  BGC B   4       7.088  63.234  19.9270  0.00  0.00     0.000 HD
ATOM     53   O  BGC B   4       8.275  63.554  21.9820  0.00  0.00     0.000 O
ATOM     55  HD  BGC B   4       8.620  64.345  22.0530  0.00  0.00     0.000 HD
ATOM     55   C  BGC B   4      12.360  61.976  19.6100  0.00  0.00     0.000 C
ATOM     56   O  BGC B   4      12.451  60.991  20.6410  0.00  0.00     0.000 O
ATOM     58  HD  BGC B   4      12.796  61.782  20.7120  0.00  0.00     0.000 HD
BRANCH 45 58
ATOM     58  O4  BGC B   5       8.213  60.396  18.4580  0.00  0.00     0.000 O
BRANCH 58 62
ATOM     59  C1  BGC B   5       6.512  58.395  15.2560  0.00  0.00     0.000 C
ATOM     60  C2  BGC B   5       8.025  58.478  15.2420  0.00  0.00     0.000 C
ATOM     61  C3  BGC B   5       8.552  58.841  16.6170  0.00  0.00     0.000 C
ATOM     62  C4  BGC B   5       7.887  60.122  17.0940  0.00  0.00     0.000 C
ATOM     63  C5  BGC B   5       6.358  60.002  17.0080  0.00  0.00     0.000 C
ATOM     64  O5  BGC B   5       5.997  59.664  15.6730  0.00  0.00     0.000 O
ATOM     65   O  BGC B   5       6.141  62.276  16.4790  0.00  0.00     0.000 O
ATOM     67  HD  BGC B   5       6.564  63.029  16.5430  0.00  0.00     0.000 HD
ATOM     67   O  BGC B   5       6.141  62.276  16.4790  0.00  0.00     0.000 O
ATOM     69  HD  BGC B   5       6.564  63.029  16.5430  0.00  0.00     0.000 HD
ENDBRANCH 58 62
ENDBRANCH 45 58
ENDBRANCH 44 48
ENDBRANCH 31 44
ENDBRANCH 30 34
ENDBRANCH 17 30
ENDBRANCH 16 20
ENDBRANCH 1 16
TORSDOF 8
ENDMDL
MODEL 94
REMARK VINA RESULT:      -0.1     75.865     78.824
ROOT
ATOM      1  C1  BGC B   1      56.155  52.629  49.3960  0.00  0.00     0.000 C
ATOM      2  C2  BGC B   1      56.721  52.451  50.8040  0.00  0.00     0.000 C
ATOM      3  C3  BGC B   1      58.127  51.887  50.7330  0.00  0.00     0.000 C
ATOM      4  C4  BGC B   1      58.161  50.632  49.8710  0.00  0.00     0.000 C
ATOM      5  C5  BGC B   1      57.584  50.970  48.5040  0.00  0.00     0.000 C
ATOM      6  O5  BGC B   1      56.222  51.391  48.7040  0.00  0.00     0.000 O
ATOM      7   O  BGC B   1      56.756  53.727  51.4650  0.00  0.00     0.000 O
ATOM      9  HD  BGC B   1      57.354  53.845  52.0800  0.00  0.00     0.000 HD
ATOM      9   O  BGC B   1      58.580  51.606  52.0610  0.00  0.00     0.000 O
ATOM     11  HD  BGC B   1      59.178  51.724  52.6750  0.00  0.00     0.000 HD
ATOM     11   O  BGC B   1      59.493  50.187  49.7340  0.00  0.00     0.000 O
ATOM     13  HD  BGC B   1      60.092  50.306  50.3480  0.00  0.00     0.000 HD
ATOM     13   C  BGC B   1      57.595  49.823  47.5040  0.00  0.00     0.000 C
ATOM     14   O  BGC B   1      56.931  48.664  48.0010  0.00  0.00     0.000 O
ATOM     16  HD  BGC B   1      57.530  48.783  48.6160  0.00  0.00     0.000 HD
ENDROOT
BRANCH 1 16
ATOM     16  O4  BGC B   2      54.763  52.891  49.5570  0.00  0.00     0.000 O
BRANCH 16 20
ATOM     17  C1  BGC B   2      51.703  54.987  47.8880  0.00  0.00     0.000 C
ATOM     18  C2  BGC B   2      52.094  53.745  47.1010  0.00  0.00     0.000 C
ATOM     19  C3  BGC B   2      52.971  52.865  47.9890  0.00  0.00     0.000 C
ATOM     20  C4  BGC B   2      54.145  53.657  48.5260  0.00  0.00     0.000 C
ATOM     21  C5  BGC B   2      53.716  54.991  49.1400  0.00  0.00     0.000 C
ATOM     22  O5  BGC B   2      52.920  55.699  48.1820  0.00  0.00     0.000 O
ATOM     23   O  BGC B   2      50.918  53.009  46.7240  0.00  0.00     0.000 O
ATOM     25  HD  BGC B   2      51.517  52.901  47.3400  0.00  0.00     0.000 HD
ATOM     25   O  BGC B   2      53.432  51.740  47.2500  0.00  0.00     0.000 O
ATOM     27  HD  BGC B   2      54.032  51.632  47.8660  0.00  0.00     0.000 HD
ATOM     27   C  BGC B   2      54.896  55.880  49.5110  0.00  0.00     0.000 C
ATOM     28   O  BGC B   2      55.763  56.148  48.4220  0.00  0.00     0.000 O
ATOM     30  HD  BGC B   2      56.363  56.040  49.0370  0.00  0.00     0.000 HD
BRANCH 17 30
ATOM     30  O4  BGC B   3      50.989  55.826  47.0000  0.00  0.00     0.000 O
BRANCH 30 34
ATOM     31  C1  BGC B   3      47.960  58.610  47.0510  0.00  0.00     0.000 C
ATOM     32  C2  BGC B   3      49.273  59.090  47.6670  0.00  0.00     0.000 C
ATOM     33  C3  BGC B   3      50.389  58.155  47.2360  0.00  0.00     0.000 C
ATOM     34  C4  BGC B   3      50.044  56.713  47.6070  0.00  0.00     0.000 C
ATOM     35  C5  BGC B   3      48.665  56.349  47.0850  0.00  0.00     0.000 C
ATOM     36  O5  BGC B   3      47.710  57.307  47.5540  0.00  0.00     0.000 O
ATOM     37   O  BGC B   3      49.572  60.400  47.1900  0.00  0.00     0.000 O
ATOM     39  HD  BGC B   3      50.215  60.447  47.7690  0.00  0.00     0.000 HD
ATOM     39   O  BGC B   3      51.590  58.563  47.8750  0.00  0.00     0.000 O
ATOM     41  HD  BGC B   3      52.232  58.609  48.4540  0.00  0.00     0.000 HD
ATOM     41   C  BGC B   3      48.198  54.955  47.4880  0.00  0.00     0.000 C
ATOM     42   O  BGC B   3      48.192  54.832  48.8910  0.00  0.00     0.000 O
ATOM     44  HD  BGC B   3      48.835  54.878  49.4700  0.00  0.00     0.000 HD
BRANCH 31 44
ATOM     44  O4  BGC B   4      46.940  59.435  47.5520  0.00  0.00     0.000 O
BRANCH 44 48
ATOM     45  C1  BGC B   4      43.319  61.021  46.4670  0.00  0.00     0.000 C
ATOM     46  C2  BGC B   4      43.287  59.540  46.8160  0.00  0.00     0.000 C
ATOM     47  C3  BGC B   4      44.547  59.171  47.5600  0.00  0.00     0.000 C
ATOM     48  C4  BGC B   4      45.782  59.592  46.7570  0.00  0.00     0.000 C
ATOM     49  C5  BGC B   4      45.688  61.070  46.3590  0.00  0.00     0.000 C
ATOM     50  O5  BGC B   4      44.460  61.305  45.6560  0.00  0.00     0.000 O
ATOM     51   O  BGC B   4      42.148  59.253  47.6480  0.00  0.00     0.000 O
ATOM     53  HD  BGC B   4      42.765  59.255  48.2560  0.00  0.00     0.000 HD
ATOM     53   O  BGC B   4      44.564  57.751  47.7660  0.00  0.00     0.000 O
ATOM     55  HD  BGC B   4      45.180  57.753  48.3740  0.00  0.00     0.000 HD
ATOM     55   C  BGC B   4      46.813  61.550  45.4600  0.00  0.00     0.000 C
ATOM     56   O  BGC B   4      46.851  60.696  44.3150  0.00  0.00     0.000 O
ATOM     58  HD  BGC B   4      47.468  60.698  44.9230  0.00  0.00     0.000 HD
BRANCH 45 58
ATOM     58  O4  BGC B   5      42.240  61.232  45.5560  0.00  0.00     0.000 O
BRANCH 58 62
ATOM     59  C1  BGC B   5      39.017  63.740  44.8730  0.00  0.00     0.000 C
ATOM     60  C2  BGC B   5      40.369  64.296  44.4750  0.00  0.00     0.000 C
ATOM     61  C3  BGC B   5      41.394  63.182  44.3730  0.00  0.00     0.000 C
ATOM     62  C4  BGC B   5      41.427  62.401  45.6770  0.00  0.00     0.000 C
ATOM     63  C5  BGC B   5      40.017  61.935  46.0650  0.00  0.00     0.000 C
ATOM     64  O5  BGC B   5      39.159  63.070  46.1300  0.00  0.00     0.000 O
ATOM     65   O  BGC B   5      40.491  62.175  48.3480  0.00  0.00     0.000 O
ATOM     67  HD  BGC B   5      41.157  62.213  48.9000  0.00  0.00     0.000 HD
ATOM     67   O  BGC B   5      40.491  62.175  48.3480  0.00  0.00     0.000 O
ATOM     69  HD  BGC B   5      41.157  62.213  48.9000  0.00  0.00     0.000 HD
ENDBRANCH 58 62
ENDBRANCH 45 58
ENDBRANCH 44 48
ENDBRANCH 31 44
ENDBRANCH 30 34
ENDBRANCH 17 30
ENDBRANCH 16 20
ENDBRANCH 1 16
TORSDOF 8
ENDMDL
MODEL 95
REMARK VINA RESULT:      -0.1     73.796     76.876
ROOT
ATOM      1  C1  BGC B   1      54.795  51.647  48.4830  0.00  0.00     0.000 C
ATOM      2  C2  BGC B   1      55.774  51.526  49.6500  0.00  0.00     0.000 C
ATOM      3  C3  BGC B   1      57.190  51.373  49.1270  0.00  0.00     0.000 C
ATOM      4  C4  BGC B   1      57.270  50.241  48.1100  0.00  0.00     0.000 C
ATOM      5  C5  BGC B   1      56.253  50.509  47.0100  0.00  0.00     0.000 C
ATOM      6  O5  BGC B   1      54.951  50.527  47.6230  0.00  0.00     0.000 O
ATOM      7   O  BGC B   1      55.694  52.710  50.4590  0.00  0.00     0.000 O
ATOM      9  HD  BGC B   1      56.400  52.942  50.9050  0.00  0.00     0.000 HD
ATOM      9   O  BGC B   1      58.066  51.128  50.2310  0.00  0.00     0.000 O
ATOM     11  HD  BGC B   1      58.772  51.360  50.6760  0.00  0.00     0.000 HD
ATOM     11   O  BGC B   1      58.569  50.188  47.5620  0.00  0.00     0.000 O
ATOM     13  HD  BGC B   1      59.275  50.419  48.0070  0.00  0.00     0.000 HD
ATOM     13   C  BGC B   1      56.244  49.485  45.8850  0.00  0.00     0.000 C
ATOM     14   O  BGC B   1      56.055  48.156  46.3620  0.00  0.00     0.000 O
ATOM     16  HD  BGC B   1      56.761  48.388  46.8070  0.00  0.00     0.000 HD
ENDROOT
BRANCH 1 16
ATOM     16  O4  BGC B   2      53.490  51.507  49.0430  0.00  0.00     0.000 O
BRANCH 16 20
ATOM     17  C1  BGC B   2      49.666  52.808  48.5720  0.00  0.00     0.000 C
ATOM     18  C2  BGC B   2      50.095  51.780  47.5340  0.00  0.00     0.000 C
ATOM     19  C3  BGC B   2      51.378  51.109  48.0180  0.00  0.00     0.000 C
ATOM     20  C4  BGC B   2      52.432  52.150  48.3370  0.00  0.00     0.000 C
ATOM     21  C5  BGC B   2      51.896  53.267  49.2330  0.00  0.00     0.000 C
ATOM     22  O5  BGC B   2      50.708  53.800  48.6350  0.00  0.00     0.000 O
ATOM     23   O  BGC B   2      49.073  50.782  47.3770  0.00  0.00     0.000 O
ATOM     25  HD  BGC B   2      49.834  50.796  47.7890  0.00  0.00     0.000 HD
ATOM     25   O  BGC B   2      51.858  50.210  47.0260  0.00  0.00     0.000 O
ATOM     27  HD  BGC B   2      52.620  50.224  47.4380  0.00  0.00     0.000 HD
ATOM     27   C  BGC B   2      52.883  54.414  49.4070  0.00  0.00     0.000 C
ATOM     28   O  BGC B   2      53.301  54.987  48.1790  0.00  0.00     0.000 O
ATOM     30  HD  BGC B   2      54.063  55.002  48.5920  0.00  0.00     0.000 HD
BRANCH 17 30
ATOM     30  O4  BGC B   3      48.544  53.484  48.0380  0.00  0.00     0.000 O
BRANCH 30 34
ATOM     31  C1  BGC B   3      45.088  55.326  49.2980  0.00  0.00     0.000 C
ATOM     32  C2  BGC B   3      46.369  56.099  49.6100  0.00  0.00     0.000 C
ATOM     33  C3  BGC B   3      47.499  55.537  48.7660  0.00  0.00     0.000 C
ATOM     34  C4  BGC B   3      47.634  54.033  48.9970  0.00  0.00     0.000 C
ATOM     35  C5  BGC B   3      46.292  53.346  48.8100  0.00  0.00     0.000 C
ATOM     36  O5  BGC B   3      45.317  53.971  49.6510  0.00  0.00     0.000 O
ATOM     37   O  BGC B   3      46.190  57.472  49.2700  0.00  0.00     0.000 O
ATOM     39  HD  BGC B   3      46.944  57.649  49.6590  0.00  0.00     0.000 HD
ATOM     39   O  BGC B   3      48.700  56.208  49.1180  0.00  0.00     0.000 O
ATOM     41  HD  BGC B   3      49.453  56.385  49.5070  0.00  0.00     0.000 HD
ATOM     41   C  BGC B   3      46.313  51.852  49.1110  0.00  0.00     0.000 C
ATOM     42   O  BGC B   3      46.750  51.629  50.4310  0.00  0.00     0.000 O
ATOM     44  HD  BGC B   3      47.503  51.806  50.8200  0.00  0.00     0.000 HD
BRANCH 31 44
ATOM     44  O4  BGC B   4      44.093  55.802  50.1680  0.00  0.00     0.000 O
BRANCH 44 48
ATOM     45  C1  BGC B   4      40.043  56.419  50.3250  0.00  0.00     0.000 C
ATOM     46  C2  BGC B   4      40.472  54.963  50.4460  0.00  0.00     0.000 C
ATOM     47  C3  BGC B   4      41.944  54.898  50.7680  0.00  0.00     0.000 C
ATOM     48  C4  BGC B   4      42.750  55.696  49.7390  0.00  0.00     0.000 C
ATOM     49  C5  BGC B   4      42.192  57.118  49.6030  0.00  0.00     0.000 C
ATOM     50  O5  BGC B   4      40.792  57.061  49.2920  0.00  0.00     0.000 O
ATOM     51   O  BGC B   4      39.731  54.316  51.4980  0.00  0.00     0.000 O
ATOM     53  HD  BGC B   4      40.480  54.441  51.9140  0.00  0.00     0.000 HD
ATOM     53   O  BGC B   4      42.361  53.525  50.7500  0.00  0.00     0.000 O
ATOM     55  HD  BGC B   4      43.110  53.650  51.1670  0.00  0.00     0.000 HD
ATOM     55   C  BGC B   4      42.854  57.951  48.5200  0.00  0.00     0.000 C
ATOM     56   O  BGC B   4      42.757  57.226  47.2930  0.00  0.00     0.000 O
ATOM     58  HD  BGC B   4      43.506  57.351  47.7100  0.00  0.00     0.000 HD
BRANCH 45 58
ATOM     58  O4  BGC B   5      38.727  56.394  49.7720  0.00  0.00     0.000 O
BRANCH 58 62
ATOM     59  C1  BGC B   5      34.942  57.973  50.3440  0.00  0.00     0.000 C
ATOM     60  C2  BGC B   5      35.943  58.904  49.6900  0.00  0.00     0.000 C
ATOM     61  C3  BGC B   5      37.128  58.122  49.1570  0.00  0.00     0.000 C
ATOM     62  C4  BGC B   5      37.730  57.286  50.2750  0.00  0.00     0.000 C
ATOM     63  C5  BGC B   5      36.650  56.426  50.9480  0.00  0.00     0.000 C
ATOM     64  O5  BGC B   5      35.603  57.276  51.4050  0.00  0.00     0.000 O
ATOM     65   O  BGC B   5      37.702  56.618  53.0350  0.00  0.00     0.000 O
ATOM     67  HD  BGC B   5      38.471  56.794  53.3910  0.00  0.00     0.000 HD
ATOM     67   O  BGC B   5      37.702  56.618  53.0350  0.00  0.00     0.000 O
ATOM     69  HD  BGC B   5      38.471  56.794  53.3910  0.00  0.00     0.000 HD
ENDBRANCH 58 62
ENDBRANCH 45 58
ENDBRANCH 44 48
ENDBRANCH 31 44
ENDBRANCH 30 34
ENDBRANCH 17 30
ENDBRANCH 16 20
ENDBRANCH 1 16
TORSDOF 8
ENDMDL
MODEL 96
REMARK VINA RESULT:      -0.1     74.348     77.380
ROOT
ATOM      1  C1  BGC B   1      54.795  51.647  48.4830  0.00  0.00     0.000 C
ATOM      2  C2  BGC B   1      55.527  51.385  49.7980  0.00  0.00     0.000 C
ATOM      3  C3  BGC B   1      56.939  50.905  49.5220  0.00  0.00     0.000 C
ATOM      4  C4  BGC B   1      56.927  49.727  48.5550  0.00  0.00     0.000 C
ATOM      5  C5  BGC B   1      56.181  50.143  47.2960  0.00  0.00     0.000 C
ATOM      6  O5  BGC B   1      54.835  50.473  47.6840  0.00  0.00     0.000 O
ATOM      7   O  BGC B   1      55.583  52.604  50.5590  0.00  0.00     0.000 O
ATOM      9  HD  BGC B   1      56.243  52.704  51.1100  0.00  0.00     0.000 HD
ATOM      9   O  BGC B   1      57.555  50.541  50.7610  0.00  0.00     0.000 O
ATOM     11  HD  BGC B   1      58.215  50.642  51.3120  0.00  0.00     0.000 HD
ATOM     11   O  BGC B   1      58.253  49.366  48.2320  0.00  0.00     0.000 O
ATOM     13  HD  BGC B   1      58.913  49.467  48.7830  0.00  0.00     0.000 HD
ATOM     13   C  BGC B   1      56.125  49.083  46.2060  0.00  0.00     0.000 C
ATOM     14   O  BGC B   1      55.575  47.854  46.6730  0.00  0.00     0.000 O
ATOM     16  HD  BGC B   1      56.236  47.955  47.2240  0.00  0.00     0.000 HD
ENDROOT
BRANCH 1 16
ATOM     16  O4  BGC B   2      53.420  51.820  48.8210  0.00  0.00     0.000 O
BRANCH 16 20
ATOM     17  C1  BGC B   2      50.099  53.878  47.6950  0.00  0.00     0.000 C
ATOM     18  C2  BGC B   2      50.449  52.726  46.7640  0.00  0.00     0.000 C
ATOM     19  C3  BGC B   2      51.461  51.825  47.4680  0.00  0.00     0.000 C
ATOM     20  C4  BGC B   2      52.654  52.633  47.9360  0.00  0.00     0.000 C
ATOM     21  C5  BGC B   2      52.242  53.888  48.7080  0.00  0.00     0.000 C
ATOM     22  O5  BGC B   2      51.309  54.628  47.9100  0.00  0.00     0.000 O
ATOM     23   O  BGC B   2      49.271  51.962  46.4600  0.00  0.00     0.000 O
ATOM     25  HD  BGC B   2      49.942  51.837  46.9920  0.00  0.00     0.000 HD
ATOM     25   O  BGC B   2      51.882  50.790  46.5880  0.00  0.00     0.000 O
ATOM     27  HD  BGC B   2      52.553  50.665  47.1210  0.00  0.00     0.000 HD
ATOM     27   C  BGC B   2      53.416  54.806  49.0200  0.00  0.00     0.000 C
ATOM     28   O  BGC B   2      54.139  55.206  47.8670  0.00  0.00     0.000 O
ATOM     30  HD  BGC B   2      54.810  55.081  48.4000  0.00  0.00     0.000 HD
BRANCH 17 30
ATOM     30  O4  BGC B   3      49.250  54.747  46.9680  0.00  0.00     0.000 O
BRANCH 30 34
ATOM     31  C1  BGC B   3      46.129  57.352  47.5990  0.00  0.00     0.000 C
ATOM     32  C2  BGC B   3      47.483  57.850  48.1030  0.00  0.00     0.000 C
ATOM     33  C3  BGC B   3      48.581  57.014  47.4700  0.00  0.00     0.000 C
ATOM     34  C4  BGC B   3      48.344  55.531  47.7520  0.00  0.00     0.000 C
ATOM     35  C5  BGC B   3      46.931  55.137  47.3580  0.00  0.00     0.000 C
ATOM     36  O5  BGC B   3      45.996  56.002  48.0120  0.00  0.00     0.000 O
ATOM     37   O  BGC B   3      47.667  59.209  47.7100  0.00  0.00     0.000 O
ATOM     39  HD  BGC B   3      48.370  59.242  48.2150  0.00  0.00     0.000 HD
ATOM     39   O  BGC B   3      49.829  57.432  48.0030  0.00  0.00     0.000 O
ATOM     41  HD  BGC B   3      50.532  57.466  48.5080  0.00  0.00     0.000 HD
ATOM     41   C  BGC B   3      46.575  53.692  47.6890  0.00  0.00     0.000 C
ATOM     42   O  BGC B   3      46.738  53.456  49.0670  0.00  0.00     0.000 O
ATOM     44  HD  BGC B   3      47.441  53.489  49.5720  0.00  0.00     0.000 HD
BRANCH 31 44
ATOM     44  O4  BGC B   4      45.139  58.078  48.2810  0.00  0.00     0.000 O
BRANCH 44 48
ATOM     45  C1  BGC B   4      41.351  59.552  47.7500  0.00  0.00     0.000 C
ATOM     46  C2  BGC B   4      41.425  58.048  47.9710  0.00  0.00     0.000 C
ATOM     47  C3  BGC B   4      42.777  57.688  48.5350  0.00  0.00     0.000 C
ATOM     48  C4  BGC B   4      43.891  58.237  47.6380  0.00  0.00     0.000 C
ATOM     49  C5  BGC B   4      43.687  59.736  47.3810  0.00  0.00     0.000 C
ATOM     50  O5  BGC B   4      42.376  59.961  46.8430  0.00  0.00     0.000 O
ATOM     51   O  BGC B   4      40.403  57.635  48.8980  0.00  0.00     0.000 O
ATOM     53  HD  BGC B   4      41.086  57.620  49.4310  0.00  0.00     0.000 HD
ATOM     53   O  BGC B   4      42.880  56.259  48.6140  0.00  0.00     0.000 O
ATOM     55  HD  BGC B   4      43.562  56.245  49.1460  0.00  0.00     0.000 HD
ATOM     55   C  BGC B   4      44.678  60.346  46.4060  0.00  0.00     0.000 C
ATOM     56   O  BGC B   4      44.619  59.590  45.1950  0.00  0.00     0.000 O
ATOM     58  HD  BGC B   4      45.302  59.576  45.7280  0.00  0.00     0.000 HD
BRANCH 45 58
ATOM     58  O4  BGC B   5      40.166  59.778  46.9880  0.00  0.00     0.000 O
BRANCH 58 62
ATOM     59  C1  BGC B   5      36.778  62.158  46.8900  0.00  0.00     0.000 C
ATOM     60  C2  BGC B   5      38.050  62.816  46.3920  0.00  0.00     0.000 C
ATOM     61  C3  BGC B   5      39.103  61.770  46.0790  0.00  0.00     0.000 C
ATOM     62  C4  BGC B   5      39.322  60.889  47.2990  0.00  0.00     0.000 C
ATOM     63  C5  BGC B   5      37.988  60.319  47.8010  0.00  0.00     0.000 C
ATOM     64  O5  BGC B   5      37.095  61.397  48.0600  0.00  0.00     0.000 O
ATOM     65   O  BGC B   5      38.714  60.399  50.0290  0.00  0.00     0.000 O
ATOM     67  HD  BGC B   5      39.437  60.427  50.5040  0.00  0.00     0.000 HD
ATOM     67   O  BGC B   5      38.714  60.399  50.0290  0.00  0.00     0.000 O
ATOM     69  HD  BGC B   5      39.437  60.427  50.5040  0.00  0.00     0.000 HD
ENDBRANCH 58 62
ENDBRANCH 45 58
ENDBRANCH 44 48
ENDBRANCH 31 44
ENDBRANCH 30 34
ENDBRANCH 17 30
ENDBRANCH 16 20
ENDBRANCH 1 16
TORSDOF 8
ENDMDL
MODEL 97
REMARK VINA RESULT:      -0.1     69.367     71.411
ROOT
ATOM      1  C1  BGC B   1      35.931   8.913  72.0600  0.00  0.00     0.000 C
ATOM      2  C2  BGC B   1      35.906   8.581  73.5510  0.00  0.00     0.000 C
ATOM      3  C3  BGC B   1      36.097   7.090  73.7550  0.00  0.00     0.000 C
ATOM      4  C4  BGC B   1      35.107   6.298  72.9100  0.00  0.00     0.000 C
ATOM      5  C5  BGC B   1      35.261   6.727  71.4580  0.00  0.00     0.000 C
ATOM      6  O5  BGC B   1      34.953   8.131  71.3890  0.00  0.00     0.000 O
ATOM      7   O  BGC B   1      36.968   9.289  74.2110  0.00  0.00     0.000 O
ATOM      9  HD  BGC B   1      37.297   8.940  74.9320  0.00  0.00     0.000 HD
ATOM      9   O  BGC B   1      35.937   6.789  75.1440  0.00  0.00     0.000 O
ATOM     11  HD  BGC B   1      36.266   6.440  75.8650  0.00  0.00     0.000 HD
ATOM     11   O  BGC B   1      35.373   4.919  73.0360  0.00  0.00     0.000 O
ATOM     13  HD  BGC B   1      35.703   4.569  73.7570  0.00  0.00     0.000 HD
ATOM     13   C  BGC B   1      34.367   5.985  70.4750  0.00  0.00     0.000 C
ATOM     14   O  BGC B   1      32.989   6.068  70.8270  0.00  0.00     0.000 O
ATOM     16  HD  BGC B   1      33.318   5.718  71.5480  0.00  0.00     0.000 HD
ENDROOT
BRANCH 1 16
ATOM     16  O4  BGC B   2      35.473  10.259  71.9440  0.00  0.00     0.000 O
BRANCH 16 20
ATOM     17  C1  BGC B   2      35.991  13.619  69.7120  0.00  0.00     0.000 C
ATOM     18  C2  BGC B   2      35.172  12.542  69.0150  0.00  0.00     0.000 C
ATOM     19  C3  BGC B   2      34.741  11.511  70.0560  0.00  0.00     0.000 C
ATOM     20  C4  BGC B   2      35.944  10.988  70.8130  0.00  0.00     0.000 C
ATOM     21  C5  BGC B   2      36.840  12.112  71.3330  0.00  0.00     0.000 C
ATOM     22  O5  BGC B   2      37.167  12.978  70.2390  0.00  0.00     0.000 O
ATOM     23   O  BGC B   2      34.002  13.122  68.4150  0.00  0.00     0.000 O
ATOM     25  HD  BGC B   2      34.137  12.661  69.1360  0.00  0.00     0.000 HD
ATOM     25   O  BGC B   2      34.054  10.440  69.4210  0.00  0.00     0.000 O
ATOM     27  HD  BGC B   2      34.188   9.979  70.1420  0.00  0.00     0.000 HD
ATOM     27   C  BGC B   2      38.147  11.603  71.9300  0.00  0.00     0.000 C
ATOM     28   O  BGC B   2      38.902  10.808  71.0310  0.00  0.00     0.000 O
ATOM     30  HD  BGC B   2      39.037  10.347  71.7520  0.00  0.00     0.000 HD
BRANCH 17 30
ATOM     30  O4  BGC B   3      36.465  14.490  68.7030  0.00  0.00     0.000 O
BRANCH 30 34
ATOM     31  C1  BGC B   3      37.433  18.451  68.1610  0.00  0.00     0.000 C
ATOM     32  C2  BGC B   3      38.416  17.672  69.0350  0.00  0.00     0.000 C
ATOM     33  C3  BGC B   3      38.181  16.185  68.8310  0.00  0.00     0.000 C
ATOM     34  C4  BGC B   3      36.720  15.837  69.1130  0.00  0.00     0.000 C
ATOM     35  C5  BGC B   3      35.798  16.746  68.3200  0.00  0.00     0.000 C
ATOM     36  O5  BGC B   3      36.125  18.112  68.5930  0.00  0.00     0.000 O
ATOM     37   O  BGC B   3      39.751  17.977  68.6380  0.00  0.00     0.000 O
ATOM     39  HD  BGC B   3      40.038  17.551  69.3350  0.00  0.00     0.000 HD
ATOM     39   O  BGC B   3      39.044  15.470  69.7020  0.00  0.00     0.000 O
ATOM     41  HD  BGC B   3      39.331  15.044  70.4000  0.00  0.00     0.000 HD
ATOM     41   C  BGC B   3      34.317  16.530  68.6090  0.00  0.00     0.000 C
ATOM     42   O  BGC B   3      34.058  16.716  69.9800  0.00  0.00     0.000 O
ATOM     44  HD  BGC B   3      34.345  16.290  70.6780  0.00  0.00     0.000 HD
BRANCH 31 44
ATOM     44  O4  BGC B   4      37.610  19.814  68.4520  0.00  0.00     0.000 O
BRANCH 44 48
ATOM     45  C1  BGC B   4      37.374  23.498  66.6690  0.00  0.00     0.000 C
ATOM     46  C2  BGC B   4      36.031  22.859  66.9930  0.00  0.00     0.000 C
ATOM     47  C3  BGC B   4      36.234  21.731  67.9740  0.00  0.00     0.000 C
ATOM     48  C4  BGC B   4      37.276  20.743  67.4410  0.00  0.00     0.000 C
ATOM     49  C5  BGC B   4      38.562  21.478  67.0430  0.00  0.00     0.000 C
ATOM     50  O5  BGC B   4      38.254  22.522  66.1070  0.00  0.00     0.000 O
ATOM     51   O  BGC B   4      35.148  23.835  67.5750  0.00  0.00     0.000 O
ATOM     53  HD  BGC B   4      35.380  23.414  68.2950  0.00  0.00     0.000 HD
ATOM     53   O  BGC B   4      34.983  21.056  68.1680  0.00  0.00     0.000 O
ATOM     55  HD  BGC B   4      35.215  20.635  68.8880  0.00  0.00     0.000 HD
ATOM     55   C  BGC B   4      39.614  20.597  66.3940  0.00  0.00     0.000 C
ATOM     56   O  BGC B   4      39.008  19.949  65.2740  0.00  0.00     0.000 O
ATOM     58  HD  BGC B   4      39.241  19.528  65.9940  0.00  0.00     0.000 HD
BRANCH 45 58
ATOM     58  O4  BGC B   5      37.138  24.365  65.5600  0.00  0.00     0.000 O
BRANCH 58 62
ATOM     59  C1  BGC B   5      37.850  28.232  64.2620  0.00  0.00     0.000 C
ATOM     60  C2  BGC B   5      39.024  27.280  64.1440  0.00  0.00     0.000 C
ATOM     61  C3  BGC B   5      38.554  25.841  64.2420  0.00  0.00     0.000 C
ATOM     62  C4  BGC B   5      37.756  25.653  65.5220  0.00  0.00     0.000 C
ATOM     63  C5  BGC B   5      36.634  26.697  65.6180  0.00  0.00     0.000 C
ATOM     64  O5  BGC B   5      37.205  27.997  65.5180  0.00  0.00     0.000 O
ATOM     65   O  BGC B   5      36.836  26.800  67.9520  0.00  0.00     0.000 O
ATOM     67  HD  BGC B   5      37.131  26.344  68.6260  0.00  0.00     0.000 HD
ATOM     67   O  BGC B   5      36.836  26.800  67.9520  0.00  0.00     0.000 O
ATOM     69  HD  BGC B   5      37.131  26.344  68.6260  0.00  0.00     0.000 HD
ENDBRANCH 58 62
ENDBRANCH 45 58
ENDBRANCH 44 48
ENDBRANCH 31 44
ENDBRANCH 30 34
ENDBRANCH 17 30
ENDBRANCH 16 20
ENDBRANCH 1 16
TORSDOF 8
ENDMDL
MODEL 98
REMARK VINA RESULT:      -0.1     56.888     63.621
ROOT
ATOM      1  C1  BGC B   1      47.773   8.703  62.8130  0.00  0.00     0.000 C
ATOM      2  C2  BGC B   1      49.000   8.853  63.7100  0.00  0.00     0.000 C
ATOM      3  C3  BGC B   1      48.663   8.435  65.1280  0.00  0.00     0.000 C
ATOM      4  C4  BGC B   1      47.421   9.165  65.6240  0.00  0.00     0.000 C
ATOM      5  C5  BGC B   1      46.287   8.909  64.6410  0.00  0.00     0.000 C
ATOM      6  O5  BGC B   1      46.694   9.443  63.3680  0.00  0.00     0.000 O
ATOM      7   O  BGC B   1      50.057   8.017  63.2090  0.00  0.00     0.000 O
ATOM      9  HD  BGC B   1      50.641   7.723  63.7770  0.00  0.00     0.000 HD
ATOM      9   O  BGC B   1      49.786   8.711  65.9710  0.00  0.00     0.000 O
ATOM     11  HD  BGC B   1      50.370   8.417  66.5390  0.00  0.00     0.000 HD
ATOM     11   O  BGC B   1      47.067   8.683  66.9020  0.00  0.00     0.000 O
ATOM     13  HD  BGC B   1      47.651   8.389  67.4700  0.00  0.00     0.000 HD
ATOM     13   C  BGC B   1      44.955   9.537  65.0260  0.00  0.00     0.000 C
ATOM     14   O  BGC B   1      45.059  10.941  65.2420  0.00  0.00     0.000 O
ATOM     16  HD  BGC B   1      45.643  10.647  65.8100  0.00  0.00     0.000 HD
ENDROOT
BRANCH 1 16
ATOM     16  O4  BGC B   2      48.089   9.367  61.5910  0.00  0.00     0.000 O
BRANCH 16 20
ATOM     17  C1  BGC B   2      47.416   9.156  57.5860  0.00  0.00     0.000 C
ATOM     18  C2  BGC B   2      46.229   9.683  58.3780  0.00  0.00     0.000 C
ATOM     19  C3  BGC B   2      46.709  10.059  59.7780  0.00  0.00     0.000 C
ATOM     20  C4  BGC B   2      47.421   8.889  60.4260  0.00  0.00     0.000 C
ATOM     21  C5  BGC B   2      48.480   8.272  59.5110  0.00  0.00     0.000 C
ATOM     22  O5  BGC B   2      47.870   7.963  58.2520  0.00  0.00     0.000 O
ATOM     23   O  BGC B   2      45.687  10.850  57.7380  0.00  0.00     0.000 O
ATOM     25  HD  BGC B   2      46.194  10.730  58.4300  0.00  0.00     0.000 HD
ATOM     25   O  BGC B   2      45.604  10.466  60.5760  0.00  0.00     0.000 O
ATOM     27  HD  BGC B   2      46.111  10.346  61.2680  0.00  0.00     0.000 HD
ATOM     27   C  BGC B   2      49.070   6.983  60.0700  0.00  0.00     0.000 C
ATOM     28   O  BGC B   2      48.093   5.995  60.3550  0.00  0.00     0.000 O
ATOM     30  HD  BGC B   2      48.600   5.875  61.0470  0.00  0.00     0.000 HD
BRANCH 17 30
ATOM     30  O4  BGC B   3      46.913   8.714  56.3390  0.00  0.00     0.000 O
BRANCH 30 34
ATOM     31  C1  BGC B   3      48.084   8.379  52.4100  0.00  0.00     0.000 C
ATOM     32  C2  BGC B   3      48.768   7.398  53.3620  0.00  0.00     0.000 C
ATOM     33  C3  BGC B   3      47.982   7.346  54.6600  0.00  0.00     0.000 C
ATOM     34  C4  BGC B   3      47.837   8.749  55.2470  0.00  0.00     0.000 C
ATOM     35  C5  BGC B   3      47.286   9.704  54.2030  0.00  0.00     0.000 C
ATOM     36  O5  BGC B   3      48.107   9.654  53.0320  0.00  0.00     0.000 O
ATOM     37   O  BGC B   3      48.769   6.095  52.7820  0.00  0.00     0.000 O
ATOM     39  HD  BGC B   3      49.296   5.831  53.4170  0.00  0.00     0.000 HD
ATOM     39   O  BGC B   3      48.666   6.492  55.5660  0.00  0.00     0.000 O
ATOM     41  HD  BGC B   3      49.193   6.228  56.2000  0.00  0.00     0.000 HD
ATOM     41   C  BGC B   3      47.193  11.151  54.6740  0.00  0.00     0.000 C
ATOM     42   O  BGC B   3      48.461  11.612  55.0780  0.00  0.00     0.000 O
ATOM     44  HD  BGC B   3      48.988  11.348  55.7130  0.00  0.00     0.000 HD
BRANCH 31 44
ATOM     44  O4  BGC B   4      48.892   8.478  51.2650  0.00  0.00     0.000 O
BRANCH 44 48
ATOM     45  C1  BGC B   4      48.609   9.115  47.2250  0.00  0.00     0.000 C
ATOM     46  C2  BGC B   4      48.417  10.359  48.0820  0.00  0.00     0.000 C
ATOM     47  C3  BGC B   4      48.923  10.091  49.4780  0.00  0.00     0.000 C
ATOM     48  C4  BGC B   4      48.260   8.835  50.0530  0.00  0.00     0.000 C
ATOM     49  C5  BGC B   4      48.410   7.655  49.0850  0.00  0.00     0.000 C
ATOM     50  O5  BGC B   4      47.894   8.018  47.7950  0.00  0.00     0.000 O
ATOM     51   O  BGC B   4      49.150  11.463  47.5200  0.00  0.00     0.000 O
ATOM     53  HD  BGC B   4      49.690  11.255  48.1650  0.00  0.00     0.000 HD
ATOM     53   O  BGC B   4      48.617  11.222  50.3060  0.00  0.00     0.000 O
ATOM     55  HD  BGC B   4      49.157  11.013  50.9510  0.00  0.00     0.000 HD
ATOM     55   C  BGC B   4      47.683   6.394  49.5150  0.00  0.00     0.000 C
ATOM     56   O  BGC B   4      46.311   6.733  49.7260  0.00  0.00     0.000 O
ATOM     58  HD  BGC B   4      46.850   6.524  50.3710  0.00  0.00     0.000 HD
BRANCH 45 58
ATOM     58  O4  BGC B   5      47.883   9.355  46.0200  0.00  0.00     0.000 O
BRANCH 58 62
ATOM     59  C1  BGC B   5      48.272   9.145  41.9030  0.00  0.00     0.000 C
ATOM     60  C2  BGC B   5      48.040   7.821  42.6020  0.00  0.00     0.000 C
ATOM     61  C3  BGC B   5      47.505   8.046  44.0040  0.00  0.00     0.000 C
ATOM     62  C4  BGC B   5      48.445   8.968  44.7640  0.00  0.00     0.000 C
ATOM     63  C5  BGC B   5      48.702  10.255  43.9670  0.00  0.00     0.000 C
ATOM     64  O5  BGC B   5      49.202   9.907  42.6800  0.00  0.00     0.000 O
ATOM     65   O  BGC B   5      50.900  10.396  44.7710  0.00  0.00     0.000 O
ATOM     67  HD  BGC B   5      51.400  10.122  45.4230  0.00  0.00     0.000 HD
ATOM     67   O  BGC B   5      50.900  10.396  44.7710  0.00  0.00     0.000 O
ATOM     69  HD  BGC B   5      51.400  10.122  45.4230  0.00  0.00     0.000 HD
ENDBRANCH 58 62
ENDBRANCH 45 58
ENDBRANCH 44 48
ENDBRANCH 31 44
ENDBRANCH 30 34
ENDBRANCH 17 30
ENDBRANCH 16 20
ENDBRANCH 1 16
TORSDOF 8
ENDMDL
MODEL 99
REMARK VINA RESULT:      -0.1     55.231     59.066
ROOT
ATOM      1  C1  BGC B   1      47.122  15.366  45.8720  0.00  0.00     0.000 C
ATOM      2  C2  BGC B   1      46.442  15.602  47.2190  0.00  0.00     0.000 C
ATOM      3  C3  BGC B   1      45.164  16.396  47.0260  0.00  0.00     0.000 C
ATOM      4  C4  BGC B   1      45.432  17.660  46.2190  0.00  0.00     0.000 C
ATOM      5  C5  BGC B   1      46.092  17.263  44.9060  0.00  0.00     0.000 C
ATOM      6  O5  BGC B   1      47.336  16.615  45.2290  0.00  0.00     0.000 O
ATOM      7   O  BGC B   1      46.126  14.335  47.8190  0.00  0.00     0.000 O
ATOM      9  HD  BGC B   1      45.452  14.304  48.3620  0.00  0.00     0.000 HD
ATOM      9   O  BGC B   1      44.621  16.717  48.3100  0.00  0.00     0.000 O
ATOM     11  HD  BGC B   1      43.947  16.686  48.8530  0.00  0.00     0.000 HD
ATOM     11   O  BGC B   1      44.214  18.325  45.9620  0.00  0.00     0.000 O
ATOM     13  HD  BGC B   1      43.540  18.294  46.5050  0.00  0.00     0.000 HD
ATOM     13   C  BGC B   1      46.380  18.419  43.9600  0.00  0.00     0.000 C
ATOM     14   O  BGC B   1      47.166  19.437  44.5720  0.00  0.00     0.000 O
ATOM     16  HD  BGC B   1      46.492  19.406  45.1160  0.00  0.00     0.000 HD
ENDROOT
BRANCH 1 16
ATOM     16  O4  BGC B   2      48.426  14.870  46.1660  0.00  0.00     0.000 O
BRANCH 16 20
ATOM     17  C1  BGC B   2      51.264  12.331  44.7370  0.00  0.00     0.000 C
ATOM     18  C2  BGC B   2      51.175  13.643  43.9710  0.00  0.00     0.000 C
ATOM     19  C3  BGC B   2      50.362  14.634  44.7990  0.00  0.00     0.000 C
ATOM     20  C4  BGC B   2      49.020  14.038  45.1720  0.00  0.00     0.000 C
ATOM     21  C5  BGC B   2      49.150  12.636  45.7670  0.00  0.00     0.000 C
ATOM     22  O5  BGC B   2      49.921  11.829  44.8670  0.00  0.00     0.000 O
ATOM     23   O  BGC B   2      52.491  14.178  43.7550  0.00  0.00     0.000 O
ATOM     25  HD  BGC B   2      51.853  14.370  44.3080  0.00  0.00     0.000 HD
ATOM     25   O  BGC B   2      50.179  15.841  44.0680  0.00  0.00     0.000 O
ATOM     27  HD  BGC B   2      49.541  16.032  44.6210  0.00  0.00     0.000 HD
ATOM     27   C  BGC B   2      47.806  11.949  45.9700  0.00  0.00     0.000 C
ATOM     28   O  BGC B   2      47.033  11.863  44.7830  0.00  0.00     0.000 O
ATOM     30  HD  BGC B   2      46.395  12.054  45.3360  0.00  0.00     0.000 HD
BRANCH 17 30
ATOM     30  O4  BGC B   3      51.924  11.407  43.8930  0.00  0.00     0.000 O
BRANCH 30 34
ATOM     31  C1  BGC B   3      54.420   8.146  44.1340  0.00  0.00     0.000 C
ATOM     32  C2  BGC B   3      52.989   7.886  44.6020  0.00  0.00     0.000 C
ATOM     33  C3  BGC B   3      52.096   9.007  44.1000  0.00  0.00     0.000 C
ATOM     34  C4  BGC B   3      52.640  10.360  44.5550  0.00  0.00     0.000 C
ATOM     35  C5  BGC B   3      54.106  10.493  44.1820  0.00  0.00     0.000 C
ATOM     36  O5  BGC B   3      54.834   9.377  44.7060  0.00  0.00     0.000 O
ATOM     37   O  BGC B   3      52.525   6.656  44.0500  0.00  0.00     0.000 O
ATOM     39  HD  BGC B   3      51.828   6.709  44.5620  0.00  0.00     0.000 HD
ATOM     39   O  BGC B   3      50.786   8.798  44.6040  0.00  0.00     0.000 O
ATOM     41  HD  BGC B   3      50.089   8.850  45.1160  0.00  0.00     0.000 HD
ATOM     41   C  BGC B   3      54.758  11.779  44.6800  0.00  0.00     0.000 C
ATOM     42   O  BGC B   3      54.641  11.872  46.0800  0.00  0.00     0.000 O
ATOM     44  HD  BGC B   3      53.945  11.925  46.5920  0.00  0.00     0.000 HD
BRANCH 31 44
ATOM     44  O4  BGC B   4      55.231   7.150  44.7010  0.00  0.00     0.000 O
BRANCH 44 48
ATOM     45  C1  BGC B   4      58.625   4.989  43.9150  0.00  0.00     0.000 C
ATOM     46  C2  BGC B   4      58.870   6.436  44.3180  0.00  0.00     0.000 C
ATOM     47  C3  BGC B   4      57.621   7.000  44.9510  0.00  0.00     0.000 C
ATOM     48  C4  BGC B   4      56.421   6.813  44.0170  0.00  0.00     0.000 C
ATOM     49  C5  BGC B   4      56.305   5.348  43.5760  0.00  0.00     0.000 C
ATOM     50  O5  BGC B   4      57.541   4.920  42.9870  0.00  0.00     0.000 O
ATOM     51   O  BGC B   4      59.951   6.508  45.2670  0.00  0.00     0.000 O
ATOM     53  HD  BGC B   4      59.284   6.600  45.8120  0.00  0.00     0.000 HD
ATOM     53   O  BGC B   4      57.822   8.398  45.2050  0.00  0.00     0.000 O
ATOM     55  HD  BGC B   4      57.155   8.489  45.7500  0.00  0.00     0.000 HD
ATOM     55   C  BGC B   4      55.212   5.085  42.5550  0.00  0.00     0.000 C
ATOM     56   O  BGC B   4      55.435   5.955  41.4440  0.00  0.00     0.000 O
ATOM     58  HD  BGC B   4      54.768   6.047  41.9890  0.00  0.00     0.000 HD
BRANCH 45 58
ATOM     58  O4  BGC B   5      59.740   4.615  43.1050  0.00  0.00     0.000 O
BRANCH 58 62
ATOM     59  C1  BGC B   5      62.548   1.607  42.6470  0.00  0.00     0.000 C
ATOM     60  C2  BGC B   5      61.169   1.298  42.0990  0.00  0.00     0.000 C
ATOM     61  C3  BGC B   5      60.362   2.572  41.9390  0.00  0.00     0.000 C
ATOM     62  C4  BGC B   5      60.328   3.322  43.2610  0.00  0.00     0.000 C
ATOM     63  C5  BGC B   5      61.750   3.532  43.8010  0.00  0.00     0.000 C
ATOM     64  O5  BGC B   5      62.394   2.267  43.9070  0.00  0.00     0.000 O
ATOM     65   O  BGC B   5      61.012   3.332  46.0170  0.00  0.00     0.000 O
ATOM     67  HD  BGC B   5      60.297   3.398  46.5000  0.00  0.00     0.000 HD
ATOM     67   O  BGC B   5      61.012   3.332  46.0170  0.00  0.00     0.000 O
ATOM     69  HD  BGC B   5      60.297   3.398  46.5000  0.00  0.00     0.000 HD
ENDBRANCH 58 62
ENDBRANCH 45 58
ENDBRANCH 44 48
ENDBRANCH 31 44
ENDBRANCH 30 34
ENDBRANCH 17 30
ENDBRANCH 16 20
ENDBRANCH 1 16
TORSDOF 8
ENDMDL
MODEL 100
REMARK VINA RESULT:      -0.1     73.139     80.936
ROOT
ATOM      1  C1  BGC B   1      54.785  56.755  59.9960  0.00  0.00     0.000 C
ATOM      2  C2  BGC B   1      54.267  58.190  59.9230  0.00  0.00     0.000 C
ATOM      3  C3  BGC B   1      55.287  59.143  60.5150  0.00  0.00     0.000 C
ATOM      4  C4  BGC B   1      55.705  58.689  61.9080  0.00  0.00     0.000 C
ATOM      5  C5  BGC B   1      56.209  57.256  61.8170  0.00  0.00     0.000 C
ATOM      6  O5  BGC B   1      55.118  56.446  61.3430  0.00  0.00     0.000 O
ATOM      7   O  BGC B   1      54.036  58.540  58.5480  0.00  0.00     0.000 O
ATOM      9  HD  BGC B   1      54.099  59.375  58.3280  0.00  0.00     0.000 HD
ATOM      9   O  BGC B   1      54.724  60.458  60.5550  0.00  0.00     0.000 O
ATOM     11  HD  BGC B   1      54.787  61.293  60.3350  0.00  0.00     0.000 HD
ATOM     11   O  BGC B   1      56.729  59.530  62.3930  0.00  0.00     0.000 O
ATOM     13  HD  BGC B   1      56.792  60.365  62.1740  0.00  0.00     0.000 HD
ATOM     13   C  BGC B   1      56.712  56.672  63.1290  0.00  0.00     0.000 C
ATOM     14   O  BGC B   1      55.736  56.743  64.1640  0.00  0.00     0.000 O
ATOM     16  HD  BGC B   1      55.799  57.578  63.9440  0.00  0.00     0.000 HD
ENDROOT
BRANCH 1 16
ATOM     16  O4  BGC B   2      53.676  55.915  59.6850  0.00  0.00     0.000 O
BRANCH 16 20
ATOM     17  C1  BGC B   2      52.759  52.387  57.8820  0.00  0.00     0.000 C
ATOM     18  C2  BGC B   2      53.398  52.225  59.2530  0.00  0.00     0.000 C
ATOM     19  C3  BGC B   2      53.357  53.572  59.9700  0.00  0.00     0.000 C
ATOM     20  C4  BGC B   2      53.989  54.648  59.1110  0.00  0.00     0.000 C
ATOM     21  C5  BGC B   2      53.446  54.647  57.6810  0.00  0.00     0.000 C
ATOM     22  O5  BGC B   2      53.570  53.322  57.1480  0.00  0.00     0.000 O
ATOM     23   O  BGC B   2      52.668  51.258  60.0270  0.00  0.00     0.000 O
ATOM     25  HD  BGC B   2      52.700  52.124  60.0300  0.00  0.00     0.000 HD
ATOM     25   O  BGC B   2      54.033  53.478  61.2180  0.00  0.00     0.000 O
ATOM     27  HD  BGC B   2      54.065  54.343  61.2210  0.00  0.00     0.000 HD
ATOM     27   C  BGC B   2      54.202  55.592  56.7570  0.00  0.00     0.000 C
ATOM     28   O  BGC B   2      55.596  55.334  56.7070  0.00  0.00     0.000 O
ATOM     30  HD  BGC B   2      55.627  56.200  56.7090  0.00  0.00     0.000 HD
BRANCH 17 30
ATOM     30  O4  BGC B   3      52.916  51.153  57.2080  0.00  0.00     0.000 O
BRANCH 30 34
ATOM     31  C1  BGC B   3      50.996  48.823  54.4130  0.00  0.00     0.000 C
ATOM     32  C2  BGC B   3      51.631  50.095  53.8510  0.00  0.00     0.000 C
ATOM     33  C3  BGC B   3      52.621  50.640  54.8660  0.00  0.00     0.000 C
ATOM     34  C4  BGC B   3      51.932  50.857  56.2130  0.00  0.00     0.000 C
ATOM     35  C5  BGC B   3      51.202  49.596  56.6420  0.00  0.00     0.000 C
ATOM     36  O5  BGC B   3      50.310  49.185  55.6010  0.00  0.00     0.000 O
ATOM     37   O  BGC B   3      52.338  49.784  52.6530  0.00  0.00     0.000 O
ATOM     39  HD  BGC B   3      52.442  50.633  52.5140  0.00  0.00     0.000 HD
ATOM     39   O  BGC B   3      53.148  51.861  54.3700  0.00  0.00     0.000 O
ATOM     41  HD  BGC B   3      53.252  52.709  54.2310  0.00  0.00     0.000 HD
ATOM     41   C  BGC B   3      50.407  49.750  57.9340  0.00  0.00     0.000 C
ATOM     42   O  BGC B   3      49.467  50.790  57.8050  0.00  0.00     0.000 O
ATOM     44  HD  BGC B   3      49.571  51.639  57.6660  0.00  0.00     0.000 HD
BRANCH 31 44
ATOM     44  O4  BGC B   4      50.017  48.408  53.4960  0.00  0.00     0.000 O
BRANCH 44 48
ATOM     45  C1  BGC B   4      48.246  44.997  52.0700  0.00  0.00     0.000 C
ATOM     46  C2  BGC B   4      47.801  45.411  53.4660  0.00  0.00     0.000 C
ATOM     47  C3  BGC B   4      48.200  46.844  53.7170  0.00  0.00     0.000 C
ATOM     48  C4  BGC B   4      49.699  47.031  53.4640  0.00  0.00     0.000 C
ATOM     49  C5  BGC B   4      50.083  46.498  52.0780  0.00  0.00     0.000 C
ATOM     50  O5  BGC B   4      49.663  45.131  51.9520  0.00  0.00     0.000 O
ATOM     51   O  BGC B   4      46.371  45.293  53.5840  0.00  0.00     0.000 O
ATOM     53  HD  BGC B   4      46.430  46.151  53.4840  0.00  0.00     0.000 HD
ATOM     53   O  BGC B   4      47.893  47.178  55.0780  0.00  0.00     0.000 O
ATOM     55  HD  BGC B   4      47.952  48.036  54.9780  0.00  0.00     0.000 HD
ATOM     55   C  BGC B   4      51.572  46.534  51.7820  0.00  0.00     0.000 C
ATOM     56   O  BGC B   4      52.240  45.823  52.8250  0.00  0.00     0.000 O
ATOM     58  HD  BGC B   4      52.300  46.681  52.7260  0.00  0.00     0.000 HD
BRANCH 45 58
ATOM     58  O4  BGC B   5      48.070  43.582  52.0070  0.00  0.00     0.000 O
BRANCH 58 62
ATOM     59  C1  BGC B   5      46.451  40.620  49.6080  0.00  0.00     0.000 C
ATOM     60  C2  BGC B   5      47.789  41.167  49.1530  0.00  0.00     0.000 C
ATOM     61  C3  BGC B   5      48.473  41.912  50.2830  0.00  0.00     0.000 C
ATOM     62  C4  BGC B   5      47.539  42.985  50.8220  0.00  0.00     0.000 C
ATOM     63  C5  BGC B   5      46.176  42.380  51.1900  0.00  0.00     0.000 C
ATOM     64  O5  BGC B   5      45.644  41.717  50.0490  0.00  0.00     0.000 O
ATOM     65   O  BGC B   5      45.059  44.342  50.5580  0.00  0.00     0.000 O
ATOM     67  HD  BGC B   5      45.195  45.188  50.4340  0.00  0.00     0.000 HD
ATOM     67   O  BGC B   5      45.059  44.342  50.5580  0.00  0.00     0.000 O
ATOM     69  HD  BGC B   5      45.195  45.188  50.4340  0.00  0.00     0.000 HD
ENDBRANCH 58 62
ENDBRANCH 45 58
ENDBRANCH 44 48
ENDBRANCH 31 44
ENDBRANCH 30 34
ENDBRANCH 17 30
ENDBRANCH 16 20
ENDBRANCH 1 16
TORSDOF 8
ENDMDL
