MODEL 1
REMARK VINA RESULT:      -6.3      0.000      0.000
ROOT
ATOM      1  C1  A00 X   1       4.207  15.379  19.1870  0.00  0.00     0.000 C
ATOM      2  C2  A00 X   1       2.834  14.745  18.8420  0.00  0.00     0.000 C
ATOM      3  C3  A00 X   1       1.663  15.746  18.5720  0.00  0.00     0.000 C
ATOM      4  C4  A00 X   1       1.911  17.205  19.0340  0.00  0.00     0.000 C
ATOM      5  C5  A00 X   1       2.978  17.291  20.1250  0.00  0.00     0.000 C
ATOM      6  O5  A00 X   1       4.183  16.794  19.5000  0.00  0.00     0.000 O
ATOM      7   O  A00 X   1       0.504  15.293  19.2670  0.00  0.00     0.000 O
ATOM      9  HD  A00 X   1       0.540  16.153  19.3650  0.00  0.00     0.000 HD
ATOM      9   O  A00 X   1       2.273  18.045  17.9380  0.00  0.00     0.000 O
ATOM     11  HD  A00 X   1       2.309  18.905  18.0360  0.00  0.00     0.000 HD
ENDROOT
BRANCH 2 11
ATOM     11   O  A00 X   1       3.015  13.911  17.6810  0.00  0.00     0.000 O
ATOM     12   O  A00 X   1       1.153  13.013  16.4580  0.00  0.00     0.000 OA
ATOM     13   O  A00 X   1       1.507  12.324  18.7640  0.00  0.00     0.000 OA
ATOM     14   O  A00 X   1       3.029  11.660  17.0610  0.00  0.00     0.000 OA
ATOM     15   S  A00 X   1       2.090  12.659  17.4940  0.00  0.00     0.000 S
ENDBRANCH 2 11
BRANCH 5 16
ATOM     16   C  A00 X   1       2.626  16.577  21.4340  0.00  0.00     0.000 C
ATOM     17   O  A00 X   1       3.504  16.398  22.2530  0.00  0.00     0.000 OA
ATOM     18   O  A00 X   1       1.502  16.190  21.6830  0.00  0.00     0.000 OA
ENDBRANCH 5 16
BRANCH 1 19
ATOM     19  O4  A00 X   2       4.935  14.628  20.1900  0.00  0.00     0.000 O
BRANCH 19 23
ATOM     20  C1  A00 X   2       6.082  10.503  20.3720  0.00  0.00     0.000 C
ATOM     21  C2  A00 X   2       6.639  11.349  19.2010  0.00  0.00     0.000 C
ATOM     22  C3  A00 X   2       6.508  12.857  19.5010  0.00  0.00     0.000 C
ATOM     23  C4  A00 X   2       5.048  13.215  19.8580  0.00  0.00     0.000 C
ATOM     24  C5  A00 X   2       4.604  12.291  21.0250  0.00  0.00     0.000 C
ATOM     25  O5  A00 X   2       4.705  10.909  20.5920  0.00  0.00     0.000 O
ATOM     26   O  A00 X   2       7.099  13.595  18.4190  0.00  0.00     0.000 O
ATOM     28  HD  A00 X   2       6.660  13.158  17.8140  0.00  0.00     0.000 HD
BRANCH 21 30
ATOM     28   N  A00 X   2       6.530  10.180  18.3230  0.00  0.00     0.000 N
ATOM     30  HD  A00 X   2       7.064  10.738  17.9320  0.00  0.00     0.000 HD
ATOM     30   O  A00 X   2       8.280  10.266  16.7770  0.00  0.00     0.000 OA
ATOM     31   S  A00 X   2       6.862  10.351  16.7870  0.00  0.00     0.000 S
ATOM     32   O  A00 X   2       6.187   9.252  16.1690  0.00  0.00     0.000 OA
ATOM     33   O  A00 X   2       6.283  11.592  16.3650  0.00  0.00     0.000 OA
ENDBRANCH 21 30
BRANCH 24 34
ATOM     34   C  A00 X   2       3.260  12.600  21.7250  0.00  0.00     0.000 C
ATOM     35   O  A00 X   2       2.571  11.887  25.2290  0.00  0.00     0.000 OA
ATOM     36   O  A00 X   2       3.151  11.901  22.9810  0.00  0.00     0.000 O
ATOM     37   O  A00 X   2       4.389  13.202  24.4800  0.00  0.00     0.000 OA
ATOM     38   S  A00 X   2       3.029  12.820  24.2520  0.00  0.00     0.000 S
ATOM     39   O  A00 X   2       2.097  13.854  23.9160  0.00  0.00     0.000 OA
ENDBRANCH 24 34
BRANCH 20 40
ATOM     40  O4  A00 X   3       6.874  10.854  21.5150  0.00  0.00     0.000 O
BRANCH 40 44
ATOM     41  C1  A00 X   3       8.819  11.280  24.5420  0.00  0.00     0.000 C
ATOM     42  C2  A00 X   3       9.362  10.689  23.2230  0.00  0.00     0.000 C
ATOM     43  C3  A00 X   3       8.437   9.560  22.6990  0.00  0.00     0.000 C
ATOM     44  C4  A00 X   3       6.962   9.933  22.6230  0.00  0.00     0.000 C
ATOM     45  C5  A00 X   3       6.490  10.514  23.9860  0.00  0.00     0.000 C
ATOM     46  O5  A00 X   3       7.396  11.568  24.4470  0.00  0.00     0.000 O
ATOM     47   O  A00 X   3       8.887   8.880  21.5280  0.00  0.00     0.000 O
ATOM     49  HD  A00 X   3       8.045   8.905  21.3270  0.00  0.00     0.000 HD
BRANCH 42 49
ATOM     49   O  A00 X   3       9.454  11.777  22.2780  0.00  0.00     0.000 O
ATOM     50   O  A00 X   3      10.021  12.020  19.9650  0.00  0.00     0.000 OA
ATOM     51   O  A00 X   3      11.310  10.563  21.3090  0.00  0.00     0.000 OA
ATOM     52   O  A00 X   3      11.445  12.887  21.7160  0.00  0.00     0.000 OA
ATOM     53   S  A00 X   3      10.620  11.828  21.2480  0.00  0.00     0.000 S
ENDBRANCH 42 49
BRANCH 45 54
ATOM     54   C  A00 X   3       6.269   9.410  25.0270  0.00  0.00     0.000 C
ATOM     55   O  A00 X   3       5.782   9.669  26.1090  0.00  0.00     0.000 OA
ATOM     56   O  A00 X   3       6.578   8.253  24.7880  0.00  0.00     0.000 OA
ENDBRANCH 45 54
BRANCH 41 57
ATOM     57  O4  A00 X   4       9.178  10.465  25.6800  0.00  0.00     0.000 O
BRANCH 57 61
ATOM     58  C1  A00 X   4      10.262  11.390  29.7550  0.00  0.00     0.000 C
ATOM     59  C2  A00 X   4       8.769  11.467  29.3500  0.00  0.00     0.000 C
ATOM     60  C3  A00 X   4       8.462  10.780  28.0030  0.00  0.00     0.000 C
ATOM     61  C4  A00 X   4       9.460  11.202  26.9040  0.00  0.00     0.000 C
ATOM     62  C5  A00 X   4      10.870  10.842  27.4340  0.00  0.00     0.000 C
ATOM     63  O5  A00 X   4      11.142  11.616  28.6300  0.00  0.00     0.000 O
BRANCH 59 66
ATOM     64   N  A00 X   4       7.349  11.733  29.6410  0.00  0.00     0.000 N
ATOM     66  HD  A00 X   4       6.925  12.269  29.1090  0.00  0.00     0.000 HD
ATOM     66   O  A00 X   4       8.082  12.982  31.5650  0.00  0.00     0.000 OA
ATOM     67   S  A00 X   4       6.957  12.225  31.1120  0.00  0.00     0.000 S
ATOM     68   O  A00 X   4       5.777  12.987  30.8240  0.00  0.00     0.000 OA
ATOM     69   O  A00 X   4       6.703  10.961  31.7430  0.00  0.00     0.000 OA
ENDBRANCH 59 66
BRANCH 62 70
ATOM     70   C  A00 X   4      12.010  11.091  26.4180  0.00  0.00     0.000 C
ATOM     71   O  A00 X   4      14.955  13.164  26.7870  0.00  0.00     0.000 OA
ATOM     72   O  A00 X   4      13.373  13.043  25.0470  0.00  0.00     0.000 OA
ATOM     73   O  A00 X   4      13.089  11.777  27.0730  0.00  0.00     0.000 O
ATOM     74   O  A00 X   4      12.790  14.168  27.1290  0.00  0.00     0.000 OA
ATOM     75   S  A00 X   4      13.553  13.152  26.4780  0.00  0.00     0.000 S
ENDBRANCH 62 70
ENDBRANCH 57 61
ENDBRANCH 41 57
ENDBRANCH 40 44
ENDBRANCH 20 40
ENDBRANCH 19 23
ENDBRANCH 1 19
TORSDOF 14
ENDMDL
MODEL 2
REMARK VINA RESULT:      -6.1     16.122     20.857
ROOT
ATOM      1  C1  A00 X   1      15.492  21.453  36.0340  0.00  0.00     0.000 C
ATOM      2  C2  A00 X   1      14.203  20.613  36.2420  0.00  0.00     0.000 C
ATOM      3  C3  A00 X   1      14.407  19.072  36.4160  0.00  0.00     0.000 C
ATOM      4  C4  A00 X   1      15.799  18.531  36.0000  0.00  0.00     0.000 C
ATOM      5  C5  A00 X   1      16.508  19.459  35.0140  0.00  0.00     0.000 C
ATOM      6  O5  A00 X   1      16.692  20.695  35.7400  0.00  0.00     0.000 O
ATOM      7   O  A00 X   1      13.450  18.390  35.6100  0.00  0.00     0.000 O
ATOM      9  HD  A00 X   1      14.201  17.966  35.5280  0.00  0.00     0.000 HD
ATOM      9   O  A00 X   1      16.633  18.306  37.1360  0.00  0.00     0.000 O
ATOM     11  HD  A00 X   1      17.384  17.883  37.0540  0.00  0.00     0.000 HD
ENDROOT
BRANCH 2 11
ATOM     11   O  A00 X   1      13.525  21.131  37.4030  0.00  0.00     0.000 O
ATOM     12   O  A00 X   1      12.211  19.724  38.8380  0.00  0.00     0.000 OA
ATOM     13   O  A00 X   1      11.515  20.052  36.5310  0.00  0.00     0.000 OA
ATOM     14   O  A00 X   1      11.411  21.848  38.0870  0.00  0.00     0.000 OA
ATOM     15   S  A00 X   1      12.076  20.626  37.7220  0.00  0.00     0.000 S
ENDBRANCH 2 11
BRANCH 5 16
ATOM     16   C  A00 X   1      15.798  19.639  33.6680  0.00  0.00     0.000 C
ATOM     17   O  A00 X   1      15.073  18.751  33.2700  0.00  0.00     0.000 OA
ATOM     18   O  A00 X   1      15.929  20.640  32.9910  0.00  0.00     0.000 OA
ENDBRANCH 5 16
BRANCH 1 19
ATOM     19  O4  A00 X   2      15.309  22.538  35.0930  0.00  0.00     0.000 O
BRANCH 19 23
ATOM     20  C1  A00 X   2      17.699  26.000  34.2750  0.00  0.00     0.000 C
ATOM     21  C2  A00 X   2      18.132  24.663  33.6260  0.00  0.00     0.000 C
ATOM     22  C3  A00 X   2      16.976  23.642  33.6470  0.00  0.00     0.000 C
ATOM     23  C4  A00 X   2      16.433  23.464  35.0830  0.00  0.00     0.000 C
ATOM     24  C5  A00 X   2      16.053  24.870  35.6240  0.00  0.00     0.000 C
ATOM     25  O5  A00 X   2      17.239  25.708  35.6210  0.00  0.00     0.000 O
ATOM     26   O  A00 X   2      17.405  22.446  32.9750  0.00  0.00     0.000 O
ATOM     28  HD  A00 X   2      18.138  22.391  33.4320  0.00  0.00     0.000 HD
BRANCH 21 30
ATOM     28   N  A00 X   2      19.531  25.073  33.7880  0.00  0.00     0.000 N
ATOM     30  HD  A00 X   2      19.525  24.420  33.2200  0.00  0.00     0.000 HD
ATOM     30   O  A00 X   2      20.762  24.174  32.0180  0.00  0.00     0.000 OA
ATOM     31   S  A00 X   2      20.671  24.038  33.4280  0.00  0.00     0.000 S
ATOM     32   O  A00 X   2      21.805  24.518  34.1560  0.00  0.00     0.000 OA
ATOM     33   O  A00 X   2      20.259  22.762  33.9320  0.00  0.00     0.000 OA
ENDBRANCH 21 30
BRANCH 24 34
ATOM     34   C  A00 X   2      15.271  24.948  36.9570  0.00  0.00     0.000 C
ATOM     35   O  A00 X   2      11.735  25.781  37.2020  0.00  0.00     0.000 OA
ATOM     36   O  A00 X   2      14.014  25.632  36.7850  0.00  0.00     0.000 O
ATOM     37   O  A00 X   2      12.588  24.012  35.8830  0.00  0.00     0.000 OA
ATOM     38   S  A00 X   2      12.734  24.770  37.0890  0.00  0.00     0.000 S
ATOM     39   O  A00 X   2      13.008  24.049  38.2960  0.00  0.00     0.000 OA
ENDBRANCH 24 34
BRANCH 20 40
ATOM     40  O4  A00 X   3      16.600  26.476  33.4840  0.00  0.00     0.000 O
BRANCH 40 44
ATOM     41  C1  A00 X   3      13.870  28.107  31.7480  0.00  0.00     0.000 C
ATOM     42  C2  A00 X   3      15.366  28.423  31.5300  0.00  0.00     0.000 C
ATOM     43  C3  A00 X   3      16.081  28.686  32.8800  0.00  0.00     0.000 C
ATOM     44  C4  A00 X   3      15.844  27.619  33.9410  0.00  0.00     0.000 C
ATOM     45  C5  A00 X   3      14.320  27.361  34.1060  0.00  0.00     0.000 C
ATOM     46  O5  A00 X   3      13.685  27.128  32.8070  0.00  0.00     0.000 O
ATOM     47   O  A00 X   3      17.451  29.074  32.7940  0.00  0.00     0.000 O
ATOM     49  HD  A00 X   3      17.522  28.563  33.4900  0.00  0.00     0.000 HD
BRANCH 42 49
ATOM     49   O  A00 X   3      15.941  27.291  30.8400  0.00  0.00     0.000 O
ATOM     50   O  A00 X   3      18.114  26.657  30.0620  0.00  0.00     0.000 OA
ATOM     51   O  A00 X   3      17.404  28.894  29.7700  0.00  0.00     0.000 OA
ATOM     52   O  A00 X   3      16.327  27.197  28.5260  0.00  0.00     0.000 OA
ATOM     53   S  A00 X   3      17.013  27.507  29.7330  0.00  0.00     0.000 S
ENDBRANCH 42 49
BRANCH 45 54
ATOM     54   C  A00 X   3      13.642  28.472  34.9180  0.00  0.00     0.000 C
ATOM     55   O  A00 X   3      12.489  28.357  35.2810  0.00  0.00     0.000 OA
ATOM     56   O  A00 X   3      14.248  29.490  35.2130  0.00  0.00     0.000 OA
ENDBRANCH 45 54
BRANCH 41 57
ATOM     57  O4  A00 X   4      13.090  29.312  31.9190  0.00  0.00     0.000 O
BRANCH 57 61
ATOM     58  C1  A00 X   4       8.940  30.193  31.1210  0.00  0.00     0.000 C
ATOM     59  C2  A00 X   4       9.285  28.914  31.9240  0.00  0.00     0.000 C
ATOM     60  C3  A00 X   4      10.734  28.891  32.4510  0.00  0.00     0.000 C
ATOM     61  C4  A00 X   4      11.750  29.266  31.3510  0.00  0.00     0.000 C
ATOM     62  C5  A00 X   4      11.338  30.668  30.8360  0.00  0.00     0.000 C
ATOM     63  O5  A00 X   4      10.017  30.588  30.2420  0.00  0.00     0.000 O
BRANCH 59 66
ATOM     64   N  A00 X   4       9.184  27.494  31.5410  0.00  0.00     0.000 N
ATOM     66  HD  A00 X   4       9.452  27.273  30.7480  0.00  0.00     0.000 HD
ATOM     66   O  A00 X   4       6.793  27.780  31.4930  0.00  0.00     0.000 OA
ATOM     67   S  A00 X   4       7.772  26.762  31.7130  0.00  0.00     0.000 S
ATOM     68   O  A00 X   4       7.869  25.768  30.6840  0.00  0.00     0.000 OA
ATOM     69   O  A00 X   4       7.915  26.246  33.0450  0.00  0.00     0.000 OA
ENDBRANCH 59 66
BRANCH 62 70
ATOM     70   C  A00 X   4      12.311  31.270  29.7940  0.00  0.00     0.000 C
ATOM     71   O  A00 X   4      13.100  30.060  26.4740  0.00  0.00     0.000 OA
ATOM     72   O  A00 X   4      14.509  30.728  28.2390  0.00  0.00     0.000 OA
ATOM     73   O  A00 X   4      12.125  30.607  28.5330  0.00  0.00     0.000 O
ATOM     74   O  A00 X   4      13.390  28.566  28.3450  0.00  0.00     0.000 OA
ATOM     75   S  A00 X   4      13.370  29.914  27.8770  0.00  0.00     0.000 S
ENDBRANCH 62 70
ENDBRANCH 57 61
ENDBRANCH 41 57
ENDBRANCH 40 44
ENDBRANCH 20 40
ENDBRANCH 19 23
ENDBRANCH 1 19
TORSDOF 14
ENDMDL
MODEL 3
REMARK VINA RESULT:      -6.0     41.178     46.512
ROOT
ATOM      1  C1  A00 X   1      14.250  53.740   3.2860  0.00  0.00     0.000 C
ATOM      2  C2  A00 X   1      14.829  52.327   3.5610  0.00  0.00     0.000 C
ATOM      3  C3  A00 X   1      16.033  51.890   2.6610  0.00  0.00     0.000 C
ATOM      4  C4  A00 X   1      16.259  52.744   1.3870  0.00  0.00     0.000 C
ATOM      5  C5  A00 X   1      14.993  53.484   0.9560  0.00  0.00     0.000 C
ATOM      6  O5  A00 X   1      14.691  54.369   2.0580  0.00  0.00     0.000 O
ATOM      7   O  A00 X   1      15.811  50.553   2.2180  0.00  0.00     0.000 O
ATOM      9  HD  A00 X   1      16.126  50.997   1.5450  0.00  0.00     0.000 HD
ATOM      9   O  A00 X   1      17.325  53.677   1.5670  0.00  0.00     0.000 O
ATOM     11  HD  A00 X   1      17.640  54.120   0.8930  0.00  0.00     0.000 HD
ENDROOT
BRANCH 2 11
ATOM     11   O  A00 X   1      15.236  52.280   4.9430  0.00  0.00     0.000 O
ATOM     12   O  A00 X   1      16.860  50.700   5.7370  0.00  0.00     0.000 OA
ATOM     13   O  A00 X   1      14.742  49.890   4.8570  0.00  0.00     0.000 OA
ATOM     14   O  A00 X   1      14.814  51.093   6.9080  0.00  0.00     0.000 OA
ATOM     15   S  A00 X   1      15.435  50.885   5.6280  0.00  0.00     0.000 S
ENDBRANCH 2 11
BRANCH 5 16
ATOM     16   C  A00 X   1      13.821  52.583   0.5550  0.00  0.00     0.000 C
ATOM     17   O  A00 X   1      12.755  53.099   0.2900  0.00  0.00     0.000 OA
ATOM     18   O  A00 X   1      13.922  51.374   0.4870  0.00  0.00     0.000 OA
ENDBRANCH 5 16
BRANCH 1 19
ATOM     19  O4  A00 X   2      12.808  53.791   3.4170  0.00  0.00     0.000 O
BRANCH 19 23
ATOM     20  C1  A00 X   2      10.327  57.234   4.0100  0.00  0.00     0.000 C
ATOM     21  C2  A00 X   2      10.294  56.561   2.6170  0.00  0.00     0.000 C
ATOM     22  C3  A00 X   2      10.872  55.132   2.6830  0.00  0.00     0.000 C
ATOM     23  C4  A00 X   2      12.285  55.146   3.3090  0.00  0.00     0.000 C
ATOM     24  C5  A00 X   2      12.187  55.859   4.6850  0.00  0.00     0.000 C
ATOM     25  O5  A00 X   2      11.702  57.211   4.4770  0.00  0.00     0.000 O
ATOM     26   O  A00 X   2      10.756  54.526   1.3840  0.00  0.00     0.000 O
ATOM     28  HD  A00 X   2      11.118  55.202   0.9820  0.00  0.00     0.000 HD
BRANCH 21 30
ATOM     28   N  A00 X   2      10.070  57.894   2.0490  0.00  0.00     0.000 N
ATOM     30  HD  A00 X   2       9.892  57.322   1.4230  0.00  0.00     0.000 HD
ATOM     30   O  A00 X   2       8.819  57.649   0.0900  0.00  0.00     0.000 OA
ATOM     31   S  A00 X   2      10.120  58.067   0.4780  0.00  0.00     0.000 S
ATOM     32   O  A00 X   2      10.384  59.461   0.3000  0.00  0.00     0.000 OA
ATOM     33   O  A00 X   2      11.222  57.287   0.0010  0.00  0.00     0.000 OA
ENDBRANCH 21 30
BRANCH 24 34
ATOM     34   C  A00 X   2      13.418  55.804   5.6200  0.00  0.00     0.000 C
ATOM     35   O  A00 X   2      13.285  54.776   9.1110  0.00  0.00     0.000 OA
ATOM     36   O  A00 X   2      13.021  55.711   7.0030  0.00  0.00     0.000 O
ATOM     37   O  A00 X   2      12.512  53.450   7.3120  0.00  0.00     0.000 OA
ATOM     38   S  A00 X   2      13.483  54.406   7.7480  0.00  0.00     0.000 S
ATOM     39   O  A00 X   2      14.847  54.185   7.3710  0.00  0.00     0.000 OA
ENDBRANCH 24 34
BRANCH 20 40
ATOM     40  O4  A00 X   3       9.518  56.408   4.8600  0.00  0.00     0.000 O
BRANCH 40 44
ATOM     41  C1  A00 X   3       6.923  55.871   7.3300  0.00  0.00     0.000 C
ATOM     42  C2  A00 X   3       7.172  57.204   6.5910  0.00  0.00     0.000 C
ATOM     43  C3  A00 X   3       8.663  57.619   6.6830  0.00  0.00     0.000 C
ATOM     44  C4  A00 X   3       9.650  56.526   6.2930  0.00  0.00     0.000 C
ATOM     45  C5  A00 X   3       9.338  55.222   7.0800  0.00  0.00     0.000 C
ATOM     46  O5  A00 X   3       7.920  54.874   6.9740  0.00  0.00     0.000 O
ATOM     47   O  A00 X   3       8.994  58.881   6.1080  0.00  0.00     0.000 O
ATOM     49  HD  A00 X   3       9.703  58.453   5.8540  0.00  0.00     0.000 HD
BRANCH 42 49
ATOM     49   O  A00 X   3       6.762  57.010   5.2190  0.00  0.00     0.000 O
ATOM     50   O  A00 X   3       6.845  58.278   3.1900  0.00  0.00     0.000 OA
ATOM     51   O  A00 X   3       6.273  59.380   5.2020  0.00  0.00     0.000 OA
ATOM     52   O  A00 X   3       4.751  57.809   4.3060  0.00  0.00     0.000 OA
ATOM     53   S  A00 X   3       6.120  58.180   4.4180  0.00  0.00     0.000 S
ENDBRANCH 42 49
BRANCH 45 54
ATOM     54   C  A00 X   3       9.833  55.302   8.5290  0.00  0.00     0.000 C
ATOM     55   O  A00 X   3       9.891  54.304   9.2190  0.00  0.00     0.000 OA
ATOM     56   O  A00 X   3      10.177  56.368   9.0150  0.00  0.00     0.000 OA
ENDBRANCH 45 54
BRANCH 41 57
ATOM     57  O4  A00 X   4       6.773  56.070   8.7530  0.00  0.00     0.000 O
BRANCH 57 61
ATOM     58  C1  A00 X   4       4.764  53.754  11.7930  0.00  0.00     0.000 C
ATOM     59  C2  A00 X   4       6.297  53.602  11.6370  0.00  0.00     0.000 C
ATOM     60  C3  A00 X   4       6.944  54.717  10.7910  0.00  0.00     0.000 C
ATOM     61  C4  A00 X   4       6.174  54.955   9.4740  0.00  0.00     0.000 C
ATOM     62  C5  A00 X   4       4.718  55.297   9.8750  0.00  0.00     0.000 C
ATOM     63  O5  A00 X   4       4.131  54.159  10.5570  0.00  0.00     0.000 O
BRANCH 59 66
ATOM     64   N  A00 X   4       7.033  52.446  11.0920  0.00  0.00     0.000 N
ATOM     66  HD  A00 X   4       6.701  52.054  10.3940  0.00  0.00     0.000 HD
ATOM     66   O  A00 X   4       6.362  51.221  13.0540  0.00  0.00     0.000 OA
ATOM     67   S  A00 X   4       7.415  51.254  12.0870  0.00  0.00     0.000 S
ATOM     68   O  A00 X   4       7.445  50.152  11.1700  0.00  0.00     0.000 OA
ATOM     69   O  A00 X   4       8.711  51.692  12.5220  0.00  0.00     0.000 OA
ENDBRANCH 59 66
BRANCH 62 70
ATOM     70   C  A00 X   4       3.807  55.680   8.6850  0.00  0.00     0.000 C
ATOM     71   O  A00 X   4       2.020  53.501   6.4120  0.00  0.00     0.000 OA
ATOM     72   O  A00 X   4       3.424  55.342   5.9860  0.00  0.00     0.000 OA
ATOM     73   O  A00 X   4       3.114  54.510   8.2210  0.00  0.00     0.000 O
ATOM     74   O  A00 X   4       4.402  53.212   6.6520  0.00  0.00     0.000 OA
ATOM     75   S  A00 X   4       3.288  54.102   6.7170  0.00  0.00     0.000 S
ENDBRANCH 62 70
ENDBRANCH 57 61
ENDBRANCH 41 57
ENDBRANCH 40 44
ENDBRANCH 20 40
ENDBRANCH 19 23
ENDBRANCH 1 19
TORSDOF 14
ENDMDL
MODEL 4
REMARK VINA RESULT:      -6.0     23.078     25.938
ROOT
ATOM      1  C1  A00 X   1      20.051  38.060  18.6910  0.00  0.00     0.000 C
ATOM      2  C2  A00 X   1      20.973  38.935  19.5820  0.00  0.00     0.000 C
ATOM      3  C3  A00 X   1      20.337  39.481  20.9020  0.00  0.00     0.000 C
ATOM      4  C4  A00 X   1      18.791  39.398  20.9830  0.00  0.00     0.000 C
ATOM      5  C5  A00 X   1      18.144  39.318  19.6000  0.00  0.00     0.000 C
ATOM      6  O5  A00 X   1      18.643  38.087  19.0320  0.00  0.00     0.000 O
ATOM      7   O  A00 X   1      20.676  40.859  21.0380  0.00  0.00     0.000 O
ATOM      9  HD  A00 X   1      19.847  40.776  21.2720  0.00  0.00     0.000 HD
ATOM      9   O  A00 X   1      18.368  38.290  21.7780  0.00  0.00     0.000 O
ATOM     11  HD  A00 X   1      17.539  38.207  22.0120  0.00  0.00     0.000 HD
ENDROOT
BRANCH 2 11
ATOM     11   O  A00 X   1      22.137  38.152  19.9100  0.00  0.00     0.000 O
ATOM     12   O  A00 X   1      23.776  38.914  21.4910  0.00  0.00     0.000 OA
ATOM     13   O  A00 X   1      23.445  40.157  19.4270  0.00  0.00     0.000 OA
ATOM     14   O  A00 X   1      24.405  37.981  19.3820  0.00  0.00     0.000 OA
ATOM     15   S  A00 X   1      23.517  38.876  20.0740  0.00  0.00     0.000 S
ENDBRANCH 2 11
BRANCH 5 16
ATOM     16   C  A00 X   1      18.372  40.542  18.7070  0.00  0.00     0.000 C
ATOM     17   O  A00 X   1      18.080  40.466  17.5310  0.00  0.00     0.000 OA
ATOM     18   O  A00 X   1      18.825  41.585  19.1340  0.00  0.00     0.000 OA
ENDBRANCH 5 16
BRANCH 1 19
ATOM     19  O4  A00 X   2      20.256  38.290  17.2750  0.00  0.00     0.000 O
BRANCH 19 23
ATOM     20  C1  A00 X   2      19.914  34.144  16.2460  0.00  0.00     0.000 C
ATOM     21  C2  A00 X   2      21.340  34.730  16.3860  0.00  0.00     0.000 C
ATOM     22  C3  A00 X   2      21.312  36.063  17.1620  0.00  0.00     0.000 C
ATOM     23  C4  A00 X   2      20.318  37.051  16.5120  0.00  0.00     0.000 C
ATOM     24  C5  A00 X   2      18.940  36.341  16.4130  0.00  0.00     0.000 C
ATOM     25  O5  A00 X   2      19.086  35.148  15.6010  0.00  0.00     0.000 O
ATOM     26   O  A00 X   2      22.662  36.531  17.3240  0.00  0.00     0.000 O
ATOM     28  HD  A00 X   2      22.849  36.437  16.4840  0.00  0.00     0.000 HD
BRANCH 21 30
ATOM     28   N  A00 X   2      21.761  33.807  15.3270  0.00  0.00     0.000 N
ATOM     30  HD  A00 X   2      22.483  34.110  15.6980  0.00  0.00     0.000 HD
ATOM     30   O  A00 X   2      24.003  33.258  15.6900  0.00  0.00     0.000 OA
ATOM     31   S  A00 X   2      23.218  33.951  14.7310  0.00  0.00     0.000 S
ATOM     32   O  A00 X   2      23.125  33.315  13.4530  0.00  0.00     0.000 OA
ATOM     33   O  A00 X   2      23.474  35.352  14.5710  0.00  0.00     0.000 OA
ENDBRANCH 21 30
BRANCH 24 34
ATOM     34   C  A00 X   2      17.713  37.192  16.0080  0.00  0.00     0.000 C
ATOM     35   O  A00 X   2      14.271  36.326  16.8220  0.00  0.00     0.000 OA
ATOM     36   O  A00 X   2      16.489  36.443  16.1470  0.00  0.00     0.000 O
ATOM     37   O  A00 X   2      15.991  36.561  18.4290  0.00  0.00     0.000 OA
ATOM     38   S  A00 X   2      15.460  37.026  17.1840  0.00  0.00     0.000 S
ATOM     39   O  A00 X   2      15.423  38.440  16.9660  0.00  0.00     0.000 OA
ENDBRANCH 24 34
BRANCH 20 40
ATOM     40  O4  A00 X   3      19.450  33.929  17.5870  0.00  0.00     0.000 O
BRANCH 40 44
ATOM     41  C1  A00 X   3      18.444  31.244  19.8000  0.00  0.00     0.000 C
ATOM     42  C2  A00 X   3      18.930  31.052  18.3470  0.00  0.00     0.000 C
ATOM     43  C3  A00 X   3      18.157  31.980  17.3760  0.00  0.00     0.000 C
ATOM     44  C4  A00 X   3      18.108  33.442  17.8010  0.00  0.00     0.000 C
ATOM     45  C5  A00 X   3      17.606  33.553  19.2680  0.00  0.00     0.000 C
ATOM     46  O5  A00 X   3      18.356  32.653  20.1470  0.00  0.00     0.000 O
ATOM     47   O  A00 X   3      18.462  31.826  15.9910  0.00  0.00     0.000 O
ATOM     49  HD  A00 X   3      18.388  32.689  15.9940  0.00  0.00     0.000 HD
BRANCH 42 49
ATOM     49   O  A00 X   3      20.346  31.335  18.3340  0.00  0.00     0.000 O
ATOM     50   O  A00 X   3      22.151  31.075  16.7830  0.00  0.00     0.000 OA
ATOM     51   O  A00 X   3      20.570  29.330  16.9970  0.00  0.00     0.000 OA
ATOM     52   O  A00 X   3      22.024  29.763  18.8100  0.00  0.00     0.000 OA
ATOM     53   S  A00 X   3      21.344  30.326  17.6950  0.00  0.00     0.000 S
ENDBRANCH 42 49
BRANCH 45 54
ATOM     54   C  A00 X   3      16.088  33.363  19.3640  0.00  0.00     0.000 C
ATOM     55   O  A00 X   3      15.408  33.292  18.3610  0.00  0.00     0.000 OA
ATOM     56   O  A00 X   3      15.535  33.282  20.4500  0.00  0.00     0.000 OA
ENDBRANCH 45 54
BRANCH 41 57
ATOM     57  O4  A00 X   4      17.233  30.498  20.0610  0.00  0.00     0.000 O
BRANCH 57 61
ATOM     58  C1  A00 X   4      16.014  28.275  23.5550  0.00  0.00     0.000 C
ATOM     59  C2  A00 X   4      15.272  29.593  23.2180  0.00  0.00     0.000 C
ATOM     60  C3  A00 X   4      15.538  30.099  21.7860  0.00  0.00     0.000 C
ATOM     61  C4  A00 X   4      17.044  30.093  21.4460  0.00  0.00     0.000 C
ATOM     62  C5  A00 X   4      17.530  28.636  21.6500  0.00  0.00     0.000 C
ATOM     63  O5  A00 X   4      17.366  28.269  23.0430  0.00  0.00     0.000 O
BRANCH 59 66
ATOM     64   N  A00 X   4      14.817  30.908  23.7040  0.00  0.00     0.000 N
ATOM     66  HD  A00 X   4      15.424  31.502  23.8760  0.00  0.00     0.000 HD
ATOM     66   O  A00 X   4      14.198  29.823  25.7620  0.00  0.00     0.000 OA
ATOM     67   S  A00 X   4      13.834  30.952  24.9650  0.00  0.00     0.000 S
ATOM     68   O  A00 X   4      14.175  32.231  25.5140  0.00  0.00     0.000 OA
ATOM     69   O  A00 X   4      12.564  30.918  24.2960  0.00  0.00     0.000 OA
ENDBRANCH 59 66
BRANCH 62 70
ATOM     70   C  A00 X   4      19.006  28.401  21.2500  0.00  0.00     0.000 C
ATOM     71   O  A00 X   4      20.321  26.422  18.5170  0.00  0.00     0.000 OA
ATOM     72   O  A00 X   4      20.901  26.464  20.7990  0.00  0.00     0.000 OA
ATOM     73   O  A00 X   4      19.053  27.759  19.9650  0.00  0.00     0.000 O
ATOM     74   O  A00 X   4      18.842  25.363  20.1010  0.00  0.00     0.000 OA
ATOM     75   S  A00 X   4      19.806  26.387  19.8580  0.00  0.00     0.000 S
ENDBRANCH 62 70
ENDBRANCH 57 61
ENDBRANCH 41 57
ENDBRANCH 40 44
ENDBRANCH 20 40
ENDBRANCH 19 23
ENDBRANCH 1 19
TORSDOF 14
ENDMDL
MODEL 5
REMARK VINA RESULT:      -6.0     22.482     26.115
ROOT
ATOM      1  C1  A00 X   1      16.605  35.670  17.7440  0.00  0.00     0.000 C
ATOM      2  C2  A00 X   1      17.459  36.337  18.8560  0.00  0.00     0.000 C
ATOM      3  C3  A00 X   1      17.075  37.807  19.2280  0.00  0.00     0.000 C
ATOM      4  C4  A00 X   1      16.157  38.536  18.2130  0.00  0.00     0.000 C
ATOM      5  C5  A00 X   1      16.234  37.918  16.8170  0.00  0.00     0.000 C
ATOM      6  O5  A00 X   1      15.753  36.566  16.9870  0.00  0.00     0.000 O
ATOM      7   O  A00 X   1      18.269  38.581  19.3220  0.00  0.00     0.000 O
ATOM      9  HD  A00 X   1      17.680  39.069  18.9160  0.00  0.00     0.000 HD
ATOM      9   O  A00 X   1      14.801  38.555  18.6580  0.00  0.00     0.000 O
ATOM     11  HD  A00 X   1      14.211  39.043  18.2520  0.00  0.00     0.000 HD
ENDROOT
BRANCH 2 11
ATOM     11   O  A00 X   1      17.363  35.514  20.0350  0.00  0.00     0.000 O
ATOM     12   O  A00 X   1      18.179  36.253  22.1690  0.00  0.00     0.000 OA
ATOM     13   O  A00 X   1      19.751  35.928  20.3410  0.00  0.00     0.000 OA
ATOM     14   O  A00 X   1      18.654  34.065  21.3330  0.00  0.00     0.000 OA
ATOM     15   S  A00 X   1      18.575  35.468  21.0280  0.00  0.00     0.000 S
ENDBRANCH 2 11
BRANCH 5 16
ATOM     16   C  A00 X   1      17.610  37.999  16.1480  0.00  0.00     0.000 C
ATOM     17   O  A00 X   1      18.434  38.764  16.6050  0.00  0.00     0.000 OA
ATOM     18   O  A00 X   1      17.907  37.322  15.1840  0.00  0.00     0.000 OA
ENDBRANCH 5 16
BRANCH 1 19
ATOM     19  O4  A00 X   2      17.387  34.820  16.8700  0.00  0.00     0.000 O
BRANCH 19 23
ATOM     20  C1  A00 X   2      19.877  31.435  17.7090  0.00  0.00     0.000 C
ATOM     21  C2  A00 X   2      18.408  31.380  18.1940  0.00  0.00     0.000 C
ATOM     22  C3  A00 X   2      17.548  32.431  17.4630  0.00  0.00     0.000 C
ATOM     23  C4  A00 X   2      18.173  33.837  17.6020  0.00  0.00     0.000 C
ATOM     24  C5  A00 X   2      19.642  33.755  17.1030  0.00  0.00     0.000 C
ATOM     25  O5  A00 X   2      20.358  32.790  17.9160  0.00  0.00     0.000 O
ATOM     26   O  A00 X   2      16.184  32.294  17.8980  0.00  0.00     0.000 O
ATOM     28  HD  A00 X   2      16.397  32.307  18.7370  0.00  0.00     0.000 HD
BRANCH 21 30
ATOM     28   N  A00 X   2      18.822  30.697  19.4240  0.00  0.00     0.000 N
ATOM     30  HD  A00 X   2      17.975  30.545  19.3260  0.00  0.00     0.000 HD
ATOM     30   O  A00 X   2      17.157  29.162  20.0000  0.00  0.00     0.000 OA
ATOM     31   S  A00 X   2      17.724  30.360  20.5110  0.00  0.00     0.000 S
ATOM     32   O  A00 X   2      18.478  30.205  21.7160  0.00  0.00     0.000 OA
ATOM     33   O  A00 X   2      16.860  31.498  20.6070  0.00  0.00     0.000 OA
ENDBRANCH 21 30
BRANCH 24 34
ATOM     34   C  A00 X   2      20.422  35.079  16.9220  0.00  0.00     0.000 C
ATOM     35   O  A00 X   2      23.901  35.545  17.8860  0.00  0.00     0.000 OA
ATOM     36   O  A00 X   2      21.635  35.081  17.7010  0.00  0.00     0.000 O
ATOM     37   O  A00 X   2      23.153  33.850  16.4170  0.00  0.00     0.000 OA
ATOM     38   S  A00 X   2      22.965  35.194  16.8700  0.00  0.00     0.000 S
ATOM     39   O  A00 X   2      22.739  36.203  15.8780  0.00  0.00     0.000 OA
ENDBRANCH 24 34
BRANCH 20 40
ATOM     40  O4  A00 X   3      19.831  31.151  16.3030  0.00  0.00     0.000 O
BRANCH 40 44
ATOM     41  C1  A00 X   3      20.860  28.937  13.6270  0.00  0.00     0.000 C
ATOM     42  C2  A00 X   3      21.125  28.687  15.1270  0.00  0.00     0.000 C
ATOM     43  C3  A00 X   3      21.771  29.929  15.7920  0.00  0.00     0.000 C
ATOM     44  C4  A00 X   3      21.044  31.241  15.5250  0.00  0.00     0.000 C
ATOM     45  C5  A00 X   3      20.820  31.423  13.9970  0.00  0.00     0.000 C
ATOM     46  O5  A00 X   3      20.218  30.224  13.4100  0.00  0.00     0.000 O
ATOM     47   O  A00 X   3      22.141  29.781  17.1620  0.00  0.00     0.000 O
ATOM     49  HD  A00 X   3      21.849  30.595  17.2110  0.00  0.00     0.000 HD
BRANCH 42 49
ATOM     49   O  A00 X   3      19.854  28.365  15.7330  0.00  0.00     0.000 O
ATOM     50   O  A00 X   3      19.069  27.822  17.9280  0.00  0.00     0.000 OA
ATOM     51   O  A00 X   3      21.103  26.879  17.1780  0.00  0.00     0.000 OA
ATOM     52   O  A00 X   3      19.092  26.183  16.1500  0.00  0.00     0.000 OA
ATOM     53   S  A00 X   3      19.758  27.250  16.8150  0.00  0.00     0.000 S
ENDBRANCH 42 49
BRANCH 45 54
ATOM     54   C  A00 X   3      22.103  31.865  13.2840  0.00  0.00     0.000 C
ATOM     55   O  A00 X   3      23.180  31.778  13.8380  0.00  0.00     0.000 OA
ATOM     56   O  A00 X   3      22.065  32.313  12.1480  0.00  0.00     0.000 OA
ENDBRANCH 45 54
BRANCH 41 57
ATOM     57  O4  A00 X   4      22.051  28.735  12.8330  0.00  0.00     0.000 O
BRANCH 57 61
ATOM     58  C1  A00 X   4      22.690  27.322   8.8040  0.00  0.00     0.000 C
ATOM     59  C2  A00 X   4      22.442  28.835   9.0290  0.00  0.00     0.000 C
ATOM     60  C3  A00 X   4      22.587  29.269  10.5010  0.00  0.00     0.000 C
ATOM     61  C4  A00 X   4      21.815  28.332  11.4540  0.00  0.00     0.000 C
ATOM     62  C5  A00 X   4      22.370  26.907  11.2090  0.00  0.00     0.000 C
ATOM     63  O5  A00 X   4      22.089  26.514   9.8410  0.00  0.00     0.000 O
BRANCH 59 66
ATOM     64   N  A00 X   4      21.071  28.590   8.5460  0.00  0.00     0.000 N
ATOM     66  HD  A00 X   4      20.806  27.767   8.4950  0.00  0.00     0.000 HD
ATOM     66   O  A00 X   4      21.822  29.290   6.3670  0.00  0.00     0.000 OA
ATOM     67   S  A00 X   4      20.630  29.246   7.1550  0.00  0.00     0.000 S
ATOM     68   O  A00 X   4      19.640  28.302   6.7260  0.00  0.00     0.000 OA
ATOM     69   O  A00 X   4      20.091  30.492   7.6230  0.00  0.00     0.000 OA
ENDBRANCH 59 66
BRANCH 62 70
ATOM     70   C  A00 X   4      21.791  25.831  12.1580  0.00  0.00     0.000 C
ATOM     71   O  A00 X   4      19.514  23.124  11.3870  0.00  0.00     0.000 OA
ATOM     72   O  A00 X   4      19.459  24.732  13.1060  0.00  0.00     0.000 OA
ATOM     73   O  A00 X   4      21.134  24.817  11.3820  0.00  0.00     0.000 O
ATOM     74   O  A00 X   4      18.855  25.376  10.8350  0.00  0.00     0.000 OA
ATOM     75   S  A00 X   4      19.623  24.524  11.6850  0.00  0.00     0.000 S
ENDBRANCH 62 70
ENDBRANCH 57 61
ENDBRANCH 41 57
ENDBRANCH 40 44
ENDBRANCH 20 40
ENDBRANCH 19 23
ENDBRANCH 1 19
TORSDOF 14
ENDMDL
MODEL 6
REMARK VINA RESULT:      -5.9     41.317     46.937
ROOT
ATOM      1  C1  A00 X   1      13.452  53.547   2.1350  0.00  0.00     0.000 C
ATOM      2  C2  A00 X   1      14.790  54.310   2.3240  0.00  0.00     0.000 C
ATOM      3  C3  A00 X   1      16.088  53.524   1.9470  0.00  0.00     0.000 C
ATOM      4  C4  A00 X   1      15.919  51.991   1.7870  0.00  0.00     0.000 C
ATOM      5  C5  A00 X   1      14.695  51.464   2.5360  0.00  0.00     0.000 C
ATOM      6  O5  A00 X   1      13.571  52.120   1.9100  0.00  0.00     0.000 O
ATOM      7   O  A00 X   1      17.057  53.719   2.9750  0.00  0.00     0.000 O
ATOM      9  HD  A00 X   1      17.095  52.885   2.7440  0.00  0.00     0.000 HD
ATOM      9   O  A00 X   1      15.842  51.615   0.4120  0.00  0.00     0.000 O
ATOM     11  HD  A00 X   1      15.879  50.781   0.1810  0.00  0.00     0.000 HD
ENDROOT
BRANCH 2 11
ATOM     11   O  A00 X   1      14.724  55.514   1.5350  0.00  0.00     0.000 O
ATOM     12   O  A00 X   1      16.658  56.880   1.1390  0.00  0.00     0.000 OA
ATOM     13   O  A00 X   1      15.823  56.630   3.4090  0.00  0.00     0.000 OA
ATOM     14   O  A00 X   1      14.563  57.829   1.7870  0.00  0.00     0.000 OA
ATOM     15   S  A00 X   1      15.517  56.778   2.0130  0.00  0.00     0.000 S
ENDBRANCH 2 11
BRANCH 5 16
ATOM     16   C  A00 X   1      14.741  51.643   4.0570  0.00  0.00     0.000 C
ATOM     17   O  A00 X   1      13.711  51.516   4.6880  0.00  0.00     0.000 OA
ATOM     18   O  A00 X   1      15.768  51.900   4.6530  0.00  0.00     0.000 OA
ENDBRANCH 5 16
BRANCH 1 19
ATOM     19  O4  A00 X   2      12.487  53.839   3.1760  0.00  0.00     0.000 O
BRANCH 19 23
ATOM     20  C1  A00 X   2      10.241  57.387   4.0290  0.00  0.00     0.000 C
ATOM     21  C2  A00 X   2      10.116  56.787   2.6080  0.00  0.00     0.000 C
ATOM     22  C3  A00 X   2      10.609  55.325   2.5840  0.00  0.00     0.000 C
ATOM     23  C4  A00 X   2      12.042  55.225   3.1530  0.00  0.00     0.000 C
ATOM     24  C5  A00 X   2      12.039  55.874   4.5640  0.00  0.00     0.000 C
ATOM     25  O5  A00 X   2      11.629  57.261   4.4390  0.00  0.00     0.000 O
ATOM     26   O  A00 X   2      10.409  54.792   1.2630  0.00  0.00     0.000 O
ATOM     28  HD  A00 X   2      10.796  55.465   0.8790  0.00  0.00     0.000 HD
BRANCH 21 30
ATOM     28   N  A00 X   2       9.914  58.161   2.1380  0.00  0.00     0.000 N
ATOM     30  HD  A00 X   2       9.709  57.638   1.4790  0.00  0.00     0.000 HD
ATOM     30   O  A00 X   2       8.618  58.083   0.1960  0.00  0.00     0.000 OA
ATOM     31   S  A00 X   2       9.936  58.442   0.5820  0.00  0.00     0.000 S
ATOM     32   O  A00 X   2      10.232  59.838   0.4940  0.00  0.00     0.000 OA
ATOM     33   O  A00 X   2      11.008  57.670   0.0280  0.00  0.00     0.000 OA
ENDBRANCH 21 30
BRANCH 24 34
ATOM     34   C  A00 X   2      13.298  55.701   5.4460  0.00  0.00     0.000 C
ATOM     35   O  A00 X   2      13.223  54.601   8.9160  0.00  0.00     0.000 OA
ATOM     36   O  A00 X   2      12.949  55.606   6.8420  0.00  0.00     0.000 O
ATOM     37   O  A00 X   2      12.277  53.383   7.1230  0.00  0.00     0.000 OA
ATOM     38   S  A00 X   2      13.337  54.251   7.5390  0.00  0.00     0.000 S
ATOM     39   O  A00 X   2      14.663  53.935   7.1010  0.00  0.00     0.000 OA
ENDBRANCH 24 34
BRANCH 20 40
ATOM     40  O4  A00 X   3       9.415  56.569   4.8700  0.00  0.00     0.000 O
BRANCH 40 44
ATOM     41  C1  A00 X   3       6.838  55.953   7.3400  0.00  0.00     0.000 C
ATOM     42  C2  A00 X   3       7.063  57.300   6.6200  0.00  0.00     0.000 C
ATOM     43  C3  A00 X   3       8.547  57.739   6.7130  0.00  0.00     0.000 C
ATOM     44  C4  A00 X   3       9.551  56.668   6.3040  0.00  0.00     0.000 C
ATOM     45  C5  A00 X   3       9.263  55.348   7.0730  0.00  0.00     0.000 C
ATOM     46  O5  A00 X   3       7.850  54.978   6.9670  0.00  0.00     0.000 O
ATOM     47   O  A00 X   3       8.856  59.015   6.1560  0.00  0.00     0.000 O
ATOM     49  HD  A00 X   3       9.571  58.602   5.8940  0.00  0.00     0.000 HD
BRANCH 42 49
ATOM     49   O  A00 X   3       6.651  57.120   5.2470  0.00  0.00     0.000 O
ATOM     50   O  A00 X   3       6.733  58.407   3.2300  0.00  0.00     0.000 OA
ATOM     51   O  A00 X   3       6.164  59.491   5.2530  0.00  0.00     0.000 OA
ATOM     52   O  A00 X   3       4.640  57.930   4.3430  0.00  0.00     0.000 OA
ATOM     53   S  A00 X   3       6.009  58.298   4.4580  0.00  0.00     0.000 S
ENDBRANCH 42 49
BRANCH 45 54
ATOM     54   C  A00 X   3       9.762  55.414   8.5210  0.00  0.00     0.000 C
ATOM     55   O  A00 X   3      10.204  56.449   8.9760  0.00  0.00     0.000 OA
ATOM     56   O  A00 X   3       9.724  54.429   9.2420  0.00  0.00     0.000 OA
ENDBRANCH 45 54
BRANCH 41 57
ATOM     57  O4  A00 X   4       6.690  56.129   8.7670  0.00  0.00     0.000 O
BRANCH 57 61
ATOM     58  C1  A00 X   4       4.713  53.739  11.7700  0.00  0.00     0.000 C
ATOM     59  C2  A00 X   4       6.251  53.626  11.6270  0.00  0.00     0.000 C
ATOM     60  C3  A00 X   4       6.877  54.764  10.7950  0.00  0.00     0.000 C
ATOM     61  C4  A00 X   4       6.113  54.994   9.4730  0.00  0.00     0.000 C
ATOM     62  C5  A00 X   4       4.645  55.296   9.8640  0.00  0.00     0.000 C
ATOM     63  O5  A00 X   4       4.081  54.138  10.5320  0.00  0.00     0.000 O
BRANCH 59 66
ATOM     64   N  A00 X   4       6.991  52.483  11.0630  0.00  0.00     0.000 N
ATOM     66  HD  A00 X   4       6.654  52.092  10.3680  0.00  0.00     0.000 HD
ATOM     66   O  A00 X   4       6.363  51.236  13.0250  0.00  0.00     0.000 OA
ATOM     67   S  A00 X   4       7.401  51.288  12.0440  0.00  0.00     0.000 S
ATOM     68   O  A00 X   4       7.431  50.193  11.1190  0.00  0.00     0.000 OA
ATOM     69   O  A00 X   4       8.698  51.738  12.4630  0.00  0.00     0.000 OA
ENDBRANCH 59 66
BRANCH 62 70
ATOM     70   C  A00 X   4       3.736  55.665   8.6680  0.00  0.00     0.000 C
ATOM     71   O  A00 X   4       2.021  53.460   6.3660  0.00  0.00     0.000 OA
ATOM     72   O  A00 X   4       3.384  55.337   5.9640  0.00  0.00     0.000 OA
ATOM     73   O  A00 X   4       3.075  54.482   8.1910  0.00  0.00     0.000 O
ATOM     74   O  A00 X   4       4.406  53.226   6.6240  0.00  0.00     0.000 OA
ATOM     75   S  A00 X   4       3.271  54.089   6.6860  0.00  0.00     0.000 S
ENDBRANCH 62 70
ENDBRANCH 57 61
ENDBRANCH 41 57
ENDBRANCH 40 44
ENDBRANCH 20 40
ENDBRANCH 19 23
ENDBRANCH 1 19
TORSDOF 14
ENDMDL
MODEL 7
REMARK VINA RESULT:      -5.8      5.686     12.103
ROOT
ATOM      1  C1  A00 X   1       2.479  14.352  19.0490  0.00  0.00     0.000 C
ATOM      2  C2  A00 X   1       3.430  14.571  20.2550  0.00  0.00     0.000 C
ATOM      3  C3  A00 X   1       3.114  15.804  21.1640  0.00  0.00     0.000 C
ATOM      4  C4  A00 X   1       2.142  16.849  20.5590  0.00  0.00     0.000 C
ATOM      5  C5  A00 X   1       2.099  16.781  19.0320  0.00  0.00     0.000 C
ATOM      6  O5  A00 X   1       1.597  15.458  18.7380  0.00  0.00     0.000 O
ATOM      7   O  A00 X   1       4.331  16.495  21.4380  0.00  0.00     0.000 O
ATOM      9  HD  A00 X   1       3.726  17.095  21.2840  0.00  0.00     0.000 HD
ATOM      9   O  A00 X   1       0.824  16.702  21.0860  0.00  0.00     0.000 O
ATOM     11  HD  A00 X   1       0.218  17.302  20.9320  0.00  0.00     0.000 HD
ENDROOT
BRANCH 2 11
ATOM     11   O  A00 X   1       3.402  13.376  21.0590  0.00  0.00     0.000 O
ATOM     12   O  A00 X   1       4.267  13.331  23.2990  0.00  0.00     0.000 OA
ATOM     13   O  A00 X   1       5.784  13.753  21.4460  0.00  0.00     0.000 OA
ATOM     14   O  A00 X   1       4.783  11.613  21.7200  0.00  0.00     0.000 OA
ATOM     15   S  A00 X   1       4.648  13.027  21.9430  0.00  0.00     0.000 S
ENDBRANCH 2 11
BRANCH 5 16
ATOM     16   C  A00 X   1       3.422  17.104  18.3320  0.00  0.00     0.000 C
ATOM     17   O  A00 X   1       4.294  17.662  18.9650  0.00  0.00     0.000 OA
ATOM     18   O  A00 X   1       3.632  16.817  17.1700  0.00  0.00     0.000 OA
ENDBRANCH 5 16
BRANCH 1 19
ATOM     19  O4  A00 X   2       3.171  13.880  17.8670  0.00  0.00     0.000 O
BRANCH 19 23
ATOM     20  C1  A00 X   2       3.889   9.913  16.4130  0.00  0.00     0.000 C
ATOM     21  C2  A00 X   2       2.422  10.312  16.7060  0.00  0.00     0.000 C
ATOM     22  C3  A00 X   2       2.277  11.846  16.7950  0.00  0.00     0.000 C
ATOM     23  C4  A00 X   2       3.275  12.428  17.8220  0.00  0.00     0.000 C
ATOM     24  C5  A00 X   2       4.697  11.943  17.4300  0.00  0.00     0.000 C
ATOM     25  O5  A00 X   2       4.719  10.492  17.4550  0.00  0.00     0.000 O
ATOM     26   O  A00 X   2       0.891  12.167  16.9990  0.00  0.00     0.000 O
ATOM     28  HD  A00 X   2       0.807  11.611  17.6570  0.00  0.00     0.000 HD
BRANCH 21 30
ATOM     28   N  A00 X   2       2.174   8.930  17.1290  0.00  0.00     0.000 N
ATOM     30  HD  A00 X   2       1.400   9.298  17.0090  0.00  0.00     0.000 HD
ATOM     30   O  A00 X   2      -0.047   8.404  16.6320  0.00  0.00     0.000 OA
ATOM     31   S  A00 X   2       0.777   8.574  17.7760  0.00  0.00     0.000 S
ATOM     32   O  A00 X   2       1.040   7.377  18.5130  0.00  0.00     0.000 OA
ATOM     33   O  A00 X   2       0.438   9.643  18.6670  0.00  0.00     0.000 OA
ENDBRANCH 21 30
BRANCH 24 34
ATOM     34   C  A00 X   2       5.906  12.571  18.1630  0.00  0.00     0.000 C
ATOM     35   O  A00 X   2       8.603  10.646  19.6710  0.00  0.00     0.000 OA
ATOM     36   O  A00 X   2       6.608  11.588  18.9490  0.00  0.00     0.000 O
ATOM     37   O  A00 X   2       7.955  10.461  17.4040  0.00  0.00     0.000 OA
ATOM     38   S  A00 X   2       8.102  11.335  18.5280  0.00  0.00     0.000 S
ATOM     39   O  A00 X   2       8.681  12.624  18.2940  0.00  0.00     0.000 OA
ENDBRANCH 24 34
BRANCH 20 40
ATOM     40  O4  A00 X   3       4.210  10.517  15.1520  0.00  0.00     0.000 O
BRANCH 40 44
ATOM     41  C1  A00 X   3       5.617  11.914  12.1200  0.00  0.00     0.000 C
ATOM     42  C2  A00 X   3       4.352  11.030  12.1770  0.00  0.00     0.000 C
ATOM     43  C3  A00 X   3       4.620   9.729  12.9770  0.00  0.00     0.000 C
ATOM     44  C4  A00 X   3       5.260   9.945  14.3420  0.00  0.00     0.000 C
ATOM     45  C5  A00 X   3       6.526  10.837  14.2020  0.00  0.00     0.000 C
ATOM     46  O5  A00 X   3       6.230  12.048  13.4320  0.00  0.00     0.000 O
ATOM     47   O  A00 X   3       3.545   8.793  13.0230  0.00  0.00     0.000 O
ATOM     49  HD  A00 X   3       3.815   8.693  13.8390  0.00  0.00     0.000 HD
BRANCH 42 49
ATOM     49   O  A00 X   3       3.311  11.821  12.7900  0.00  0.00     0.000 O
ATOM     50   O  A00 X   3       1.045  11.469  13.4780  0.00  0.00     0.000 OA
ATOM     51   O  A00 X   3       1.768  10.555  11.4210  0.00  0.00     0.000 OA
ATOM     52   O  A00 X   3       1.593  12.904  11.6100  0.00  0.00     0.000 OA
ATOM     53   S  A00 X   3       1.836  11.689  12.3080  0.00  0.00     0.000 S
ENDBRANCH 42 49
BRANCH 45 54
ATOM     54   C  A00 X   3       7.718  10.048  13.6480  0.00  0.00     0.000 C
ATOM     55   O  A00 X   3       7.544   9.025  13.0170  0.00  0.00     0.000 OA
ATOM     56   O  A00 X   3       8.863  10.432  13.8330  0.00  0.00     0.000 OA
ENDBRANCH 45 54
BRANCH 41 57
ATOM     57  O4  A00 X   4       6.529  11.475  11.0880  0.00  0.00     0.000 O
BRANCH 57 61
ATOM     58  C1  A00 X   4       9.508  13.515   8.7220  0.00  0.00     0.000 C
ATOM     59  C2  A00 X   4       9.732  13.392  10.2490  0.00  0.00     0.000 C
ATOM     60  C3  A00 X   4       8.811  12.355  10.9240  0.00  0.00     0.000 C
ATOM     61  C4  A00 X   4       7.339  12.527  10.4910  0.00  0.00     0.000 C
ATOM     62  C5  A00 X   4       7.322  12.405   8.9470  0.00  0.00     0.000 C
ATOM     63  O5  A00 X   4       8.105  13.485   8.3750  0.00  0.00     0.000 O
BRANCH 59 66
ATOM     64   N  A00 X   4       9.369  14.755   9.8190  0.00  0.00     0.000 N
ATOM     66  HD  A00 X   4       9.216  14.881   8.9770  0.00  0.00     0.000 HD
ATOM     66   O  A00 X   4      11.641  15.400  10.2910  0.00  0.00     0.000 OA
ATOM     67   S  A00 X   4      10.328  15.963  10.2440  0.00  0.00     0.000 S
ATOM     68   O  A00 X   4      10.087  16.876   9.1640  0.00  0.00     0.000 OA
ATOM     69   O  A00 X   4       9.719  16.346  11.4850  0.00  0.00     0.000 OA
ENDBRANCH 59 66
BRANCH 62 70
ATOM     70   C  A00 X   4       5.906  12.442   8.3260  0.00  0.00     0.000 C
ATOM     71   O  A00 X   4       3.615  15.235   8.0830  0.00  0.00     0.000 OA
ATOM     72   O  A00 X   4       3.273  13.032   8.8400  0.00  0.00     0.000 OA
ATOM     73   O  A00 X   4       5.466  13.807   8.2270  0.00  0.00     0.000 O
ATOM     74   O  A00 X   4       4.457  14.621  10.2570  0.00  0.00     0.000 OA
ATOM     75   S  A00 X   4       4.123  14.198   8.9360  0.00  0.00     0.000 S
ENDBRANCH 62 70
ENDBRANCH 57 61
ENDBRANCH 41 57
ENDBRANCH 40 44
ENDBRANCH 20 40
ENDBRANCH 19 23
ENDBRANCH 1 19
TORSDOF 14
ENDMDL
MODEL 8
REMARK VINA RESULT:      -5.7     23.340     27.294
ROOT
ATOM      1  C1  A00 X   1      15.588  31.749  21.6680  0.00  0.00     0.000 C
ATOM      2  C2  A00 X   1      16.356  30.738  22.5600  0.00  0.00     0.000 C
ATOM      3  C3  A00 X   1      15.790  29.280  22.5910  0.00  0.00     0.000 C
ATOM      4  C4  A00 X   1      14.352  29.109  22.0380  0.00  0.00     0.000 C
ATOM      5  C5  A00 X   1      13.561  30.417  22.0740  0.00  0.00     0.000 C
ATOM      6  O5  A00 X   1      14.288  31.310  21.2010  0.00  0.00     0.000 O
ATOM      7   O  A00 X   1      15.761  28.829  23.9430  0.00  0.00     0.000 O
ATOM      9  HD  A00 X   1      15.026  28.563  23.5690  0.00  0.00     0.000 HD
ATOM      9   O  A00 X   1      14.361  28.588  20.7090  0.00  0.00     0.000 O
ATOM     11  HD  A00 X   1      13.627  28.322  20.3350  0.00  0.00     0.000 HD
ENDROOT
BRANCH 2 11
ATOM     11   O  A00 X   1      17.723  30.701  22.1050  0.00  0.00     0.000 O
ATOM     12   O  A00 X   1      19.277  29.044  22.8820  0.00  0.00     0.000 OA
ATOM     13   O  A00 X   1      18.355  30.647  24.4630  0.00  0.00     0.000 OA
ATOM     14   O  A00 X   1      19.863  31.358  22.7670  0.00  0.00     0.000 OA
ATOM     15   S  A00 X   1      18.859  30.399  23.1410  0.00  0.00     0.000 S
ENDBRANCH 2 11
BRANCH 5 16
ATOM     16   C  A00 X   1      13.320  30.990  23.4740  0.00  0.00     0.000 C
ATOM     17   O  A00 X   1      13.498  30.270  24.4350  0.00  0.00     0.000 OA
ATOM     18   O  A00 X   1      12.966  32.138  23.6570  0.00  0.00     0.000 OA
ENDBRANCH 5 16
BRANCH 1 19
ATOM     19  O4  A00 X   2      15.520  33.073  22.2510  0.00  0.00     0.000 O
BRANCH 19 23
ATOM     20  C1  A00 X   2      17.353  36.528  20.4990  0.00  0.00     0.000 C
ATOM     21  C2  A00 X   2      17.325  35.230  19.6570  0.00  0.00     0.000 C
ATOM     22  C3  A00 X   2      16.284  34.236  20.2140  0.00  0.00     0.000 C
ATOM     23  C4  A00 X   2      16.533  33.972  21.7160  0.00  0.00     0.000 C
ATOM     24  C5  A00 X   2      16.557  35.345  22.4420  0.00  0.00     0.000 C
ATOM     25  O5  A00 X   2      17.621  36.154  21.8770  0.00  0.00     0.000 O
ATOM     26   O  A00 X   2      16.248  33.080  19.3600  0.00  0.00     0.000 O
ATOM     28  HD  A00 X   2      17.108  32.977  19.3780  0.00  0.00     0.000 HD
BRANCH 21 30
ATOM     28   N  A00 X   2      18.590  35.682  19.0690  0.00  0.00     0.000 N
ATOM     30  HD  A00 X   2      18.311  35.020  18.5850  0.00  0.00     0.000 HD
ATOM     30   O  A00 X   2      18.749  34.793  16.9140  0.00  0.00     0.000 OA
ATOM     31   S  A00 X   2      19.409  34.675  18.1660  0.00  0.00     0.000 S
ATOM     32   O  A00 X   2      20.740  35.197  18.1990  0.00  0.00     0.000 OA
ATOM     33   O  A00 X   2      19.361  33.395  18.8080  0.00  0.00     0.000 OA
ENDBRANCH 21 30
BRANCH 24 34
ATOM     34   C  A00 X   2      16.561  35.348  23.9880  0.00  0.00     0.000 C
ATOM     35   O  A00 X   2      14.199  37.219  26.0320  0.00  0.00     0.000 OA
ATOM     36   O  A00 X   2      15.765  36.430  24.5110  0.00  0.00     0.000 O
ATOM     37   O  A00 X   2      13.564  35.649  24.3820  0.00  0.00     0.000 OA
ATOM     38   S  A00 X   2      14.529  35.994  25.3810  0.00  0.00     0.000 S
ATOM     39   O  A00 X   2      14.991  34.951  26.2460  0.00  0.00     0.000 OA
ENDBRANCH 24 34
BRANCH 20 40
ATOM     40  O4  A00 X   3      16.033  37.082  20.4010  0.00  0.00     0.000 O
BRANCH 40 44
ATOM     41  C1  A00 X   3      13.727  39.826  19.8710  0.00  0.00     0.000 C
ATOM     42  C2  A00 X   3      15.246  39.887  19.5980  0.00  0.00     0.000 C
ATOM     43  C3  A00 X   3      16.051  39.393  20.8270  0.00  0.00     0.000 C
ATOM     44  C4  A00 X   3      15.598  38.048  21.3820  0.00  0.00     0.000 C
ATOM     45  C5  A00 X   3      14.064  38.067  21.6340  0.00  0.00     0.000 C
ATOM     46  O5  A00 X   3      13.345  38.549  20.4530  0.00  0.00     0.000 O
ATOM     47   O  A00 X   3      17.470  39.486  20.7210  0.00  0.00     0.000 O
ATOM     49  HD  A00 X   3      17.439  38.724  21.1310  0.00  0.00     0.000 HD
BRANCH 42 49
ATOM     49   O  A00 X   3      15.500  39.068  18.4360  0.00  0.00     0.000 O
ATOM     50   O  A00 X   3      17.432  38.242  17.2880  0.00  0.00     0.000 OA
ATOM     51   O  A00 X   3      17.438  40.472  18.0720  0.00  0.00     0.000 OA
ATOM     52   O  A00 X   3      15.984  39.907  16.2960  0.00  0.00     0.000 OA
ATOM     53   S  A00 X   3      16.655  39.430  17.4570  0.00  0.00     0.000 S
ENDBRANCH 42 49
BRANCH 45 54
ATOM     54   C  A00 X   3      13.708  38.835  22.9130  0.00  0.00     0.000 C
ATOM     55   O  A00 X   3      12.614  38.713  23.4240  0.00  0.00     0.000 OA
ATOM     56   O  A00 X   3      14.517  39.585  23.4370  0.00  0.00     0.000 OA
ENDBRANCH 45 54
BRANCH 41 57
ATOM     57  O4  A00 X   4      13.273  40.974  20.6220  0.00  0.00     0.000 O
BRANCH 57 61
ATOM     58  C1  A00 X   4       9.433  42.932  20.8630  0.00  0.00     0.000 C
ATOM     59  C2  A00 X   4       9.495  41.396  21.0500  0.00  0.00     0.000 C
ATOM     60  C3  A00 X   4      10.920  40.864  21.3020  0.00  0.00     0.000 C
ATOM     61  C4  A00 X   4      11.934  41.440  20.2910  0.00  0.00     0.000 C
ATOM     62  C5  A00 X   4      11.855  42.981  20.4230  0.00  0.00     0.000 C
ATOM     63  O5  A00 X   4      10.524  43.424  20.0520  0.00  0.00     0.000 O
BRANCH 59 66
ATOM     64   N  A00 X   4       8.965  40.067  20.6940  0.00  0.00     0.000 N
ATOM     66  HD  A00 X   4       9.160  39.755  19.9100  0.00  0.00     0.000 HD
ATOM     66   O  A00 X   4       6.780  41.074  20.5990  0.00  0.00     0.000 OA
ATOM     67   S  A00 X   4       7.395  39.809  20.8560  0.00  0.00     0.000 S
ATOM     68   O  A00 X   4       7.192  38.809  19.8500  0.00  0.00     0.000 OA
ATOM     69   O  A00 X   4       7.358  39.308  22.2010  0.00  0.00     0.000 OA
ENDBRANCH 59 66
BRANCH 62 70
ATOM     70   C  A00 X   4      12.887  43.744  19.5590  0.00  0.00     0.000 C
ATOM     71   O  A00 X   4      13.163  43.867  15.9510  0.00  0.00     0.000 OA
ATOM     72   O  A00 X   4      14.790  43.450  17.6010  0.00  0.00     0.000 OA
ATOM     73   O  A00 X   4      12.471  43.710  18.1840  0.00  0.00     0.000 O
ATOM     74   O  A00 X   4      13.177  41.713  17.0350  0.00  0.00     0.000 OA
ATOM     75   S  A00 X   4      13.466  43.107  17.1320  0.00  0.00     0.000 S
ENDBRANCH 62 70
ENDBRANCH 57 61
ENDBRANCH 41 57
ENDBRANCH 40 44
ENDBRANCH 20 40
ENDBRANCH 19 23
ENDBRANCH 1 19
TORSDOF 14
ENDMDL
MODEL 9
REMARK VINA RESULT:      -5.7      1.702      2.705
ROOT
ATOM      1  C1  A00 X   1       3.217  13.928  20.1480  0.00  0.00     0.000 C
ATOM      2  C2  A00 X   1       2.692  15.053  21.0790  0.00  0.00     0.000 C
ATOM      3  C3  A00 X   1       1.853  16.180  20.3900  0.00  0.00     0.000 C
ATOM      4  C4  A00 X   1       1.957  16.240  18.8440  0.00  0.00     0.000 C
ATOM      5  C5  A00 X   1       3.234  15.579  18.3250  0.00  0.00     0.000 C
ATOM      6  O5  A00 X   1       3.120  14.195  18.7270  0.00  0.00     0.000 O
ATOM      7   O  A00 X   1       2.300  17.444  20.8750  0.00  0.00     0.000 O
ATOM      9  HD  A00 X   1       2.170  17.529  20.0230  0.00  0.00     0.000 HD
ATOM      9   O  A00 X   1       0.819  15.645  18.2210  0.00  0.00     0.000 O
ATOM     11  HD  A00 X   1       0.688  15.730  17.3690  0.00  0.00     0.000 HD
ENDROOT
BRANCH 2 11
ATOM     11   O  A00 X   1       1.893  14.435  22.1060  0.00  0.00     0.000 O
ATOM     12   O  A00 X   1       0.304  15.684  23.4030  0.00  0.00     0.000 OA
ATOM     13   O  A00 X   1       2.670  16.220  23.5820  0.00  0.00     0.000 OA
ATOM     14   O  A00 X   1       1.834  14.158  24.4240  0.00  0.00     0.000 OA
ATOM     15   S  A00 X   1       1.661  15.204  23.4520  0.00  0.00     0.000 S
ENDBRANCH 2 11
BRANCH 5 16
ATOM     16   C  A00 X   1       4.538  16.243  18.7780  0.00  0.00     0.000 C
ATOM     17   O  A00 X   1       4.512  17.413  19.1030  0.00  0.00     0.000 OA
ATOM     18   O  A00 X   1       5.592  15.642  18.8300  0.00  0.00     0.000 OA
ENDBRANCH 5 16
BRANCH 1 19
ATOM     19  O4  A00 X   2       4.544  13.473  20.5100  0.00  0.00     0.000 O
BRANCH 19 23
ATOM     20  C1  A00 X   2       6.578   9.779  19.7490  0.00  0.00     0.000 C
ATOM     21  C2  A00 X   2       6.504  10.806  18.5930  0.00  0.00     0.000 C
ATOM     22  C3  A00 X   2       6.147  12.209  19.1260  0.00  0.00     0.000 C
ATOM     23  C4  A00 X   2       4.852  12.158  19.9670  0.00  0.00     0.000 C
ATOM     24  C5  A00 X   2       5.046  11.085  21.0730  0.00  0.00     0.000 C
ATOM     25  O5  A00 X   2       5.302   9.804  20.4420  0.00  0.00     0.000 O
ATOM     26   O  A00 X   2       6.158  13.136  18.0270  0.00  0.00     0.000 O
ATOM     28  HD  A00 X   2       5.651  12.636  17.5350  0.00  0.00     0.000 HD
BRANCH 21 30
ATOM     28   N  A00 X   2       6.378   9.698  17.6410  0.00  0.00     0.000 N
ATOM     30  HD  A00 X   2       6.604  10.397  17.1830  0.00  0.00     0.000 HD
ATOM     30   O  A00 X   2       7.432  10.323  15.6520  0.00  0.00     0.000 OA
ATOM     31   S  A00 X   2       6.122  10.032  16.1170  0.00  0.00     0.000 S
ATOM     32   O  A00 X   2       5.550   8.829  15.5980  0.00  0.00     0.000 OA
ATOM     33   O  A00 X   2       5.165  11.097  16.0730  0.00  0.00     0.000 OA
ENDBRANCH 21 30
BRANCH 24 34
ATOM     34   C  A00 X   2       3.983  10.997  22.1930  0.00  0.00     0.000 C
ATOM     35   O  A00 X   2       4.713  10.042  25.6300  0.00  0.00     0.000 OA
ATOM     36   O  A00 X   2       4.482  10.266  23.3310  0.00  0.00     0.000 O
ATOM     37   O  A00 X   2       5.781  11.822  24.4980  0.00  0.00     0.000 OA
ATOM     38   S  A00 X   2       4.566  11.086  24.6710  0.00  0.00     0.000 S
ATOM     39   O  A00 X   2       3.347  11.832  24.7670  0.00  0.00     0.000 OA
ENDBRANCH 24 34
BRANCH 20 40
ATOM     40  O4  A00 X   3       7.609  10.256  20.6260  0.00  0.00     0.000 O
BRANCH 40 44
ATOM     41  C1  A00 X   3       9.676  10.968  23.5150  0.00  0.00     0.000 C
ATOM     42  C2  A00 X   3      10.146  11.078  22.0480  0.00  0.00     0.000 C
ATOM     43  C3  A00 X   3       9.820   9.781  21.2630  0.00  0.00     0.000 C
ATOM     44  C4  A00 X   3       8.378   9.306  21.3940  0.00  0.00     0.000 C
ATOM     45  C5  A00 X   3       7.982   9.217  22.8950  0.00  0.00     0.000 C
ATOM     46  O5  A00 X   3       8.317  10.457  23.5990  0.00  0.00     0.000 O
ATOM     47   O  A00 X   3      10.287   9.735  19.9160  0.00  0.00     0.000 O
ATOM     49  HD  A00 X   3       9.524   9.347  19.7830  0.00  0.00     0.000 HD
BRANCH 42 49
ATOM     49   O  A00 X   3       9.480  12.224  21.4740  0.00  0.00     0.000 O
ATOM     50   O  A00 X   3       9.366  13.264  19.3210  0.00  0.00     0.000 OA
ATOM     51   O  A00 X   3      11.456  12.481  20.1020  0.00  0.00     0.000 OA
ATOM     52   O  A00 X   3      10.469  14.334  21.1880  0.00  0.00     0.000 OA
ATOM     53   S  A00 X   3      10.223  13.138  20.4580  0.00  0.00     0.000 S
ENDBRANCH 42 49
BRANCH 45 54
ATOM     54   C  A00 X   3       8.568   7.967  23.5630  0.00  0.00     0.000 C
ATOM     55   O  A00 X   3       8.064   7.509  24.5680  0.00  0.00     0.000 OA
ATOM     56   O  A00 X   3       9.552   7.412  23.0980  0.00  0.00     0.000 OA
ENDBRANCH 45 54
BRANCH 41 57
ATOM     57  O4  A00 X   4      10.627  10.244  24.3270  0.00  0.00     0.000 O
BRANCH 57 61
ATOM     58  C1  A00 X   4      11.457  10.352  28.5630  0.00  0.00     0.000 C
ATOM     59  C2  A00 X   4       9.984  10.234  28.0990  0.00  0.00     0.000 C
ATOM     60  C3  A00 X   4       9.836   9.846  26.6140  0.00  0.00     0.000 C
ATOM     61  C4  A00 X   4      10.741  10.705  25.7040  0.00  0.00     0.000 C
ATOM     62  C5  A00 X   4      12.189  10.507  26.2170  0.00  0.00     0.000 C
ATOM     63  O5  A00 X   4      12.286  11.007  27.5750  0.00  0.00     0.000 O
BRANCH 59 66
ATOM     64   N  A00 X   4       9.187  11.469  28.2080  0.00  0.00     0.000 N
ATOM     66  HD  A00 X   4       9.601  12.223  28.1090  0.00  0.00     0.000 HD
ATOM     66   O  A00 X   4       8.981  11.010  30.5630  0.00  0.00     0.000 OA
ATOM     67   S  A00 X   4       8.278  11.672  29.5090  0.00  0.00     0.000 S
ATOM     68   O  A00 X   4       8.255  13.103  29.5880  0.00  0.00     0.000 OA
ATOM     69   O  A00 X   4       7.049  11.087  29.0530  0.00  0.00     0.000 OA
ENDBRANCH 59 66
BRANCH 62 70
ATOM     70   C  A00 X   4      13.266  11.209  25.3570  0.00  0.00     0.000 C
ATOM     71   O  A00 X   4      15.753  13.633  26.3800  0.00  0.00     0.000 OA
ATOM     72   O  A00 X   4      14.236  13.658  24.5800  0.00  0.00     0.000 OA
ATOM     73   O  A00 X   4      14.187  11.897  26.2180  0.00  0.00     0.000 O
ATOM     74   O  A00 X   4      13.432  14.100  26.8370  0.00  0.00     0.000 OA
ATOM     75   S  A00 X   4      14.381  13.438  26.0020  0.00  0.00     0.000 S
ENDBRANCH 62 70
ENDBRANCH 57 61
ENDBRANCH 41 57
ENDBRANCH 40 44
ENDBRANCH 20 40
ENDBRANCH 19 23
ENDBRANCH 1 19
TORSDOF 14
ENDMDL
MODEL 10
REMARK VINA RESULT:      -5.4     16.414     21.285
ROOT
ATOM      1  C1  A00 X   1      16.415  22.941  35.3160  0.00  0.00     0.000 C
ATOM      2  C2  A00 X   1      16.100  21.430  35.1570  0.00  0.00     0.000 C
ATOM      3  C3  A00 X   1      14.786  20.925  35.8400  0.00  0.00     0.000 C
ATOM      4  C4  A00 X   1      14.163  21.888  36.8820  0.00  0.00     0.000 C
ATOM      5  C5  A00 X   1      15.189  22.871  37.4470  0.00  0.00     0.000 C
ATOM      6  O5  A00 X   1      15.623  23.644  36.3060  0.00  0.00     0.000 O
ATOM      7   O  A00 X   1      15.067  19.709  36.5290  0.00  0.00     0.000 O
ATOM      9  HD  A00 X   1      14.550  20.179  37.0410  0.00  0.00     0.000 HD
ATOM      9   O  A00 X   1      13.058  22.607  36.3340  0.00  0.00     0.000 O
ATOM     11  HD  A00 X   1      12.541  23.077  36.8450  0.00  0.00     0.000 HD
ENDROOT
BRANCH 2 11
ATOM     11   O  A00 X   1      16.036  21.141  33.7460  0.00  0.00     0.000 O
ATOM     12   O  A00 X   1      15.291  19.014  32.9170  0.00  0.00     0.000 OA
ATOM     13   O  A00 X   1      17.325  19.128  34.2460  0.00  0.00     0.000 OA
ATOM     14   O  A00 X   1      17.257  20.075  32.0660  0.00  0.00     0.000 OA
ATOM     15   S  A00 X   1      16.499  19.733  33.2380  0.00  0.00     0.000 S
ENDBRANCH 2 11
BRANCH 5 16
ATOM     16   C  A00 X   1      16.341  22.228  38.2260  0.00  0.00     0.000 C
ATOM     17   O  A00 X   1      17.299  22.914  38.5180  0.00  0.00     0.000 OA
ATOM     18   O  A00 X   1      16.326  21.062  38.5670  0.00  0.00     0.000 OA
ENDBRANCH 5 16
BRANCH 1 19
ATOM     19  O4  A00 X   2      17.829  23.205  35.4860  0.00  0.00     0.000 O
BRANCH 19 23
ATOM     20  C1  A00 X   2      17.821  26.552  32.8110  0.00  0.00     0.000 C
ATOM     21  C2  A00 X   2      18.359  25.206  32.2690  0.00  0.00     0.000 C
ATOM     22  C3  A00 X   2      17.906  24.033  33.1640  0.00  0.00     0.000 C
ATOM     23  C4  A00 X   2      18.301  24.288  34.6360  0.00  0.00     0.000 C
ATOM     24  C5  A00 X   2      17.722  25.669  35.0510  0.00  0.00     0.000 C
ATOM     25  O5  A00 X   2      18.280  26.689  34.1820  0.00  0.00     0.000 O
ATOM     26   O  A00 X   2      18.370  22.803  32.5830  0.00  0.00     0.000 O
ATOM     28  HD  A00 X   2      19.182  23.092  32.4970  0.00  0.00     0.000 HD
BRANCH 21 30
ATOM     28   N  A00 X   2      19.360  25.935  31.4850  0.00  0.00     0.000 N
ATOM     30  HD  A00 X   2      19.308  25.139  31.1470  0.00  0.00     0.000 HD
ATOM     30   O  A00 X   2      19.726  24.760  29.4990  0.00  0.00     0.000 OA
ATOM     31   S  A00 X   2      20.439  25.110  30.6760  0.00  0.00     0.000 S
ATOM     32   O  A00 X   2      21.504  26.044  30.4820  0.00  0.00     0.000 OA
ATOM     33   O  A00 X   2      20.868  24.034  31.5200  0.00  0.00     0.000 OA
ENDBRANCH 21 30
BRANCH 24 34
ATOM     34   C  A00 X   2      17.780  26.060  36.5460  0.00  0.00     0.000 C
ATOM     35   O  A00 X   2      15.452  28.357  38.1460  0.00  0.00     0.000 OA
ATOM     36   O  A00 X   2      16.980  27.230  36.8110  0.00  0.00     0.000 O
ATOM     37   O  A00 X   2      14.793  26.416  36.9670  0.00  0.00     0.000 OA
ATOM     38   S  A00 X   2      15.785  27.012  37.8090  0.00  0.00     0.000 S
ATOM     39   O  A00 X   2      16.297  26.225  38.8900  0.00  0.00     0.000 OA
ENDBRANCH 24 34
BRANCH 20 40
ATOM     40  O4  A00 X   3      16.391  26.435  32.7930  0.00  0.00     0.000 O
BRANCH 40 44
ATOM     41  C1  A00 X   3      13.437  27.989  31.3850  0.00  0.00     0.000 C
ATOM     42  C2  A00 X   3      14.887  28.436  31.1010  0.00  0.00     0.000 C
ATOM     43  C3  A00 X   3      15.674  28.641  32.4210  0.00  0.00     0.000 C
ATOM     44  C4  A00 X   3      15.590  27.474  33.3960  0.00  0.00     0.000 C
ATOM     45  C5  A00 X   3      14.103  27.086  33.6350  0.00  0.00     0.000 C
ATOM     46  O5  A00 X   3      13.397  26.913  32.3640  0.00  0.00     0.000 O
ATOM     47   O  A00 X   3      17.003  29.140  32.2820  0.00  0.00     0.000 O
ATOM     49  HD  A00 X   3      17.159  28.580  32.9240  0.00  0.00     0.000 HD
BRANCH 42 49
ATOM     49   O  A00 X   3      15.491  27.414  30.2790  0.00  0.00     0.000 O
ATOM     50   O  A00 X   3      17.630  27.043  29.2690  0.00  0.00     0.000 OA
ATOM     51   O  A00 X   3      16.704  29.217  29.2130  0.00  0.00     0.000 OA
ATOM     52   O  A00 X   3      15.667  27.518  27.9390  0.00  0.00     0.000 OA
ATOM     53   S  A00 X   3      16.433  27.806  29.1030  0.00  0.00     0.000 S
ENDBRANCH 42 49
BRANCH 45 54
ATOM     54   C  A00 X   3      13.406  28.068  34.5840  0.00  0.00     0.000 C
ATOM     55   O  A00 X   3      13.976  29.070  34.9650  0.00  0.00     0.000 OA
ATOM     56   O  A00 X   3      12.267  27.860  34.9730  0.00  0.00     0.000 OA
ENDBRANCH 45 54
BRANCH 41 57
ATOM     57  O4  A00 X   4      12.586  29.110  31.7120  0.00  0.00     0.000 O
BRANCH 57 61
ATOM     58  C1  A00 X   4       8.426  29.983  30.9550  0.00  0.00     0.000 C
ATOM     59  C2  A00 X   4       8.776  28.855  31.9570  0.00  0.00     0.000 C
ATOM     60  C3  A00 X   4      10.249  28.875  32.4150  0.00  0.00     0.000 C
ATOM     61  C4  A00 X   4      11.219  29.012  31.2210  0.00  0.00     0.000 C
ATOM     62  C5  A00 X   4      10.819  30.314  30.4830  0.00  0.00     0.000 C
ATOM     63  O5  A00 X   4       9.469  30.178  29.9720  0.00  0.00     0.000 O
BRANCH 59 66
ATOM     64   N  A00 X   4       8.581  27.529  31.3450  0.00  0.00     0.000 N
ATOM     66  HD  A00 X   4       8.674  27.467  30.4860  0.00  0.00     0.000 HD
ATOM     66   O  A00 X   4       6.236  27.753  31.8480  0.00  0.00     0.000 OA
ATOM     67   S  A00 X   4       7.227  26.739  31.6650  0.00  0.00     0.000 S
ATOM     68   O  A00 X   4       7.096  25.957  30.4710  0.00  0.00     0.000 OA
ATOM     69   O  A00 X   4       7.639  25.989  32.8170  0.00  0.00     0.000 OA
ENDBRANCH 59 66
BRANCH 62 70
ATOM     70   C  A00 X   4      11.754  30.686  29.3080  0.00  0.00     0.000 C
ATOM     71   O  A00 X   4      14.096  33.437  29.0650  0.00  0.00     0.000 OA
ATOM     72   O  A00 X   4      12.436  32.698  27.5670  0.00  0.00     0.000 OA
ATOM     73   O  A00 X   4      12.681  31.696  29.7400  0.00  0.00     0.000 O
ATOM     74   O  A00 X   4      11.790  33.928  29.5680  0.00  0.00     0.000 OA
ATOM     75   S  A00 X   4      12.720  33.046  28.9410  0.00  0.00     0.000 S
ENDBRANCH 62 70
ENDBRANCH 57 61
ENDBRANCH 41 57
ENDBRANCH 40 44
ENDBRANCH 20 40
ENDBRANCH 19 23
ENDBRANCH 1 19
TORSDOF 14
ENDMDL
MODEL 11
REMARK VINA RESULT:      -5.4     16.366     21.393
ROOT
ATOM      1  C1  A00 X   1      16.900  20.649  35.7920  0.00  0.00     0.000 C
ATOM      2  C2  A00 X   1      18.117  19.941  35.1380  0.00  0.00     0.000 C
ATOM      3  C3  A00 X   1      18.462  20.379  33.6760  0.00  0.00     0.000 C
ATOM      4  C4  A00 X   1      17.354  21.174  32.9370  0.00  0.00     0.000 C
ATOM      5  C5  A00 X   1      15.969  20.924  33.5330  0.00  0.00     0.000 C
ATOM      6  O5  A00 X   1      16.060  21.411  34.8910  0.00  0.00     0.000 O
ATOM      7   O  A00 X   1      18.710  19.212  32.8960  0.00  0.00     0.000 O
ATOM      9  HD  A00 X   1      18.244  19.752  32.4060  0.00  0.00     0.000 HD
ATOM      9   O  A00 X   1      17.632  22.574  32.9340  0.00  0.00     0.000 O
ATOM     11  HD  A00 X   1      17.165  23.115  32.4430  0.00  0.00     0.000 HD
ENDROOT
BRANCH 2 11
ATOM     11   O  A00 X   1      19.263  20.172  35.9790  0.00  0.00     0.000 O
ATOM     12   O  A00 X   1      21.373  19.100  35.5730  0.00  0.00     0.000 OA
ATOM     13   O  A00 X   1      19.441  17.742  36.1550  0.00  0.00     0.000 OA
ATOM     14   O  A00 X   1      20.417  19.200  37.7610  0.00  0.00     0.000 OA
ATOM     15   S  A00 X   1      20.177  18.958  36.3640  0.00  0.00     0.000 S
ENDBRANCH 2 11
BRANCH 5 16
ATOM     16   C  A00 X   1      15.472  19.478  33.4320  0.00  0.00     0.000 C
ATOM     17   O  A00 X   1      16.002  18.736  32.6310  0.00  0.00     0.000 OA
ATOM     18   O  A00 X   1      14.574  19.048  34.1280  0.00  0.00     0.000 OA
ENDBRANCH 5 16
BRANCH 1 19
ATOM     19  O4  A00 X   2      16.114  19.760  36.6230  0.00  0.00     0.000 O
BRANCH 19 23
ATOM     20  C1  A00 X   2      15.073  22.804  39.4540  0.00  0.00     0.000 C
ATOM     21  C2  A00 X   2      16.289  21.906  39.7860  0.00  0.00     0.000 C
ATOM     22  C3  A00 X   2      16.796  21.179  38.5230  0.00  0.00     0.000 C
ATOM     23  C4  A00 X   2      15.645  20.404  37.8420  0.00  0.00     0.000 C
ATOM     24  C5  A00 X   2      14.488  21.406  37.5810  0.00  0.00     0.000 C
ATOM     25  O5  A00 X   2      14.055  21.962  38.8500  0.00  0.00     0.000 O
ATOM     26   O  A00 X   2      17.963  20.414  38.8680  0.00  0.00     0.000 O
ATOM     28  HD  A00 X   2      17.579  20.041  39.5490  0.00  0.00     0.000 HD
BRANCH 21 30
ATOM     28   N  A00 X   2      15.921  21.996  41.2020  0.00  0.00     0.000 N
ATOM     30  HD  A00 X   2      16.735  21.701  41.1730  0.00  0.00     0.000 HD
ATOM     30   O  A00 X   2      17.881  21.894  42.4700  0.00  0.00     0.000 OA
ATOM     31   S  A00 X   2      16.714  21.116  42.2490  0.00  0.00     0.000 S
ATOM     32   O  A00 X   2      15.823  21.033  43.3650  0.00  0.00     0.000 OA
ATOM     33   O  A00 X   2      16.898  19.823  41.6620  0.00  0.00     0.000 OA
ENDBRANCH 21 30
BRANCH 24 34
ATOM     34   C  A00 X   2      13.305  20.936  36.7010  0.00  0.00     0.000 C
ATOM     35   O  A00 X   2      11.384  17.905  37.3170  0.00  0.00     0.000 OA
ATOM     36   O  A00 X   2      12.975  19.557  36.9630  0.00  0.00     0.000 O
ATOM     37   O  A00 X   2      11.679  19.628  38.9090  0.00  0.00     0.000 OA
ATOM     38   S  A00 X   2      11.527  19.309  37.5230  0.00  0.00     0.000 S
ATOM     39   O  A00 X   2      10.646  20.128  36.7460  0.00  0.00     0.000 OA
ENDBRANCH 24 34
BRANCH 20 40
ATOM     40  O4  A00 X   3      15.545  23.755  38.4880  0.00  0.00     0.000 O
BRANCH 40 44
ATOM     41  C1  A00 X   3      15.243  25.822  35.5290  0.00  0.00     0.000 C
ATOM     42  C2  A00 X   3      16.460  25.819  36.4800  0.00  0.00     0.000 C
ATOM     43  C3  A00 X   3      16.013  25.994  37.9540  0.00  0.00     0.000 C
ATOM     44  C4  A00 X   3      14.906  25.046  38.3970  0.00  0.00     0.000 C
ATOM     45  C5  A00 X   3      13.718  25.110  37.3950  0.00  0.00     0.000 C
ATOM     46  O5  A00 X   3      14.187  24.950  36.0170  0.00  0.00     0.000 O
ATOM     47   O  A00 X   3      17.061  26.093  38.9150  0.00  0.00     0.000 O
ATOM     49  HD  A00 X   3      16.520  25.610  39.3890  0.00  0.00     0.000 HD
BRANCH 42 49
ATOM     49   O  A00 X   3      17.148  24.564  36.2820  0.00  0.00     0.000 O
ATOM     50   O  A00 X   3      19.082  23.487  37.1920  0.00  0.00     0.000 OA
ATOM     51   O  A00 X   3      19.184  25.800  36.7120  0.00  0.00     0.000 OA
ATOM     52   O  A00 X   3      19.031  24.280  34.9090  0.00  0.00     0.000 OA
ATOM     53   S  A00 X   3      18.703  24.513  36.2730  0.00  0.00     0.000 S
ENDBRANCH 42 49
BRANCH 45 54
ATOM     54   C  A00 X   3      12.869  26.370  37.6020  0.00  0.00     0.000 C
ATOM     55   O  A00 X   3      11.769  26.465  37.0960  0.00  0.00     0.000 OA
ATOM     56   O  A00 X   3      13.283  27.299  38.2770  0.00  0.00     0.000 OA
ENDBRANCH 45 54
BRANCH 41 57
ATOM     57  O4  A00 X   4      14.804  27.166  35.2290  0.00  0.00     0.000 O
BRANCH 57 61
ATOM     58  C1  A00 X   4      12.785  28.915  31.8370  0.00  0.00     0.000 C
ATOM     59  C2  A00 X   4      12.046  27.833  32.6630  0.00  0.00     0.000 C
ATOM     60  C3  A00 X   4      12.700  27.549  34.0300  0.00  0.00     0.000 C
ATOM     61  C4  A00 X   4      14.225  27.347  33.9050  0.00  0.00     0.000 C
ATOM     62  C5  A00 X   4      14.783  28.633  33.2470  0.00  0.00     0.000 C
ATOM     63  O5  A00 X   4      14.222  28.770  31.9170  0.00  0.00     0.000 O
BRANCH 59 66
ATOM     64   N  A00 X   4      10.735  27.252  33.0060  0.00  0.00     0.000 N
ATOM     66  HD  A00 X   4      10.719  26.424  33.2590  0.00  0.00     0.000 HD
ATOM     66   O  A00 X   4      10.190  27.350  30.6620  0.00  0.00     0.000 OA
ATOM     67   S  A00 X   4       9.549  27.376  31.9400  0.00  0.00     0.000 S
ATOM     68   O  A00 X   4       8.783  26.210  32.2690  0.00  0.00     0.000 OA
ATOM     69   O  A00 X   4       8.954  28.611  32.3660  0.00  0.00     0.000 OA
ENDBRANCH 59 66
BRANCH 62 70
ATOM     70   C  A00 X   4      16.326  28.668  33.1360  0.00  0.00     0.000 C
ATOM     71   O  A00 X   4      18.501  26.531  31.1840  0.00  0.00     0.000 OA
ATOM     72   O  A00 X   4      18.607  27.170  33.4480  0.00  0.00     0.000 OA
ATOM     73   O  A00 X   4      16.744  27.806  32.0650  0.00  0.00     0.000 O
ATOM     74   O  A00 X   4      16.973  25.505  32.7430  0.00  0.00     0.000 OA
ATOM     75   S  A00 X   4      17.752  26.652  32.4030  0.00  0.00     0.000 S
ENDBRANCH 62 70
ENDBRANCH 57 61
ENDBRANCH 41 57
ENDBRANCH 40 44
ENDBRANCH 20 40
ENDBRANCH 19 23
ENDBRANCH 1 19
TORSDOF 14
ENDMDL
MODEL 12
REMARK VINA RESULT:      -5.4     28.025     32.158
ROOT
ATOM      1  C1  A00 X   1      17.107  42.551  17.1530  0.00  0.00     0.000 C
ATOM      2  C2  A00 X   1      17.990  43.626  16.4650  0.00  0.00     0.000 C
ATOM      3  C3  A00 X   1      17.225  44.777  15.7330  0.00  0.00     0.000 C
ATOM      4  C4  A00 X   1      15.720  44.516  15.4670  0.00  0.00     0.000 C
ATOM      5  C5  A00 X   1      15.385  43.025  15.4630  0.00  0.00     0.000 C
ATOM      6  O5  A00 X   1      15.702  42.574  16.7990  0.00  0.00     0.000 O
ATOM      7   O  A00 X   1      17.830  44.991  14.4600  0.00  0.00     0.000 O
ATOM      9  HD  A00 X   1      16.973  45.037  14.3460  0.00  0.00     0.000 HD
ATOM      9   O  A00 X   1      14.897  45.194  16.4160  0.00  0.00     0.000 O
ATOM     11  HD  A00 X   1      14.040  45.240  16.3020  0.00  0.00     0.000 HD
ENDROOT
BRANCH 2 11
ATOM     11   O  A00 X   1      18.847  44.198  17.4720  0.00  0.00     0.000 O
ATOM     12   O  A00 X   1      20.226  46.114  17.0260  0.00  0.00     0.000 OA
ATOM     13   O  A00 X   1      20.644  44.041  15.8240  0.00  0.00     0.000 OA
ATOM     14   O  A00 X   1      21.079  44.189  18.1580  0.00  0.00     0.000 OA
ATOM     15   S  A00 X   1      20.284  44.674  17.0630  0.00  0.00     0.000 S
ENDBRANCH 2 11
BRANCH 5 16
ATOM     16   C  A00 X   1      16.070  42.209  14.3620  0.00  0.00     0.000 C
ATOM     17   O  A00 X   1      16.194  41.012  14.5180  0.00  0.00     0.000 OA
ATOM     18   O  A00 X   1      16.486  42.716  13.3390  0.00  0.00     0.000 OA
ENDBRANCH 5 16
BRANCH 1 19
ATOM     19  O4  A00 X   2      17.658  41.216  17.0390  0.00  0.00     0.000 O
BRANCH 19 23
ATOM     20  C1  A00 X   2      16.587  40.082  21.0310  0.00  0.00     0.000 C
ATOM     21  C2  A00 X   2      18.022  40.614  20.8000  0.00  0.00     0.000 C
ATOM     22  C3  A00 X   2      18.119  41.369  19.4580  0.00  0.00     0.000 C
ATOM     23  C4  A00 X   2      17.613  40.483  18.2970  0.00  0.00     0.000 C
ATOM     24  C5  A00 X   2      16.181  40.002  18.6570  0.00  0.00     0.000 C
ATOM     25  O5  A00 X   2      16.239  39.247  19.8950  0.00  0.00     0.000 O
ATOM     26   O  A00 X   2      19.448  41.901  19.3220  0.00  0.00     0.000 O
ATOM     28  HD  A00 X   2      19.824  41.142  19.5060  0.00  0.00     0.000 HD
BRANCH 21 30
ATOM     28   N  A00 X   2      18.486  39.688  21.8380  0.00  0.00     0.000 N
ATOM     30  HD  A00 X   2      19.123  40.260  21.7090  0.00  0.00     0.000 HD
ATOM     30   O  A00 X   2      20.322  40.657  22.9090  0.00  0.00     0.000 OA
ATOM     31   S  A00 X   2      20.041  39.538  22.0810  0.00  0.00     0.000 S
ATOM     32   O  A00 X   2      20.162  38.266  22.7230  0.00  0.00     0.000 OA
ATOM     33   O  A00 X   2      20.670  39.508  20.7940  0.00  0.00     0.000 OA
ENDBRANCH 21 30
BRANCH 24 34
ATOM     34   C  A00 X   2      15.358  39.287  17.5590  0.00  0.00     0.000 C
ATOM     35   O  A00 X   2      16.430  36.250  15.8590  0.00  0.00     0.000 OA
ATOM     36   O  A00 X   2      16.168  38.342  16.8320  0.00  0.00     0.000 O
ATOM     37   O  A00 X   2      16.234  36.451  18.2080  0.00  0.00     0.000 OA
ATOM     38   S  A00 X   2      15.706  36.842  16.9360  0.00  0.00     0.000 S
ATOM     39   O  A00 X   2      14.283  36.845  16.7810  0.00  0.00     0.000 OA
ENDBRANCH 24 34
BRANCH 20 40
ATOM     40  O4  A00 X   3      15.742  41.242  21.0500  0.00  0.00     0.000 O
BRANCH 40 44
ATOM     41  C1  A00 X   3      12.674  42.960  20.1800  0.00  0.00     0.000 C
ATOM     42  C2  A00 X   3      13.820  43.573  21.0130  0.00  0.00     0.000 C
ATOM     43  C3  A00 X   3      14.223  42.634  22.1790  0.00  0.00     0.000 C
ATOM     44  C4  A00 X   3      14.490  41.192  21.7660  0.00  0.00     0.000 C
ATOM     45  C5  A00 X   3      13.293  40.645  20.9380  0.00  0.00     0.000 C
ATOM     46  O5  A00 X   3      12.941  41.568  19.8570  0.00  0.00     0.000 O
ATOM     47   O  A00 X   3      15.216  43.137  23.0700  0.00  0.00     0.000 O
ATOM     49  HD  A00 X   3      15.492  42.316  23.0470  0.00  0.00     0.000 HD
BRANCH 42 49
ATOM     49   O  A00 X   3      14.925  43.799  20.1110  0.00  0.00     0.000 O
ATOM     50   O  A00 X   3      17.173  44.602  20.2920  0.00  0.00     0.000 OA
ATOM     51   O  A00 X   3      15.469  45.696  21.5130  0.00  0.00     0.000 OA
ATOM     52   O  A00 X   3      15.461  45.877  19.1560  0.00  0.00     0.000 OA
ATOM     53   S  A00 X   3      15.821  45.063  20.2660  0.00  0.00     0.000 S
ENDBRANCH 42 49
BRANCH 45 54
ATOM     54   C  A00 X   3      12.102  40.282  21.8330  0.00  0.00     0.000 C
ATOM     55   O  A00 X   3      11.242  39.521  21.4400  0.00  0.00     0.000 OA
ATOM     56   O  A00 X   3      11.997  40.752  22.9550  0.00  0.00     0.000 OA
ENDBRANCH 45 54
BRANCH 41 57
ATOM     57  O4  A00 X   4      11.386  43.184  20.7970  0.00  0.00     0.000 O
BRANCH 57 61
ATOM     58  C1  A00 X   4       7.352  43.254  19.2610  0.00  0.00     0.000 C
ATOM     59  C2  A00 X   4       7.989  41.886  19.6090  0.00  0.00     0.000 C
ATOM     60  C3  A00 X   4       9.263  42.002  20.4700  0.00  0.00     0.000 C
ATOM     61  C4  A00 X   4      10.243  43.053  19.9050  0.00  0.00     0.000 C
ATOM     62  C5  A00 X   4       9.459  44.388  19.8400  0.00  0.00     0.000 C
ATOM     63  O5  A00 X   4       8.348  44.244  18.9180  0.00  0.00     0.000 O
BRANCH 59 66
ATOM     64   N  A00 X   4       7.351  40.691  20.1910  0.00  0.00     0.000 N
ATOM     66  HD  A00 X   4       7.843  39.987  20.2990  0.00  0.00     0.000 HD
ATOM     66   O  A00 X   4       6.126  40.465  18.1300  0.00  0.00     0.000 OA
ATOM     67   S  A00 X   4       6.005  40.148  19.5190  0.00  0.00     0.000 S
ATOM     68   O  A00 X   4       6.097  38.755  19.8450  0.00  0.00     0.000 OA
ATOM     69   O  A00 X   4       5.030  40.869  20.2870  0.00  0.00     0.000 OA
ENDBRANCH 59 66
BRANCH 62 70
ATOM     70   C  A00 X   4      10.312  45.600  19.3970  0.00  0.00     0.000 C
ATOM     71   O  A00 X   4      11.530  46.421  16.0880  0.00  0.00     0.000 OA
ATOM     72   O  A00 X   4      12.650  46.333  18.1570  0.00  0.00     0.000 OA
ATOM     73   O  A00 X   4      10.351  45.655  17.9620  0.00  0.00     0.000 O
ATOM     74   O  A00 X   4      12.072  44.261  17.0120  0.00  0.00     0.000 OA
ATOM     75   S  A00 X   4      11.756  45.630  17.2650  0.00  0.00     0.000 S
ENDBRANCH 62 70
ENDBRANCH 57 61
ENDBRANCH 41 57
ENDBRANCH 40 44
ENDBRANCH 20 40
ENDBRANCH 19 23
ENDBRANCH 1 19
TORSDOF 14
ENDMDL
MODEL 13
REMARK VINA RESULT:      -5.3     21.963     25.894
ROOT
ATOM      1  C1  A00 X   1      20.620  30.884  22.7570  0.00  0.00     0.000 C
ATOM      2  C2  A00 X   1      20.762  31.632  24.1090  0.00  0.00     0.000 C
ATOM      3  C3  A00 X   1      21.907  32.695  24.1900  0.00  0.00     0.000 C
ATOM      4  C4  A00 X   1      22.974  32.613  23.0680  0.00  0.00     0.000 C
ATOM      5  C5  A00 X   1      23.032  31.228  22.4260  0.00  0.00     0.000 C
ATOM      6  O5  A00 X   1      21.726  31.042  21.8350  0.00  0.00     0.000 O
ATOM      7   O  A00 X   1      22.602  32.525  25.4230  0.00  0.00     0.000 O
ATOM      9  HD  A00 X   1      23.198  32.675  24.8120  0.00  0.00     0.000 HD
ATOM      9   O  A00 X   1      22.751  33.602  22.0630  0.00  0.00     0.000 O
ATOM     11  HD  A00 X   1      23.347  33.751  21.4520  0.00  0.00     0.000 HD
ENDROOT
BRANCH 2 11
ATOM     11   O  A00 X   1      19.504  32.277  24.3880  0.00  0.00     0.000 O
ATOM     12   O  A00 X   1      19.238  33.804  26.2220  0.00  0.00     0.000 OA
ATOM     13   O  A00 X   1      19.766  31.474  26.6800  0.00  0.00     0.000 OA
ATOM     14   O  A00 X   1      17.645  32.076  25.7870  0.00  0.00     0.000 OA
ATOM     15   S  A00 X   1      19.038  32.419  25.8780  0.00  0.00     0.000 S
ENDBRANCH 2 11
BRANCH 5 16
ATOM     16   C  A00 X   1      23.445  30.093  23.3690  0.00  0.00     0.000 C
ATOM     17   O  A00 X   1      23.304  28.947  22.9960  0.00  0.00     0.000 OA
ATOM     18   O  A00 X   1      23.913  30.300  24.4710  0.00  0.00     0.000 OA
ENDBRANCH 5 16
BRANCH 1 19
ATOM     19  O4  A00 X   2      20.265  29.489  22.9220  0.00  0.00     0.000 O
BRANCH 19 23
ATOM     20  C1  A00 X   2      17.509  29.486  19.6410  0.00  0.00     0.000 C
ATOM     21  C2  A00 X   2      16.924  29.649  21.0650  0.00  0.00     0.000 C
ATOM     22  C3  A00 X   2      18.024  30.061  22.0660  0.00  0.00     0.000 C
ATOM     23  C4  A00 X   2      19.208  29.070  22.0130  0.00  0.00     0.000 C
ATOM     24  C5  A00 X   2      19.688  28.982  20.5390  0.00  0.00     0.000 C
ATOM     25  O5  A00 X   2      18.587  28.515  19.7160  0.00  0.00     0.000 O
ATOM     26   O  A00 X   2      17.420  30.266  23.3550  0.00  0.00     0.000 O
ATOM     28  HD  A00 X   2      17.008  29.505  23.3390  0.00  0.00     0.000 HD
BRANCH 21 30
ATOM     28   N  A00 X   2      15.753  28.875  20.6420  0.00  0.00     0.000 N
ATOM     30  HD  A00 X   2      15.535  29.279  21.3760  0.00  0.00     0.000 HD
ATOM     30   O  A00 X   2      13.894  29.671  21.8110  0.00  0.00     0.000 OA
ATOM     31   S  A00 X   2      14.670  28.485  21.7250  0.00  0.00     0.000 S
ATOM     32   O  A00 X   2      13.998  27.364  21.1440  0.00  0.00     0.000 OA
ATOM     33   O  A00 X   2      15.376  28.084  22.9050  0.00  0.00     0.000 OA
ENDBRANCH 21 30
BRANCH 24 34
ATOM     34   C  A00 X   2      21.009  28.232  20.2490  0.00  0.00     0.000 C
ATOM     35   O  A00 X   2      21.357  25.597  17.7610  0.00  0.00     0.000 OA
ATOM     36   O  A00 X   2      20.772  27.029  19.4910  0.00  0.00     0.000 O
ATOM     37   O  A00 X   2      20.547  27.767  17.2830  0.00  0.00     0.000 OA
ATOM     38   S  A00 X   2      21.449  26.986  18.0730  0.00  0.00     0.000 S
ATOM     39   O  A00 X   2      22.781  27.483  18.2440  0.00  0.00     0.000 OA
ENDBRANCH 24 34
BRANCH 20 40
ATOM     40  O4  A00 X   3      18.044  30.771  19.2920  0.00  0.00     0.000 O
BRANCH 40 44
ATOM     41  C1  A00 X   3      19.740  33.717  18.0410  0.00  0.00     0.000 C
ATOM     42  C2  A00 X   3      18.210  33.579  18.1890  0.00  0.00     0.000 C
ATOM     43  C3  A00 X   3      17.703  32.275  17.5200  0.00  0.00     0.000 C
ATOM     44  C4  A00 X   3      18.458  31.018  17.9310  0.00  0.00     0.000 C
ATOM     45  C5  A00 X   3      19.987  31.232  17.7500  0.00  0.00     0.000 C
ATOM     46  O5  A00 X   3      20.419  32.478  18.3870  0.00  0.00     0.000 O
ATOM     47   O  A00 X   3      16.289  32.085  17.5190  0.00  0.00     0.000 O
ATOM     49  HD  A00 X   3      16.513  31.263  17.6730  0.00  0.00     0.000 HD
BRANCH 42 49
ATOM     49   O  A00 X   3      17.918  33.595  19.6030  0.00  0.00     0.000 O
ATOM     50   O  A00 X   3      15.953  33.514  20.9680  0.00  0.00     0.000 OA
ATOM     51   O  A00 X   3      15.930  34.843  19.0130  0.00  0.00     0.000 OA
ATOM     52   O  A00 X   3      17.306  35.512  20.8140  0.00  0.00     0.000 OA
ATOM     53   S  A00 X   3      16.707  34.408  20.1470  0.00  0.00     0.000 S
ENDBRANCH 42 49
BRANCH 45 54
ATOM     54   C  A00 X   3      20.404  31.131  16.2780  0.00  0.00     0.000 C
ATOM     55   O  A00 X   3      19.591  31.298  15.3920  0.00  0.00     0.000 OA
ATOM     56   O  A00 X   3      21.559  30.880  15.9710  0.00  0.00     0.000 OA
ENDBRANCH 45 54
BRANCH 41 57
ATOM     57  O4  A00 X   4      20.106  34.245  16.7460  0.00  0.00     0.000 O
BRANCH 57 61
ATOM     58  C1  A00 X   4      23.337  36.772  15.3990  0.00  0.00     0.000 C
ATOM     59  C2  A00 X   4      23.598  35.253  15.5490  0.00  0.00     0.000 C
ATOM     60  C3  A00 X   4      22.308  34.418  15.6810  0.00  0.00     0.000 C
ATOM     61  C4  A00 X   4      21.339  35.020  16.7210  0.00  0.00     0.000 C
ATOM     62  C5  A00 X   4      21.051  36.471  16.2590  0.00  0.00     0.000 C
ATOM     63  O5  A00 X   4      22.286  37.231  16.2790  0.00  0.00     0.000 O
BRANCH 59 66
ATOM     64   N  A00 X   4      24.422  34.482  16.4970  0.00  0.00     0.000 N
ATOM     66  HD  A00 X   4      24.371  34.694  17.3350  0.00  0.00     0.000 HD
ATOM     66   O  A00 X   4      26.351  35.564  15.5450  0.00  0.00     0.000 OA
ATOM     67   S  A00 X   4      25.989  34.348  16.2050  0.00  0.00     0.000 S
ATOM     68   O  A00 X   4      26.489  34.197  17.5400  0.00  0.00     0.000 OA
ATOM     69   O  A00 X   4      26.000  33.139  15.4320  0.00  0.00     0.000 OA
ENDBRANCH 59 66
BRANCH 62 70
ATOM     70   C  A00 X   4      20.003  37.212  17.1230  0.00  0.00     0.000 C
ATOM     71   O  A00 X   4      16.401  37.257  16.7660  0.00  0.00     0.000 OA
ATOM     72   O  A00 X   4      17.937  39.020  17.0390  0.00  0.00     0.000 OA
ATOM     73   O  A00 X   4      18.688  36.750  16.7750  0.00  0.00     0.000 O
ATOM     74   O  A00 X   4      17.754  37.907  14.8790  0.00  0.00     0.000 OA
ATOM     75   S  A00 X   4      17.639  37.814  16.2990  0.00  0.00     0.000 S
ENDBRANCH 62 70
ENDBRANCH 57 61
ENDBRANCH 41 57
ENDBRANCH 40 44
ENDBRANCH 20 40
ENDBRANCH 19 23
ENDBRANCH 1 19
TORSDOF 14
ENDMDL
MODEL 14
REMARK VINA RESULT:      -5.2      6.160     11.633
ROOT
ATOM      1  C1  A00 X   1      13.137  11.185  24.9520  0.00  0.00     0.000 C
ATOM      2  C2  A00 X   1      12.793  11.790  26.3390  0.00  0.00     0.000 C
ATOM      3  C3  A00 X   1      13.864  12.750  26.9550  0.00  0.00     0.000 C
ATOM      4  C4  A00 X   1      15.268  12.694  26.3000  0.00  0.00     0.000 C
ATOM      5  C5  A00 X   1      15.511  11.374  25.5680  0.00  0.00     0.000 C
ATOM      6  O5  A00 X   1      14.513  11.345  24.5230  0.00  0.00     0.000 O
ATOM      7   O  A00 X   1      14.044  12.414  28.3280  0.00  0.00     0.000 O
ATOM      9  HD  A00 X   1      14.829  12.574  28.0000  0.00  0.00     0.000 HD
ATOM      9   O  A00 X   1      15.471  13.786  25.4040  0.00  0.00     0.000 O
ATOM     11  HD  A00 X   1      16.256  13.947  25.0750  0.00  0.00     0.000 HD
ENDROOT
BRANCH 2 11
ATOM     11   O  A00 X   1      11.546  12.500  26.2100  0.00  0.00     0.000 O
ATOM     12   O  A00 X   1      10.759  14.004  27.9090  0.00  0.00     0.000 OA
ATOM     13   O  A00 X   1      10.994  11.639  28.4290  0.00  0.00     0.000 OA
ATOM     14   O  A00 X   1       9.321  12.378  26.9080  0.00  0.00     0.000 OA
ATOM     15   S  A00 X   1      10.620  12.639  27.4670  0.00  0.00     0.000 S
ENDBRANCH 2 11
BRANCH 5 16
ATOM     16   C  A00 X   1      15.502  10.128  26.4590  0.00  0.00     0.000 C
ATOM     17   O  A00 X   1      15.508   9.035  25.9300  0.00  0.00     0.000 OA
ATOM     18   O  A00 X   1      15.497  10.194  27.6720  0.00  0.00     0.000 OA
ENDBRANCH 5 16
BRANCH 1 19
ATOM     19  O4  A00 X   2      12.697   9.812  24.8140  0.00  0.00     0.000 O
BRANCH 19 23
ATOM     20  C1  A00 X   2      12.243   9.822  20.5520  0.00  0.00     0.000 C
ATOM     21  C2  A00 X   2      11.142  10.516  21.3900  0.00  0.00     0.000 C
ATOM     22  C3  A00 X   2      11.642  10.810  22.8190  0.00  0.00     0.000 C
ATOM     23  C4  A00 X   2      12.179   9.522  23.4840  0.00  0.00     0.000 C
ATOM     24  C5  A00 X   2      13.256   8.917  22.5430  0.00  0.00     0.000 C
ATOM     25  O5  A00 X   2      12.643   8.619  21.2610  0.00  0.00     0.000 O
ATOM     26   O  A00 X   2      10.611  11.514  23.5330  0.00  0.00     0.000 O
ATOM     28  HD  A00 X   2      10.000  10.939  23.3170  0.00  0.00     0.000 HD
BRANCH 21 30
ATOM     28   N  A00 X   2      10.356  11.726  21.6490  0.00  0.00     0.000 N
ATOM     30  HD  A00 X   2      10.062  11.390  20.9070  0.00  0.00     0.000 HD
ATOM     30   O  A00 X   2       8.455  11.663  20.2920  0.00  0.00     0.000 OA
ATOM     31   S  A00 X   2       9.637  12.437  20.4340  0.00  0.00     0.000 S
ATOM     32   O  A00 X   2       9.430  13.774  20.8990  0.00  0.00     0.000 OA
ATOM     33   O  A00 X   2      10.554  12.429  19.3340  0.00  0.00     0.000 OA
ENDBRANCH 21 30
BRANCH 24 34
ATOM     34   C  A00 X   2      14.115   7.747  23.0800  0.00  0.00     0.000 C
ATOM     35   O  A00 X   2      12.743   4.610  24.3180  0.00  0.00     0.000 OA
ATOM     36   O  A00 X   2      13.311   6.804  23.8160  0.00  0.00     0.000 O
ATOM     37   O  A00 X   2      12.302   5.487  22.1670  0.00  0.00     0.000 OA
ATOM     38   S  A00 X   2      13.265   5.351  23.2170  0.00  0.00     0.000 S
ATOM     39   O  A00 X   2      14.609   5.023  22.8470  0.00  0.00     0.000 OA
ENDBRANCH 24 34
BRANCH 20 40
ATOM     40  O4  A00 X   3      13.342  10.744  20.5160  0.00  0.00     0.000 O
BRANCH 40 44
ATOM     41  C1  A00 X   3      16.777  11.893  20.5820  0.00  0.00     0.000 C
ATOM     42  C2  A00 X   3      15.561  12.775  20.2260  0.00  0.00     0.000 C
ATOM     43  C3  A00 X   3      14.683  12.099  19.1420  0.00  0.00     0.000 C
ATOM     44  C4  A00 X   3      14.305  10.654  19.4440  0.00  0.00     0.000 C
ATOM     45  C5  A00 X   3      15.578   9.831  19.7860  0.00  0.00     0.000 C
ATOM     46  O5  A00 X   3      16.382  10.511  20.8050  0.00  0.00     0.000 O
ATOM     47   O  A00 X   3      13.575  12.864  18.6710  0.00  0.00     0.000 O
ATOM     49  HD  A00 X   3      13.182  12.092  18.6820  0.00  0.00     0.000 HD
BRANCH 42 49
ATOM     49   O  A00 X   3      14.821  12.988  21.4480  0.00  0.00     0.000 O
ATOM     50   O  A00 X   3      12.772  14.060  22.0680  0.00  0.00     0.000 OA
ATOM     51   O  A00 X   3      14.186  15.122  20.5000  0.00  0.00     0.000 OA
ATOM     52   O  A00 X   3      14.919  14.946  22.7400  0.00  0.00     0.000 OA
ATOM     53   S  A00 X   3      14.126  14.354  21.7180  0.00  0.00     0.000 S
ENDBRANCH 42 49
BRANCH 45 54
ATOM     54   C  A00 X   3      16.378   9.472  18.5280  0.00  0.00     0.000 C
ATOM     55   O  A00 X   3      15.934   9.711  17.4240  0.00  0.00     0.000 OA
ATOM     56   O  A00 X   3      17.473   8.939  18.6140  0.00  0.00     0.000 OA
ENDBRANCH 45 54
BRANCH 41 57
ATOM     57  O4  A00 X   4      17.848  12.050  19.6240  0.00  0.00     0.000 O
BRANCH 57 61
ATOM     58  C1  A00 X   4      22.109  12.469  20.1820  0.00  0.00     0.000 C
ATOM     59  C2  A00 X   4      21.560  11.122  19.6500  0.00  0.00     0.000 C
ATOM     60  C3  A00 X   4      20.102  11.205  19.1550  0.00  0.00     0.000 C
ATOM     61  C4  A00 X   4      19.191  11.924  20.1730  0.00  0.00     0.000 C
ATOM     62  C5  A00 X   4      19.811  13.326  20.3980  0.00  0.00     0.000 C
ATOM     63  O5  A00 X   4      21.131  13.175  20.9800  0.00  0.00     0.000 O
BRANCH 59 66
ATOM     64   N  A00 X   4      21.710  10.490  20.9730  0.00  0.00     0.000 N
ATOM     66  HD  A00 X   4      21.805  11.012  21.6570  0.00  0.00     0.000 HD
ATOM     66   O  A00 X   4      23.889   9.751  20.2620  0.00  0.00     0.000 OA
ATOM     67   S  A00 X   4      22.838   9.371  21.1540  0.00  0.00     0.000 S
ATOM     68   O  A00 X   4      23.130   9.521  22.5500  0.00  0.00     0.000 OA
ATOM     69   O  A00 X   4      22.082   8.194  20.8350  0.00  0.00     0.000 OA
ENDBRANCH 59 66
BRANCH 62 70
ATOM     70   C  A00 X   4      18.972  14.248  21.3150  0.00  0.00     0.000 C
ATOM     71   O  A00 X   4      19.878  15.692  24.5090  0.00  0.00     0.000 OA
ATOM     72   O  A00 X   4      17.946  14.520  23.8480  0.00  0.00     0.000 OA
ATOM     73   O  A00 X   4      19.813  14.777  22.3530  0.00  0.00     0.000 O
ATOM     74   O  A00 X   4      20.018  13.299  24.2450  0.00  0.00     0.000 OA
ATOM     75   S  A00 X   4      19.392  14.517  23.8410  0.00  0.00     0.000 S
ENDBRANCH 62 70
ENDBRANCH 57 61
ENDBRANCH 41 57
ENDBRANCH 40 44
ENDBRANCH 20 40
ENDBRANCH 19 23
ENDBRANCH 1 19
TORSDOF 14
ENDMDL
MODEL 15
REMARK VINA RESULT:      -5.2     32.476     36.029
ROOT
ATOM      1  C1  A00 X   1      21.105  45.222  11.9850  0.00  0.00     0.000 C
ATOM      2  C2  A00 X   1      20.539  46.354  11.0870  0.00  0.00     0.000 C
ATOM      3  C3  A00 X   1      18.992  46.342  10.8600  0.00  0.00     0.000 C
ATOM      4  C4  A00 X   1      18.270  45.023  11.2390  0.00  0.00     0.000 C
ATOM      5  C5  A00 X   1      19.221  43.826  11.2440  0.00  0.00     0.000 C
ATOM      6  O5  A00 X   1      20.192  44.133  12.2700  0.00  0.00     0.000 O
ATOM      7   O  A00 X   1      18.731  46.561   9.4750  0.00  0.00     0.000 O
ATOM      9  HD  A00 X   1      18.185  45.945   9.7430  0.00  0.00     0.000 HD
ATOM      9   O  A00 X   1      17.622  45.129  12.5070  0.00  0.00     0.000 O
ATOM     11  HD  A00 X   1      17.075  44.513  12.7750  0.00  0.00     0.000 HD
ENDROOT
BRANCH 2 11
ATOM     11   O  A00 X   1      20.917  47.612  11.6780  0.00  0.00     0.000 O
ATOM     12   O  A00 X   1      20.087  49.706  10.8450  0.00  0.00     0.000 OA
ATOM     13   O  A00 X   1      21.499  48.334   9.4180  0.00  0.00     0.000 OA
ATOM     14   O  A00 X   1      22.401  49.386  11.3520  0.00  0.00     0.000 OA
ATOM     15   S  A00 X   1      21.225  48.829  10.7390  0.00  0.00     0.000 S
ENDBRANCH 2 11
BRANCH 5 16
ATOM     16   C  A00 X   1      19.848  43.490   9.8870  0.00  0.00     0.000 C
ATOM     17   O  A00 X   1      19.387  44.008   8.8910  0.00  0.00     0.000 OA
ATOM     18   O  A00 X   1      20.791  42.733   9.7740  0.00  0.00     0.000 OA
ENDBRANCH 5 16
BRANCH 1 19
ATOM     19  O4  A00 X   2      22.388  44.729  11.5260  0.00  0.00     0.000 O
BRANCH 19 23
ATOM     20  C1  A00 X   2      23.986  44.319  15.4810  0.00  0.00     0.000 C
ATOM     21  C2  A00 X   2      24.365  45.592  14.6860  0.00  0.00     0.000 C
ATOM     22  C3  A00 X   2      23.400  45.807  13.5010  0.00  0.00     0.000 C
ATOM     23  C4  A00 X   2      23.337  44.542  12.6150  0.00  0.00     0.000 C
ATOM     24  C5  A00 X   2      22.968  43.341  13.5280  0.00  0.00     0.000 C
ATOM     25  O5  A00 X   2      23.988  43.202  14.5520  0.00  0.00     0.000 O
ATOM     26   O  A00 X   2      23.751  47.033  12.8380  0.00  0.00     0.000 O
ATOM     28  HD  A00 X   2      24.588  46.821  12.7780  0.00  0.00     0.000 HD
BRANCH 21 30
ATOM     28   N  A00 X   2      25.684  45.556  15.3250  0.00  0.00     0.000 N
ATOM     30  HD  A00 X   2      25.592  46.347  14.9840  0.00  0.00     0.000 HD
ATOM     30   O  A00 X   2      26.434  47.756  15.5680  0.00  0.00     0.000 OA
ATOM     31   S  A00 X   2      26.786  46.584  14.8470  0.00  0.00     0.000 S
ATOM     32   O  A00 X   2      28.016  45.974  15.2500  0.00  0.00     0.000 OA
ATOM     33   O  A00 X   2      26.710  46.653  13.4180  0.00  0.00     0.000 OA
ENDBRANCH 21 30
BRANCH 24 34
ATOM     34   C  A00 X   2      22.616  41.996  12.8510  0.00  0.00     0.000 C
ATOM     35   O  A00 X   2      24.845  40.198  10.6010  0.00  0.00     0.000 OA
ATOM     36   O  A00 X   2      23.517  41.707  11.7630  0.00  0.00     0.000 O
ATOM     37   O  A00 X   2      25.425  40.842  12.8020  0.00  0.00     0.000 OA
ATOM     38   S  A00 X   2      24.377  40.401  11.9330  0.00  0.00     0.000 S
ATOM     39   O  A00 X   2      23.488  39.392  12.4250  0.00  0.00     0.000 OA
ENDBRANCH 24 34
BRANCH 20 40
ATOM     40  O4  A00 X   3      22.652  44.543  15.9600  0.00  0.00     0.000 O
BRANCH 40 44
ATOM     41  C1  A00 X   3      19.341  43.101  16.2420  0.00  0.00     0.000 C
ATOM     42  C2  A00 X   3      19.716  44.536  16.6730  0.00  0.00     0.000 C
ATOM     43  C3  A00 X   3      20.964  44.530  17.5930  0.00  0.00     0.000 C
ATOM     44  C4  A00 X   3      22.148  43.741  17.0490  0.00  0.00     0.000 C
ATOM     45  C5  A00 X   3      21.693  42.311  16.6420  0.00  0.00     0.000 C
ATOM     46  O5  A00 X   3      20.508  42.364  15.7840  0.00  0.00     0.000 O
ATOM     47   O  A00 X   3      21.351  45.795  18.1250  0.00  0.00     0.000 O
ATOM     49  HD  A00 X   3      22.147  45.489  17.9740  0.00  0.00     0.000 HD
BRANCH 42 49
ATOM     49   O  A00 X   3      19.953  45.293  15.4660  0.00  0.00     0.000 O
ATOM     50   O  A00 X   3      20.674  47.510  14.9250  0.00  0.00     0.000 OA
ATOM     51   O  A00 X   3      19.145  47.209  16.7030  0.00  0.00     0.000 OA
ATOM     52   O  A00 X   3      18.410  46.775  14.4990  0.00  0.00     0.000 OA
ATOM     53   S  A00 X   3      19.527  46.787  15.3790  0.00  0.00     0.000 S
ENDBRANCH 42 49
BRANCH 45 54
ATOM     54   C  A00 X   3      21.513  41.404  17.8650  0.00  0.00     0.000 C
ATOM     55   O  A00 X   3      21.485  40.196  17.7410  0.00  0.00     0.000 OA
ATOM     56   O  A00 X   3      21.393  41.879  18.9840  0.00  0.00     0.000 OA
ENDBRANCH 45 54
BRANCH 41 57
ATOM     57  O4  A00 X   4      18.578  42.419  17.2620  0.00  0.00     0.000 O
BRANCH 57 61
ATOM     58  C1  A00 X   4      15.711  39.193  17.1510  0.00  0.00     0.000 C
ATOM     59  C2  A00 X   4      17.214  38.855  16.9900  0.00  0.00     0.000 C
ATOM     60  C3  A00 X   4      18.151  40.009  17.4010  0.00  0.00     0.000 C
ATOM     61  C4  A00 X   4      17.714  41.352  16.7780  0.00  0.00     0.000 C
ATOM     62  C5  A00 X   4      16.255  41.592  17.2400  0.00  0.00     0.000 C
ATOM     63  O5  A00 X   4      15.409  40.538  16.7140  0.00  0.00     0.000 O
BRANCH 59 66
ATOM     64   N  A00 X   4      18.333  37.942  16.6940  0.00  0.00     0.000 N
ATOM     66  HD  A00 X   4      18.851  38.146  16.0300  0.00  0.00     0.000 HD
ATOM     66   O  A00 X   4      16.699  36.347  15.9300  0.00  0.00     0.000 OA
ATOM     67   S  A00 X   4      18.011  36.388  16.4960  0.00  0.00     0.000 S
ATOM     68   O  A00 X   4      19.076  36.013  15.6120  0.00  0.00     0.000 OA
ATOM     69   O  A00 X   4      18.174  35.922  17.8440  0.00  0.00     0.000 OA
ENDBRANCH 59 66
BRANCH 62 70
ATOM     70   C  A00 X   4      15.670  42.956  16.8030  0.00  0.00     0.000 C
ATOM     71   O  A00 X   4      13.850  43.773  13.7830  0.00  0.00     0.000 OA
ATOM     72   O  A00 X   4      15.685  44.838  14.8030  0.00  0.00     0.000 OA
ATOM     73   O  A00 X   4      14.820  42.765  15.6610  0.00  0.00     0.000 O
ATOM     74   O  A00 X   4      16.028  42.761  13.5770  0.00  0.00     0.000 OA
ATOM     75   S  A00 X   4      15.150  43.571  14.3570  0.00  0.00     0.000 S
ENDBRANCH 62 70
ENDBRANCH 57 61
ENDBRANCH 41 57
ENDBRANCH 40 44
ENDBRANCH 20 40
ENDBRANCH 19 23
ENDBRANCH 1 19
TORSDOF 14
ENDMDL
MODEL 16
REMARK VINA RESULT:      -5.1     11.609     16.372
ROOT
ATOM      1  C1  A00 X   1      17.033  13.028  20.9800  0.00  0.00     0.000 C
ATOM      2  C2  A00 X   1      16.811  13.332  22.4850  0.00  0.00     0.000 C
ATOM      3  C3  A00 X   1      15.538  12.695  23.1350  0.00  0.00     0.000 C
ATOM      4  C4  A00 X   1      14.478  12.157  22.1400  0.00  0.00     0.000 C
ATOM      5  C5  A00 X   1      14.592  12.813  20.7640  0.00  0.00     0.000 C
ATOM      6  O5  A00 X   1      15.904  12.439  20.2870  0.00  0.00     0.000 O
ATOM      7   O  A00 X   1      14.885  13.684  23.9270  0.00  0.00     0.000 O
ATOM      9  HD  A00 X   1      14.268  13.245  23.5070  0.00  0.00     0.000 HD
ATOM      9   O  A00 X   1      14.559  10.739  22.0060  0.00  0.00     0.000 O
ATOM     11  HD  A00 X   1      13.942  10.300  21.5860  0.00  0.00     0.000 HD
ENDROOT
BRANCH 2 11
ATOM     11   O  A00 X   1      17.978  12.883  23.2000  0.00  0.00     0.000 O
ATOM     12   O  A00 X   1      17.965  12.566  25.5810  0.00  0.00     0.000 OA
ATOM     13   O  A00 X   1      17.634  14.799  24.6750  0.00  0.00     0.000 OA
ATOM     14   O  A00 X   1      19.744  13.719  24.4770  0.00  0.00     0.000 OA
ATOM     15   S  A00 X   1      18.321  13.541  24.5810  0.00  0.00     0.000 S
ENDBRANCH 2 11
BRANCH 5 16
ATOM     16   C  A00 X   1      14.341  14.324  20.7430  0.00  0.00     0.000 C
ATOM     17   O  A00 X   1      14.605  14.944  19.7330  0.00  0.00     0.000 OA
ATOM     18   O  A00 X   1      13.882  14.922  21.6960  0.00  0.00     0.000 OA
ENDBRANCH 5 16
BRANCH 1 19
ATOM     19  O4  A00 X   2      17.567  14.160  20.2510  0.00  0.00     0.000 O
BRANCH 19 23
ATOM     20  C1  A00 X   2      21.053  14.573  17.7920  0.00  0.00     0.000 C
ATOM     21  C2  A00 X   2      19.926  13.641  17.2840  0.00  0.00     0.000 C
ATOM     22  C3  A00 X   2      18.602  13.926  18.0240  0.00  0.00     0.000 C
ATOM     23  C4  A00 X   2      18.805  13.842  19.5530  0.00  0.00     0.000 C
ATOM     24  C5  A00 X   2      19.966  14.802  19.9310  0.00  0.00     0.000 C
ATOM     25  O5  A00 X   2      21.165  14.384  19.2280  0.00  0.00     0.000 O
ATOM     26   O  A00 X   2      17.574  13.087  17.4700  0.00  0.00     0.000 O
ATOM     28  HD  A00 X   2      18.052  12.368  17.5430  0.00  0.00     0.000 HD
BRANCH 21 30
ATOM     28   N  A00 X   2      19.580  13.795  15.8670  0.00  0.00     0.000 N
ATOM     30  HD  A00 X   2      20.088  13.096  15.9270  0.00  0.00     0.000 HD
ATOM     30   O  A00 X   2      20.072  11.788  14.7770  0.00  0.00     0.000 OA
ATOM     31   S  A00 X   2      20.520  13.135  14.7810  0.00  0.00     0.000 S
ATOM     32   O  A00 X   2      20.230  13.872  13.5900  0.00  0.00     0.000 OA
ATOM     33   O  A00 X   2      21.872  13.368  15.1940  0.00  0.00     0.000 OA
ENDBRANCH 21 30
BRANCH 24 34
ATOM     34   C  A00 X   2      20.220  15.079  21.4320  0.00  0.00     0.000 C
ATOM     35   O  A00 X   2      22.395  17.718  22.6810  0.00  0.00     0.000 OA
ATOM     36   O  A00 X   2      21.372  15.925  21.6200  0.00  0.00     0.000 O
ATOM     37   O  A00 X   2      20.578  18.087  21.2140  0.00  0.00     0.000 OA
ATOM     38   S  A00 X   2      21.082  17.310  22.3050  0.00  0.00     0.000 S
ATOM     39   O  A00 X   2      20.193  17.044  23.3960  0.00  0.00     0.000 OA
ENDBRANCH 24 34
BRANCH 20 40
ATOM     40  O4  A00 X   3      20.605  15.908  17.5180  0.00  0.00     0.000 O
BRANCH 40 44
ATOM     41  C1  A00 X   3      19.936  19.394  16.7910  0.00  0.00     0.000 C
ATOM     42  C2  A00 X   3      19.985  18.268  15.7350  0.00  0.00     0.000 C
ATOM     43  C3  A00 X   3      21.287  17.437  15.8690  0.00  0.00     0.000 C
ATOM     44  C4  A00 X   3      21.582  16.945  17.2800  0.00  0.00     0.000 C
ATOM     45  C5  A00 X   3      21.519  18.133  18.2820  0.00  0.00     0.000 C
ATOM     46  O5  A00 X   3      20.280  18.895  18.1130  0.00  0.00     0.000 O
ATOM     47   O  A00 X   3      21.481  16.421  14.8870  0.00  0.00     0.000 O
ATOM     49  HD  A00 X   3      21.787  15.980  15.5670  0.00  0.00     0.000 HD
BRANCH 42 49
ATOM     49   O  A00 X   3      18.812  17.449  15.9360  0.00  0.00     0.000 O
ATOM     50   O  A00 X   3      17.769  15.611  14.8110  0.00  0.00     0.000 OA
ATOM     51   O  A00 X   3      18.637  17.394  13.5230  0.00  0.00     0.000 OA
ATOM     52   O  A00 X   3      16.745  17.800  14.8790  0.00  0.00     0.000 OA
ATOM     53   S  A00 X   3      17.930  17.029  14.7250  0.00  0.00     0.000 S
ENDBRANCH 42 49
BRANCH 45 54
ATOM     54   C  A00 X   3      22.778  19.005  18.2070  0.00  0.00     0.000 C
ATOM     55   O  A00 X   3      23.562  18.883  17.2880  0.00  0.00     0.000 OA
ATOM     56   O  A00 X   3      23.015  19.836  19.0700  0.00  0.00     0.000 OA
ENDBRANCH 45 54
BRANCH 41 57
ATOM     57  O4  A00 X   4      20.706  20.545  16.3800  0.00  0.00     0.000 O
BRANCH 57 61
ATOM     58  C1  A00 X   4      20.370  24.766  17.2250  0.00  0.00     0.000 C
ATOM     59  C2  A00 X   4      20.663  23.796  18.3970  0.00  0.00     0.000 C
ATOM     60  C3  A00 X   4      21.114  22.395  17.9370  0.00  0.00     0.000 C
ATOM     61  C4  A00 X   4      20.191  21.829  16.8360  0.00  0.00     0.000 C
ATOM     62  C5  A00 X   4      20.212  22.857  15.6780  0.00  0.00     0.000 C
ATOM     63  O5  A00 X   4      19.660  24.114  16.1470  0.00  0.00     0.000 O
BRANCH 59 66
ATOM     64   N  A00 X   4      19.667  23.429  19.4190  0.00  0.00     0.000 N
ATOM     66  HD  A00 X   4      18.847  23.329  19.1610  0.00  0.00     0.000 HD
ATOM     66   O  A00 X   4      19.923  25.647  20.3210  0.00  0.00     0.000 OA
ATOM     67   S  A00 X   4      19.571  24.326  20.7400  0.00  0.00     0.000 S
ATOM     68   O  A00 X   4      18.193  24.134  21.0830  0.00  0.00     0.000 OA
ATOM     69   O  A00 X   4      20.492  23.626  21.5890  0.00  0.00     0.000 OA
ENDBRANCH 59 66
BRANCH 62 70
ATOM     70   C  A00 X   4      19.425  22.412  14.4230  0.00  0.00     0.000 C
ATOM     71   O  A00 X   4      15.841  22.187  13.9630  0.00  0.00     0.000 OA
ATOM     72   O  A00 X   4      17.548  20.634  13.4960  0.00  0.00     0.000 OA
ATOM     73   O  A00 X   4      18.032  22.713  14.6050  0.00  0.00     0.000 O
ATOM     74   O  A00 X   4      16.844  20.992  15.8020  0.00  0.00     0.000 OA
ATOM     75   S  A00 X   4      17.006  21.533  14.4900  0.00  0.00     0.000 S
ENDBRANCH 62 70
ENDBRANCH 57 61
ENDBRANCH 41 57
ENDBRANCH 40 44
ENDBRANCH 20 40
ENDBRANCH 19 23
ENDBRANCH 1 19
TORSDOF 14
ENDMDL
MODEL 17
REMARK VINA RESULT:      -5.0      8.512     12.739
ROOT
ATOM      1  C1  A00 X   1      16.563  12.352  26.5250  0.00  0.00     0.000 C
ATOM      2  C2  A00 X   1      16.814  13.844  26.1800  0.00  0.00     0.000 C
ATOM      3  C3  A00 X   1      18.125  14.155  25.3850  0.00  0.00     0.000 C
ATOM      4  C4  A00 X   1      19.177  13.017  25.3610  0.00  0.00     0.000 C
ATOM      5  C5  A00 X   1      19.003  12.044  26.5270  0.00  0.00     0.000 C
ATOM      6  O5  A00 X   1      17.693  11.466  26.3300  0.00  0.00     0.000 O
ATOM      7   O  A00 X   1      18.763  15.284  25.9790  0.00  0.00     0.000 O
ATOM      9  HD  A00 X   1      19.384  14.713  25.7840  0.00  0.00     0.000 HD
ATOM      9   O  A00 X   1      19.143  12.301  24.1260  0.00  0.00     0.000 O
ATOM     11  HD  A00 X   1      19.765  11.730  23.9310  0.00  0.00     0.000 HD
ENDROOT
BRANCH 2 11
ATOM     11   O  A00 X   1      15.683  14.315  25.4220  0.00  0.00     0.000 O
ATOM     12   O  A00 X   1      14.159  12.804  24.3440  0.00  0.00     0.000 OA
ATOM     13   O  A00 X   1      16.478  12.876  23.6150  0.00  0.00     0.000 OA
ATOM     14   O  A00 X   1      15.032  14.722  23.2170  0.00  0.00     0.000 OA
ATOM     15   S  A00 X   1      15.326  13.604  24.0710  0.00  0.00     0.000 S
ENDBRANCH 2 11
BRANCH 5 16
ATOM     16   C  A00 X   1      19.199  12.657  27.9170  0.00  0.00     0.000 C
ATOM     17   O  A00 X   1      18.784  12.052  28.8840  0.00  0.00     0.000 OA
ATOM     18   O  A00 X   1      19.760  13.722  28.0870  0.00  0.00     0.000 OA
ENDBRANCH 5 16
BRANCH 1 19
ATOM     19  O4  A00 X   2      15.970  12.170  27.8340  0.00  0.00     0.000 O
BRANCH 19 23
ATOM     20  C1  A00 X   2      13.389   9.123  29.3890  0.00  0.00     0.000 C
ATOM     21  C2  A00 X   2      14.858   8.735  29.0980  0.00  0.00     0.000 C
ATOM     22  C3  A00 X   2      15.744   9.991  28.9690  0.00  0.00     0.000 C
ATOM     23  C4  A00 X   2      15.160  10.962  27.9180  0.00  0.00     0.000 C
ATOM     24  C5  A00 X   2      13.687  11.258  28.3110  0.00  0.00     0.000 C
ATOM     25  O5  A00 X   2      12.948  10.008  28.3250  0.00  0.00     0.000 O
ATOM     26   O  A00 X   2      17.106   9.577  28.7680  0.00  0.00     0.000 O
ATOM     28  HD  A00 X   2      16.899   9.034  28.1250  0.00  0.00     0.000 HD
BRANCH 21 30
ATOM     28   N  A00 X   2      14.384   7.400  28.7180  0.00  0.00     0.000 N
ATOM     30  HD  A00 X   2      15.241   7.339  28.8320  0.00  0.00     0.000 HD
ATOM     30   O  A00 X   2      16.057   5.857  29.2450  0.00  0.00     0.000 OA
ATOM     31   S  A00 X   2      15.416   6.379  28.0910  0.00  0.00     0.000 S
ATOM     32   O  A00 X   2      14.587   5.449  27.3880  0.00  0.00     0.000 OA
ATOM     33   O  A00 X   2      16.232   7.113  27.1710  0.00  0.00     0.000 OA
ENDBRANCH 21 30
BRANCH 24 34
ATOM     34   C  A00 X   2      12.944  12.382  27.5510  0.00  0.00     0.000 C
ATOM     35   O  A00 X   2       9.398  12.292  26.7290  0.00  0.00     0.000 OA
ATOM     36   O  A00 X   2      11.666  11.927  27.0630  0.00  0.00     0.000 O
ATOM     37   O  A00 X   2      10.253  12.061  28.9220  0.00  0.00     0.000 OA
ATOM     38   S  A00 X   2      10.418  12.686  27.6450  0.00  0.00     0.000 S
ATOM     39   O  A00 X   2      10.746  14.079  27.6260  0.00  0.00     0.000 OA
ENDBRANCH 24 34
BRANCH 20 40
ATOM     40  O4  A00 X   3      13.417   9.842  30.6310  0.00  0.00     0.000 O
BRANCH 40 44
ATOM     41  C1  A00 X   3      13.165  11.166  33.9940  0.00  0.00     0.000 C
ATOM     42  C2  A00 X   3      13.661   9.747  33.6410  0.00  0.00     0.000 C
ATOM     43  C3  A00 X   3      12.661   9.027  32.7000  0.00  0.00     0.000 C
ATOM     44  C4  A00 X   3      12.247   9.836  31.4770  0.00  0.00     0.000 C
ATOM     45  C5  A00 X   3      11.757  11.245  31.9130  0.00  0.00     0.000 C
ATOM     46  O5  A00 X   3      12.726  11.883  32.8070  0.00  0.00     0.000 O
ATOM     47   O  A00 X   3      12.974   7.673  32.3770  0.00  0.00     0.000 O
ATOM     49  HD  A00 X   3      12.682   7.910  31.5970  0.00  0.00     0.000 HD
BRANCH 42 49
ATOM     49   O  A00 X   3      14.957   9.893  33.0210  0.00  0.00     0.000 O
ATOM     50   O  A00 X   3      16.606   8.432  32.0850  0.00  0.00     0.000 OA
ATOM     51   O  A00 X   3      15.526   7.798  34.0900  0.00  0.00     0.000 OA
ATOM     52   O  A00 X   3      17.006   9.640  34.1410  0.00  0.00     0.000 OA
ATOM     53   S  A00 X   3      16.101   8.888  33.3420  0.00  0.00     0.000 S
ENDBRANCH 42 49
BRANCH 45 54
ATOM     54   C  A00 X   3      10.339  11.198  32.4950  0.00  0.00     0.000 C
ATOM     55   O  A00 X   3       9.734  12.223  32.7360  0.00  0.00     0.000 OA
ATOM     56   O  A00 X   3       9.794  10.130  32.7270  0.00  0.00     0.000 OA
ENDBRANCH 45 54
BRANCH 41 57
ATOM     57  O4  A00 X   4      12.189  11.140  35.0600  0.00  0.00     0.000 O
BRANCH 57 61
ATOM     58  C1  A00 X   4      11.200  13.922  38.2100  0.00  0.00     0.000 C
ATOM     59  C2  A00 X   4      10.541  14.110  36.8210  0.00  0.00     0.000 C
ATOM     60  C3  A00 X   4      10.680  12.879  35.9020  0.00  0.00     0.000 C
ATOM     61  C4  A00 X   4      12.129  12.348  35.8710  0.00  0.00     0.000 C
ATOM     62  C5  A00 X   4      12.507  12.027  37.3390  0.00  0.00     0.000 C
ATOM     63  O5  A00 X   4      12.477  13.250  38.1170  0.00  0.00     0.000 O
BRANCH 59 66
ATOM     64   N  A00 X   4       9.497  14.754  36.0040  0.00  0.00     0.000 N
ATOM     66  HD  A00 X   4       9.694  14.948  35.1830  0.00  0.00     0.000 HD
ATOM     66   O  A00 X   4       9.798  16.726  37.3520  0.00  0.00     0.000 OA
ATOM     67   S  A00 X   4       8.792  16.071  36.5760  0.00  0.00     0.000 S
ATOM     68   O  A00 X   4       8.435  16.726  35.3510  0.00  0.00     0.000 OA
ATOM     69   O  A00 X   4       7.684  15.483  37.2730  0.00  0.00     0.000 OA
ENDBRANCH 59 66
BRANCH 62 70
ATOM     70   C  A00 X   4      13.900  11.373  37.5040  0.00  0.00     0.000 C
ATOM     71   O  A00 X   4      16.817  12.667  39.2150  0.00  0.00     0.000 OA
ATOM     72   O  A00 X   4      16.587  11.736  37.0650  0.00  0.00     0.000 OA
ATOM     73   O  A00 X   4      14.667  12.124  38.4600  0.00  0.00     0.000 O
ATOM     74   O  A00 X   4      15.809  14.007  37.4820  0.00  0.00     0.000 OA
ATOM     75   S  A00 X   4      16.051  12.699  38.0000  0.00  0.00     0.000 S
ENDBRANCH 62 70
ENDBRANCH 57 61
ENDBRANCH 41 57
ENDBRANCH 40 44
ENDBRANCH 20 40
ENDBRANCH 19 23
ENDBRANCH 1 19
TORSDOF 14
ENDMDL
MODEL 18
REMARK VINA RESULT:      -4.9     16.919     21.399
ROOT
ATOM      1  C1  A00 X   1      16.305  22.921  35.4150  0.00  0.00     0.000 C
ATOM      2  C2  A00 X   1      16.103  21.395  35.2200  0.00  0.00     0.000 C
ATOM      3  C3  A00 X   1      14.865  20.768  35.9430  0.00  0.00     0.000 C
ATOM      4  C4  A00 X   1      14.217  21.647  37.0430  0.00  0.00     0.000 C
ATOM      5  C5  A00 X   1      15.187  22.692  37.5940  0.00  0.00     0.000 C
ATOM      6  O5  A00 X   1      15.507  23.530  36.4610  0.00  0.00     0.000 O
ATOM      7   O  A00 X   1      15.272  19.558  36.5800  0.00  0.00     0.000 O
ATOM      9  HD  A00 X   1      14.743  19.970  37.1280  0.00  0.00     0.000 HD
ATOM      9   O  A00 X   1      13.035  22.291  36.5660  0.00  0.00     0.000 O
ATOM     11  HD  A00 X   1      12.506  22.703  37.1150  0.00  0.00     0.000 HD
ENDROOT
BRANCH 2 11
ATOM     11   O  A00 X   1      15.997  21.143  33.8060  0.00  0.00     0.000 O
ATOM     12   O  A00 X   1      15.331  19.004  32.9420  0.00  0.00     0.000 OA
ATOM     13   O  A00 X   1      17.408  19.188  34.1940  0.00  0.00     0.000 OA
ATOM     14   O  A00 X   1      17.202  20.191  32.0470  0.00  0.00     0.000 OA
ATOM     15   S  A00 X   1      16.511  19.776  33.2380  0.00  0.00     0.000 S
ENDBRANCH 2 11
BRANCH 5 16
ATOM     16   C  A00 X   1      16.421  22.120  38.3010  0.00  0.00     0.000 C
ATOM     17   O  A00 X   1      16.396  20.964  38.6690  0.00  0.00     0.000 OA
ATOM     18   O  A00 X   1      17.422  22.779  38.4990  0.00  0.00     0.000 OA
ENDBRANCH 5 16
BRANCH 1 19
ATOM     19  O4  A00 X   2      17.700  23.292  35.5320  0.00  0.00     0.000 O
BRANCH 19 23
ATOM     20  C1  A00 X   2      17.266  26.897  33.2570  0.00  0.00     0.000 C
ATOM     21  C2  A00 X   2      17.751  25.633  32.5070  0.00  0.00     0.000 C
ATOM     22  C3  A00 X   2      17.446  24.359  33.3230  0.00  0.00     0.000 C
ATOM     23  C4  A00 X   2      18.032  24.473  34.7480  0.00  0.00     0.000 C
ATOM     24  C5  A00 X   2      17.488  25.783  35.3820  0.00  0.00     0.000 C
ATOM     25  O5  A00 X   2      17.903  26.906  34.5620  0.00  0.00     0.000 O
ATOM     26   O  A00 X   2      17.851  23.213  32.5560  0.00  0.00     0.000 O
ATOM     28  HD  A00 X   2      18.638  23.536  32.3950  0.00  0.00     0.000 HD
BRANCH 21 30
ATOM     28   N  A00 X   2      18.580  26.501  31.6650  0.00  0.00     0.000 N
ATOM     30  HD  A00 X   2      18.534  25.733  31.2660  0.00  0.00     0.000 HD
ATOM     30   O  A00 X   2      18.739  25.524  29.5490  0.00  0.00     0.000 OA
ATOM     31   S  A00 X   2      19.586  25.831  30.6460  0.00  0.00     0.000 S
ATOM     32   O  A00 X   2      20.549  26.858  30.3960  0.00  0.00     0.000 OA
ATOM     33   O  A00 X   2      20.201  24.727  31.3210  0.00  0.00     0.000 OA
ENDBRANCH 21 30
BRANCH 24 34
ATOM     34   C  A00 X   2      17.740  26.018  36.8900  0.00  0.00     0.000 C
ATOM     35   O  A00 X   2      18.956  29.151  38.2910  0.00  0.00     0.000 OA
ATOM     36   O  A00 X   2      18.539  27.198  37.1080  0.00  0.00     0.000 O
ATOM     37   O  A00 X   2      17.020  28.969  36.9450  0.00  0.00     0.000 OA
ATOM     38   S  A00 X   2      17.840  28.339  37.9340  0.00  0.00     0.000 S
ATOM     39   O  A00 X   2      17.180  27.698  39.0320  0.00  0.00     0.000 OA
ENDBRANCH 24 34
BRANCH 20 40
ATOM     40  O4  A00 X   3      15.849  26.734  33.4160  0.00  0.00     0.000 O
BRANCH 40 44
ATOM     41  C1  A00 X   3      12.331  27.576  33.2110  0.00  0.00     0.000 C
ATOM     42  C2  A00 X   3      13.451  28.271  32.4070  0.00  0.00     0.000 C
ATOM     43  C3  A00 X   3      14.604  28.725  33.3390  0.00  0.00     0.000 C
ATOM     44  C4  A00 X   3      15.126  27.642  34.2750  0.00  0.00     0.000 C
ATOM     45  C5  A00 X   3      13.944  26.995  35.0500  0.00  0.00     0.000 C
ATOM     46  O5  A00 X   3      12.875  26.592  34.1340  0.00  0.00     0.000 O
ATOM     47   O  A00 X   3      15.657  29.458  32.7150  0.00  0.00     0.000 O
ATOM     49  HD  A00 X   3      16.149  28.990  33.2520  0.00  0.00     0.000 HD
BRANCH 42 49
ATOM     49   O  A00 X   3      13.912  27.324  31.4180  0.00  0.00     0.000 O
ATOM     50   O  A00 X   3      15.511  27.321  29.6370  0.00  0.00     0.000 OA
ATOM     51   O  A00 X   3      14.147  29.228  29.9420  0.00  0.00     0.000 OA
ATOM     52   O  A00 X   3      13.133  27.224  29.2060  0.00  0.00     0.000 OA
ATOM     53   S  A00 X   3      14.199  27.787  29.9600  0.00  0.00     0.000 S
ENDBRANCH 42 49
BRANCH 45 54
ATOM     54   C  A00 X   3      13.453  27.895  36.1910  0.00  0.00     0.000 C
ATOM     55   O  A00 X   3      13.798  29.057  36.2540  0.00  0.00     0.000 OA
ATOM     56   O  A00 X   3      12.708  27.459  37.0550  0.00  0.00     0.000 OA
ENDBRANCH 45 54
BRANCH 41 57
ATOM     57  O4  A00 X   4      11.445  28.535  33.8310  0.00  0.00     0.000 O
BRANCH 57 61
ATOM     58  C1  A00 X   4       7.150  28.722  34.2210  0.00  0.00     0.000 C
ATOM     59  C2  A00 X   4       7.965  28.019  35.3350  0.00  0.00     0.000 C
ATOM     60  C3  A00 X   4       9.476  28.324  35.2760  0.00  0.00     0.000 C
ATOM     61  C4  A00 X   4      10.039  28.156  33.8490  0.00  0.00     0.000 C
ATOM     62  C5  A00 X   4       9.217  29.104  32.9410  0.00  0.00     0.000 C
ATOM     63  O5  A00 X   4       7.829  28.684  32.9450  0.00  0.00     0.000 O
BRANCH 59 66
ATOM     64   N  A00 X   4       7.678  26.635  34.9170  0.00  0.00     0.000 N
ATOM     66  HD  A00 X   4       7.413  26.509  34.1020  0.00  0.00     0.000 HD
ATOM     66   O  A00 X   4       5.745  26.709  36.3510  0.00  0.00     0.000 OA
ATOM     67   S  A00 X   4       6.674  25.767  35.8100  0.00  0.00     0.000 S
ATOM     68   O  A00 X   4       6.144  24.880  34.8160  0.00  0.00     0.000 OA
ATOM     69   O  A00 X   4       7.605  25.151  36.7130  0.00  0.00     0.000 OA
ENDBRANCH 59 66
BRANCH 62 70
ATOM     70   C  A00 X   4       9.710  29.160  31.4750  0.00  0.00     0.000 C
ATOM     71   O  A00 X   4      11.753  31.682  29.8710  0.00  0.00     0.000 OA
ATOM     72   O  A00 X   4       9.724  30.695  29.1970  0.00  0.00     0.000 OA
ATOM     73   O  A00 X   4      10.691  30.201  31.3440  0.00  0.00     0.000 O
ATOM     74   O  A00 X   4       9.718  32.372  30.9650  0.00  0.00     0.000 OA
ATOM     75   S  A00 X   4      10.425  31.332  30.2900  0.00  0.00     0.000 S
ENDBRANCH 62 70
ENDBRANCH 57 61
ENDBRANCH 41 57
ENDBRANCH 40 44
ENDBRANCH 20 40
ENDBRANCH 19 23
ENDBRANCH 1 19
TORSDOF 14
ENDMDL
MODEL 19
REMARK VINA RESULT:      -4.7     16.433     21.309
ROOT
ATOM      1  C1  A00 X   1      16.125  23.432  35.3270  0.00  0.00     0.000 C
ATOM      2  C2  A00 X   1      15.958  21.892  35.2280  0.00  0.00     0.000 C
ATOM      3  C3  A00 X   1      14.699  21.290  35.9360  0.00  0.00     0.000 C
ATOM      4  C4  A00 X   1      13.987  22.229  36.9440  0.00  0.00     0.000 C
ATOM      5  C5  A00 X   1      14.914  23.327  37.4650  0.00  0.00     0.000 C
ATOM      6  O5  A00 X   1      15.270  24.093  36.2920  0.00  0.00     0.000 O
ATOM      7   O  A00 X   1      15.097  20.135  36.6710  0.00  0.00     0.000 O
ATOM      9  HD  A00 X   1      14.537  20.572  37.1660  0.00  0.00     0.000 HD
ATOM      9   O  A00 X   1      12.817  22.815  36.3730  0.00  0.00     0.000 O
ATOM     11  HD  A00 X   1      12.257  23.252  36.8680  0.00  0.00     0.000 HD
ENDROOT
BRANCH 2 11
ATOM     11   O  A00 X   1      15.920  21.544  33.8300  0.00  0.00     0.000 O
ATOM     12   O  A00 X   1      15.312  19.344  33.0840  0.00  0.00     0.000 OA
ATOM     13   O  A00 X   1      17.327  19.635  34.4150  0.00  0.00     0.000 OA
ATOM     14   O  A00 X   1      17.214  20.489  32.1980  0.00  0.00     0.000 OA
ATOM     15   S  A00 X   1      16.471  20.147  33.3810  0.00  0.00     0.000 S
ENDBRANCH 2 11
BRANCH 5 16
ATOM     16   C  A00 X   1      16.123  22.829  38.2630  0.00  0.00     0.000 C
ATOM     17   O  A00 X   1      17.001  23.620  38.5420  0.00  0.00     0.000 OA
ATOM     18   O  A00 X   1      16.231  21.676  38.6310  0.00  0.00     0.000 OA
ENDBRANCH 5 16
BRANCH 1 19
ATOM     19  O4  A00 X   2      17.507  23.837  35.4800  0.00  0.00     0.000 O
BRANCH 19 23
ATOM     20  C1  A00 X   2      17.108  27.313  33.0050  0.00  0.00     0.000 C
ATOM     21  C2  A00 X   2      17.612  26.013  32.3340  0.00  0.00     0.000 C
ATOM     22  C3  A00 X   2      17.294  24.783  33.2110  0.00  0.00     0.000 C
ATOM     23  C4  A00 X   2      17.851  24.976  34.6400  0.00  0.00     0.000 C
ATOM     24  C5  A00 X   2      17.290  26.316  35.1910  0.00  0.00     0.000 C
ATOM     25  O5  A00 X   2      17.718  27.395  34.3210  0.00  0.00     0.000 O
ATOM     26   O  A00 X   2      17.719  23.599  32.5160  0.00  0.00     0.000 O
ATOM     28  HD  A00 X   2      18.508  23.916  32.3540  0.00  0.00     0.000 HD
BRANCH 21 30
ATOM     28   N  A00 X   2      18.457  26.836  31.4640  0.00  0.00     0.000 N
ATOM     30  HD  A00 X   2      18.420  26.049  31.1060  0.00  0.00     0.000 HD
ATOM     30   O  A00 X   2      18.661  25.748  29.4070  0.00  0.00     0.000 OA
ATOM     31   S  A00 X   2      19.485  26.116  30.5030  0.00  0.00     0.000 S
ATOM     32   O  A00 X   2      20.450  27.132  30.2180  0.00  0.00     0.000 OA
ATOM     33   O  A00 X   2      20.088  25.052  31.2490  0.00  0.00     0.000 OA
ENDBRANCH 21 30
BRANCH 24 34
ATOM     34   C  A00 X   2      17.511  26.633  36.6890  0.00  0.00     0.000 C
ATOM     35   O  A00 X   2      18.585  29.875  37.9510  0.00  0.00     0.000 OA
ATOM     36   O  A00 X   2      18.261  27.852  36.8600  0.00  0.00     0.000 O
ATOM     37   O  A00 X   2      16.677  29.553  36.5910  0.00  0.00     0.000 OA
ATOM     38   S  A00 X   2      17.506  29.003  37.6200  0.00  0.00     0.000 S
ATOM     39   O  A00 X   2      16.855  28.391  38.7390  0.00  0.00     0.000 OA
ENDBRANCH 24 34
BRANCH 20 40
ATOM     40  O4  A00 X   3      15.689  27.153  33.1440  0.00  0.00     0.000 O
BRANCH 40 44
ATOM     41  C1  A00 X   3      12.122  27.769  32.9930  0.00  0.00     0.000 C
ATOM     42  C2  A00 X   3      13.169  28.428  32.0690  0.00  0.00     0.000 C
ATOM     43  C3  A00 X   3      14.325  29.050  32.8940  0.00  0.00     0.000 C
ATOM     44  C4  A00 X   3      14.943  28.113  33.9240  0.00  0.00     0.000 C
ATOM     45  C5  A00 X   3      13.830  27.494  34.8160  0.00  0.00     0.000 C
ATOM     46  O5  A00 X   3      12.756  26.930  33.9970  0.00  0.00     0.000 O
ATOM     47   O  A00 X   3      15.309  29.764  32.1490  0.00  0.00     0.000 O
ATOM     49  HD  A00 X   3      15.847  29.389  32.7140  0.00  0.00     0.000 HD
BRANCH 42 49
ATOM     49   O  A00 X   3      13.651  27.401  31.1750  0.00  0.00     0.000 O
ATOM     50   O  A00 X   3      15.187  27.280  29.3430  0.00  0.00     0.000 OA
ATOM     51   O  A00 X   3      13.726  29.133  29.4870  0.00  0.00     0.000 OA
ATOM     52   O  A00 X   3      12.806  27.007  29.0200  0.00  0.00     0.000 OA
ATOM     53   S  A00 X   3      13.862  27.709  29.6640  0.00  0.00     0.000 S
ENDBRANCH 42 49
BRANCH 45 54
ATOM     54   C  A00 X   3      13.326  28.491  35.8670  0.00  0.00     0.000 C
ATOM     55   O  A00 X   3      13.429  29.687  35.6850  0.00  0.00     0.000 OA
ATOM     56   O  A00 X   3      12.815  28.100  36.9050  0.00  0.00     0.000 OA
ENDBRANCH 45 54
BRANCH 41 57
ATOM     57  O4  A00 X   4      11.202  28.742  33.5370  0.00  0.00     0.000 O
BRANCH 57 61
ATOM     58  C1  A00 X   4       7.382  28.334  35.5060  0.00  0.00     0.000 C
ATOM     59  C2  A00 X   4       8.653  28.484  36.3780  0.00  0.00     0.000 C
ATOM     60  C3  A00 X   4       9.884  28.977  35.5910  0.00  0.00     0.000 C
ATOM     61  C4  A00 X   4      10.081  28.185  34.2800  0.00  0.00     0.000 C
ATOM     62  C5  A00 X   4       8.770  28.346  33.4730  0.00  0.00     0.000 C
ATOM     63  O5  A00 X   4       7.676  27.750  34.2160  0.00  0.00     0.000 O
BRANCH 59 66
ATOM     64   N  A00 X   4       8.217  27.078  36.4410  0.00  0.00     0.000 N
ATOM     66  HD  A00 X   4       7.550  26.843  35.9410  0.00  0.00     0.000 HD
ATOM     66   O  A00 X   4       7.393  27.536  38.6570  0.00  0.00     0.000 OA
ATOM     67   S  A00 X   4       7.892  26.448  37.8750  0.00  0.00     0.000 S
ATOM     68   O  A00 X   4       6.924  25.456  37.5090  0.00  0.00     0.000 OA
ATOM     69   O  A00 X   4       9.181  25.915  38.2150  0.00  0.00     0.000 OA
ENDBRANCH 59 66
BRANCH 62 70
ATOM     70   C  A00 X   4       8.812  27.707  32.0640  0.00  0.00     0.000 C
ATOM     71   O  A00 X   4       6.077  26.376  30.1010  0.00  0.00     0.000 OA
ATOM     72   O  A00 X   4       8.177  25.452  30.6310  0.00  0.00     0.000 OA
ATOM     73   O  A00 X   4       7.471  27.549  31.5730  0.00  0.00     0.000 O
ATOM     74   O  A00 X   4       6.426  25.512  32.3250  0.00  0.00     0.000 OA
ATOM     75   S  A00 X   4       7.004  26.109  31.1640  0.00  0.00     0.000 S
ENDBRANCH 62 70
ENDBRANCH 57 61
ENDBRANCH 41 57
ENDBRANCH 40 44
ENDBRANCH 20 40
ENDBRANCH 19 23
ENDBRANCH 1 19
TORSDOF 14
ENDMDL
MODEL 20
REMARK VINA RESULT:      -4.4     19.803     23.112
ROOT
ATOM      1  C1  A00 X   1      19.438  33.349  22.2950  0.00  0.00     0.000 C
ATOM      2  C2  A00 X   1      18.785  34.511  21.4990  0.00  0.00     0.000 C
ATOM      3  C3  A00 X   1      19.768  35.467  20.7480  0.00  0.00     0.000 C
ATOM      4  C4  A00 X   1      21.254  35.370  21.1770  0.00  0.00     0.000 C
ATOM      5  C5  A00 X   1      21.413  34.787  22.5810  0.00  0.00     0.000 C
ATOM      6  O5  A00 X   1      20.871  33.450  22.4860  0.00  0.00     0.000 O
ATOM      7   O  A00 X   1      19.365  36.815  20.9840  0.00  0.00     0.000 O
ATOM      9  HD  A00 X   1      20.230  36.794  21.0340  0.00  0.00     0.000 HD
ATOM      9   O  A00 X   1      22.017  34.602  20.2460  0.00  0.00     0.000 O
ATOM     11  HD  A00 X   1      22.881  34.581  20.2960  0.00  0.00     0.000 HD
ENDROOT
BRANCH 2 11
ATOM     11   O  A00 X   1      17.873  33.931  20.5460  0.00  0.00     0.000 O
ATOM     12   O  A00 X   1      16.390  35.280  19.2240  0.00  0.00     0.000 OA
ATOM     13   O  A00 X   1      16.124  35.237  21.6420  0.00  0.00     0.000 OA
ATOM     14   O  A00 X   1      15.633  33.307  20.3410  0.00  0.00     0.000 OA
ATOM     15   S  A00 X   1      16.419  34.507  20.4400  0.00  0.00     0.000 S
ENDBRANCH 2 11
BRANCH 5 16
ATOM     16   C  A00 X   1      20.790  35.623  23.7040  0.00  0.00     0.000 C
ATOM     17   O  A00 X   1      20.524  36.786  23.4830  0.00  0.00     0.000 OA
ATOM     18   O  A00 X   1      20.547  35.162  24.8010  0.00  0.00     0.000 OA
ENDBRANCH 5 16
BRANCH 1 19
ATOM     19  O4  A00 X   2      18.757  33.070  23.5420  0.00  0.00     0.000 O
BRANCH 19 23
ATOM     20  C1  A00 X   2      18.327  29.445  25.7880  0.00  0.00     0.000 C
ATOM     21  C2  A00 X   2      19.681  30.188  25.8820  0.00  0.00     0.000 C
ATOM     22  C3  A00 X   2      19.544  31.646  25.3970  0.00  0.00     0.000 C
ATOM     23  C4  A00 X   2      18.933  31.692  23.9780  0.00  0.00     0.000 C
ATOM     24  C5  A00 X   2      17.596  30.901  24.0120  0.00  0.00     0.000 C
ATOM     25  O5  A00 X   2      17.872  29.533  24.4110  0.00  0.00     0.000 O
ATOM     26   O  A00 X   2      20.807  32.311  25.5680  0.00  0.00     0.000 O
ATOM     28  HD  A00 X   2      21.249  31.682  25.1690  0.00  0.00     0.000 HD
BRANCH 21 30
ATOM     28   N  A00 X   2      20.340  28.883  25.9940  0.00  0.00     0.000 N
ATOM     30  HD  A00 X   2      20.918  29.477  26.2420  0.00  0.00     0.000 HD
ATOM     30   O  A00 X   2      22.249  29.141  27.3150  0.00  0.00     0.000 OA
ATOM     31   S  A00 X   2      21.919  28.825  25.9710  0.00  0.00     0.000 S
ATOM     32   O  A00 X   2      22.204  27.479  25.5790  0.00  0.00     0.000 OA
ATOM     33   O  A00 X   2      22.361  29.741  24.9610  0.00  0.00     0.000 OA
ENDBRANCH 21 30
BRANCH 24 34
ATOM     34   C  A00 X   2      16.671  30.988  22.7750  0.00  0.00     0.000 C
ATOM     35   O  A00 X   2      14.988  28.124  21.2820  0.00  0.00     0.000 OA
ATOM     36   O  A00 X   2      16.439  29.684  22.2040  0.00  0.00     0.000 O
ATOM     37   O  A00 X   2      14.776  28.744  23.5540  0.00  0.00     0.000 OA
ATOM     38   S  A00 X   2      14.941  29.206  22.2100  0.00  0.00     0.000 S
ATOM     39   O  A00 X   2      14.156  30.329  21.7940  0.00  0.00     0.000 OA
ENDBRANCH 24 34
BRANCH 20 40
ATOM     40  O4  A00 X   3      17.427  30.171  26.6380  0.00  0.00     0.000 O
BRANCH 40 44
ATOM     41  C1  A00 X   3      14.929  31.082  29.0990  0.00  0.00     0.000 C
ATOM     42  C2  A00 X   3      15.808  29.815  29.1650  0.00  0.00     0.000 C
ATOM     43  C3  A00 X   3      15.753  29.031  27.8280  0.00  0.00     0.000 C
ATOM     44  C4  A00 X   3      16.014  29.875  26.5870  0.00  0.00     0.000 C
ATOM     45  C5  A00 X   3      15.091  31.126  26.5910  0.00  0.00     0.000 C
ATOM     46  O5  A00 X   3      15.167  31.828  27.8730  0.00  0.00     0.000 O
ATOM     47   O  A00 X   3      16.460  27.792  27.8030  0.00  0.00     0.000 O
ATOM     49  HD  A00 X   3      16.661  28.053  27.0010  0.00  0.00     0.000 HD
BRANCH 42 49
ATOM     49   O  A00 X   3      17.153  30.247  29.4680  0.00  0.00     0.000 O
ATOM     50   O  A00 X   3      19.289  29.202  29.7400  0.00  0.00     0.000 OA
ATOM     51   O  A00 X   3      17.381  28.156  30.6650  0.00  0.00     0.000 OA
ATOM     52   O  A00 X   3      18.117  30.195  31.6080  0.00  0.00     0.000 OA
ATOM     53   S  A00 X   3      18.051  29.410  30.4240  0.00  0.00     0.000 S
ENDBRANCH 42 49
BRANCH 45 54
ATOM     54   C  A00 X   3      13.657  30.774  26.1800  0.00  0.00     0.000 C
ATOM     55   O  A00 X   3      13.136  29.748  26.5680  0.00  0.00     0.000 OA
ATOM     56   O  A00 X   3      13.013  31.517  25.4550  0.00  0.00     0.000 OA
ENDBRANCH 45 54
BRANCH 41 57
ATOM     57  O4  A00 X   4      13.537  30.780  29.3410  0.00  0.00     0.000 O
BRANCH 57 61
ATOM     58  C1  A00 X   4      10.200  33.258  30.5090  0.00  0.00     0.000 C
ATOM     59  C2  A00 X   4      11.068  33.703  29.3060  0.00  0.00     0.000 C
ATOM     60  C3  A00 X   4      11.984  32.587  28.7630  0.00  0.00     0.000 C
ATOM     61  C4  A00 X   4      12.754  31.875  29.8960  0.00  0.00     0.000 C
ATOM     62  C5  A00 X   4      11.684  31.327  30.8720  0.00  0.00     0.000 C
ATOM     63  O5  A00 X   4      10.943  32.438  31.4400  0.00  0.00     0.000 O
BRANCH 59 66
ATOM     64   N  A00 X   4      11.331  34.611  28.1750  0.00  0.00     0.000 N
ATOM     66  HD  A00 X   4      12.146  34.879  28.0580  0.00  0.00     0.000 HD
ATOM     66   O  A00 X   4      10.130  36.308  29.3900  0.00  0.00     0.000 OA
ATOM     67   S  A00 X   4      10.443  35.935  28.0460  0.00  0.00     0.000 S
ATOM     68   O  A00 X   4      11.364  36.798  27.3650  0.00  0.00     0.000 OA
ATOM     69   O  A00 X   4       9.376  35.446  27.2200  0.00  0.00     0.000 OA
ENDBRANCH 59 66
BRANCH 62 70
ATOM     70   C  A00 X   4      12.260  30.478  32.0300  0.00  0.00     0.000 C
ATOM     71   O  A00 X   4      11.313  27.144  33.0790  0.00  0.00     0.000 OA
ATOM     72   O  A00 X   4      11.603  29.120  34.3260  0.00  0.00     0.000 OA
ATOM     73   O  A00 X   4      11.764  29.134  31.9260  0.00  0.00     0.000 O
ATOM     74   O  A00 X   4       9.606  28.843  32.9580  0.00  0.00     0.000 OA
ATOM     75   S  A00 X   4      10.987  28.541  33.1530  0.00  0.00     0.000 S
ENDBRANCH 62 70
ENDBRANCH 57 61
ENDBRANCH 41 57
ENDBRANCH 40 44
ENDBRANCH 20 40
ENDBRANCH 19 23
ENDBRANCH 1 19
TORSDOF 14
ENDMDL
MODEL 21
REMARK VINA RESULT:      -4.3     22.440     25.814
ROOT
ATOM      1  C1  A00 X   1      19.455  35.117  22.9330  0.00  0.00     0.000 C
ATOM      2  C2  A00 X   1      20.429  36.247  23.3590  0.00  0.00     0.000 C
ATOM      3  C3  A00 X   1      21.915  35.821  23.5990  0.00  0.00     0.000 C
ATOM      4  C4  A00 X   1      22.158  34.296  23.7430  0.00  0.00     0.000 C
ATOM      5  C5  A00 X   1      20.893  33.547  24.1640  0.00  0.00     0.000 C
ATOM      6  O5  A00 X   1      19.959  33.766  23.0830  0.00  0.00     0.000 O
ATOM      7   O  A00 X   1      22.373  36.419  24.8090  0.00  0.00     0.000 O
ATOM      9  HD  A00 X   1      22.676  35.608  24.7950  0.00  0.00     0.000 HD
ATOM      9   O  A00 X   1      22.671  33.734  22.5360  0.00  0.00     0.000 O
ATOM     11  HD  A00 X   1      22.974  32.922  22.5220  0.00  0.00     0.000 HD
ENDROOT
BRANCH 2 11
ATOM     11   O  A00 X   1      20.392  37.266  22.3410  0.00  0.00     0.000 O
ATOM     12   O  A00 X   1      21.534  39.362  22.5980  0.00  0.00     0.000 OA
ATOM     13   O  A00 X   1      19.711  38.806  24.1100  0.00  0.00     0.000 OA
ATOM     14   O  A00 X   1      19.279  39.249  21.8130  0.00  0.00     0.000 OA
ATOM     15   S  A00 X   1      20.234  38.764  22.7720  0.00  0.00     0.000 S
ENDBRANCH 2 11
BRANCH 5 16
ATOM     16   C  A00 X   1      20.340  33.934  25.5400  0.00  0.00     0.000 C
ATOM     17   O  A00 X   1      21.063  34.532  26.3100  0.00  0.00     0.000 OA
ATOM     18   O  A00 X   1      19.206  33.669  25.8840  0.00  0.00     0.000 OA
ENDBRANCH 5 16
BRANCH 1 19
ATOM     19  O4  A00 X   2      18.139  35.258  23.5210  0.00  0.00     0.000 O
BRANCH 19 23
ATOM     20  C1  A00 X   2      16.082  33.700  20.1000  0.00  0.00     0.000 C
ATOM     21  C2  A00 X   2      16.228  35.238  20.2070  0.00  0.00     0.000 C
ATOM     22  C3  A00 X   2      17.331  35.615  21.2180  0.00  0.00     0.000 C
ATOM     23  C4  A00 X   2      17.071  34.941  22.5840  0.00  0.00     0.000 C
ATOM     24  C5  A00 X   2      16.926  33.414  22.3390  0.00  0.00     0.000 C
ATOM     25  O5  A00 X   2      15.814  33.190  21.4330  0.00  0.00     0.000 O
ATOM     26   O  A00 X   2      17.475  37.046  21.2300  0.00  0.00     0.000 O
ATOM     28  HD  A00 X   2      16.625  37.181  21.3320  0.00  0.00     0.000 HD
BRANCH 21 30
ATOM     28   N  A00 X   2      16.712  36.406  19.4640  0.00  0.00     0.000 N
ATOM     30  HD  A00 X   2      15.938  36.201  19.1330  0.00  0.00     0.000 HD
ATOM     30   O  A00 X   2      14.901  37.341  18.3210  0.00  0.00     0.000 OA
ATOM     31   S  A00 X   2      16.124  36.684  18.0230  0.00  0.00     0.000 S
ATOM     32   O  A00 X   2      17.117  37.508  17.4060  0.00  0.00     0.000 OA
ATOM     33   O  A00 X   2      16.037  35.422  17.3500  0.00  0.00     0.000 OA
ENDBRANCH 21 30
BRANCH 24 34
ATOM     34   C  A00 X   2      16.888  32.481  23.5720  0.00  0.00     0.000 C
ATOM     35   O  A00 X   2      14.463  29.805  24.0340  0.00  0.00     0.000 OA
ATOM     36   O  A00 X   2      15.636  31.771  23.6520  0.00  0.00     0.000 O
ATOM     37   O  A00 X   2      15.875  29.997  22.1470  0.00  0.00     0.000 OA
ATOM     38   S  A00 X   2      15.746  30.205  23.5560  0.00  0.00     0.000 S
ATOM     39   O  A00 X   2      16.848  29.825  24.3880  0.00  0.00     0.000 OA
ENDBRANCH 24 34
BRANCH 20 40
ATOM     40  O4  A00 X   3      17.357  33.220  19.6490  0.00  0.00     0.000 O
BRANCH 40 44
ATOM     41  C1  A00 X   3      20.154  31.650  17.9650  0.00  0.00     0.000 C
ATOM     42  C2  A00 X   3      18.921  32.249  17.2530  0.00  0.00     0.000 C
ATOM     43  C3  A00 X   3      17.606  31.706  17.8700  0.00  0.00     0.000 C
ATOM     44  C4  A00 X   3      17.529  31.811  19.3880  0.00  0.00     0.000 C
ATOM     45  C5  A00 X   3      18.798  31.184  20.0300  0.00  0.00     0.000 C
ATOM     46  O5  A00 X   3      20.014  31.716  19.4110  0.00  0.00     0.000 O
ATOM     47   O  A00 X   3      16.400  32.125  17.2340  0.00  0.00     0.000 O
ATOM     49  HD  A00 X   3      16.116  32.166  18.0510  0.00  0.00     0.000 HD
BRANCH 42 49
ATOM     49   O  A00 X   3      19.013  33.684  17.3840  0.00  0.00     0.000 O
ATOM     50   O  A00 X   3      19.037  35.561  15.8980  0.00  0.00     0.000 OA
ATOM     51   O  A00 X   3      20.269  33.629  15.3160  0.00  0.00     0.000 OA
ATOM     52   O  A00 X   3      20.998  34.918  17.1580  0.00  0.00     0.000 OA
ATOM     53   S  A00 X   3      19.875  34.511  16.3860  0.00  0.00     0.000 S
ENDBRANCH 42 49
BRANCH 45 54
ATOM     54   C  A00 X   3      18.740  29.652  20.0250  0.00  0.00     0.000 C
ATOM     55   O  A00 X   3      19.618  28.997  20.5490  0.00  0.00     0.000 OA
ATOM     56   O  A00 X   3      17.812  29.063  19.4920  0.00  0.00     0.000 OA
ENDBRANCH 45 54
BRANCH 41 57
ATOM     57  O4  A00 X   4      20.470  30.331  17.4650  0.00  0.00     0.000 O
BRANCH 57 61
ATOM     58  C1  A00 X   4      24.188  28.261  16.7360  0.00  0.00     0.000 C
ATOM     59  C2  A00 X   4      23.664  28.353  18.1910  0.00  0.00     0.000 C
ATOM     60  C3  A00 X   4      22.186  28.784  18.2860  0.00  0.00     0.000 C
ATOM     61  C4  A00 X   4      21.891  30.018  17.4060  0.00  0.00     0.000 C
ATOM     62  C5  A00 X   4      22.294  29.629  15.9620  0.00  0.00     0.000 C
ATOM     63  O5  A00 X   4      23.719  29.358  15.9210  0.00  0.00     0.000 O
BRANCH 59 66
ATOM     64   N  A00 X   4      24.583  29.428  18.6050  0.00  0.00     0.000 N
ATOM     66  HD  A00 X   4      24.953  29.900  17.9810  0.00  0.00     0.000 HD
ATOM     66   O  A00 X   4      26.126  27.710  19.2870  0.00  0.00     0.000 OA
ATOM     67   S  A00 X   4      25.779  29.061  19.6020  0.00  0.00     0.000 S
ATOM     68   O  A00 X   4      26.744  30.050  19.2230  0.00  0.00     0.000 OA
ATOM     69   O  A00 X   4      25.143  29.312  20.8640  0.00  0.00     0.000 OA
ENDBRANCH 59 66
BRANCH 62 70
ATOM     70   C  A00 X   4      21.968  30.709  14.9020  0.00  0.00     0.000 C
ATOM     71   O  A00 X   4      19.241  30.793  12.5230  0.00  0.00     0.000 OA
ATOM     72   O  A00 X   4      21.552  31.132  12.2210  0.00  0.00     0.000 OA
ATOM     73   O  A00 X   4      20.665  30.457  14.3530  0.00  0.00     0.000 O
ATOM     74   O  A00 X   4      20.698  28.872  12.5390  0.00  0.00     0.000 OA
ATOM     75   S  A00 X   4      20.548  30.267  12.8000  0.00  0.00     0.000 S
ENDBRANCH 62 70
ENDBRANCH 57 61
ENDBRANCH 41 57
ENDBRANCH 40 44
ENDBRANCH 20 40
ENDBRANCH 19 23
ENDBRANCH 1 19
TORSDOF 14
ENDMDL
MODEL 22
REMARK VINA RESULT:      -4.1      9.142     14.599
ROOT
ATOM      1  C1  A00 X   1      20.337  13.658  27.2470  0.00  0.00     0.000 C
ATOM      2  C2  A00 X   1      20.746  12.735  26.0680  0.00  0.00     0.000 C
ATOM      3  C3  A00 X   1      21.331  13.451  24.8060  0.00  0.00     0.000 C
ATOM      4  C4  A00 X   1      21.094  14.982  24.7350  0.00  0.00     0.000 C
ATOM      5  C5  A00 X   1      19.904  15.422  25.5880  0.00  0.00     0.000 C
ATOM      6  O5  A00 X   1      20.274  15.074  26.9410  0.00  0.00     0.000 O
ATOM      7   O  A00 X   1      20.725  12.894  23.6420  0.00  0.00     0.000 O
ATOM      9  HD  A00 X   1      20.770  13.750  23.5210  0.00  0.00     0.000 HD
ATOM      9   O  A00 X   1      22.260  15.709  25.1220  0.00  0.00     0.000 O
ATOM     11  HD  A00 X   1      22.305  16.565  25.0010  0.00  0.00     0.000 HD
ENDROOT
BRANCH 2 11
ATOM     11   O  A00 X   1      21.716  11.793  26.5640  0.00  0.00     0.000 O
ATOM     12   O  A00 X   1      22.974  10.371  25.0940  0.00  0.00     0.000 OA
ATOM     13   O  A00 X   1      20.558  10.114  25.2190  0.00  0.00     0.000 OA
ATOM     14   O  A00 X   1      21.931   9.523  27.0700  0.00  0.00     0.000 OA
ATOM     15   S  A00 X   1      21.790  10.368  25.9150  0.00  0.00     0.000 S
ENDBRANCH 2 11
BRANCH 5 16
ATOM     16   C  A00 X   1      18.550  14.849  25.1560  0.00  0.00     0.000 C
ATOM     17   O  A00 X   1      17.619  14.911  25.9320  0.00  0.00     0.000 OA
ATOM     18   O  A00 X   1      18.375  14.343  24.0660  0.00  0.00     0.000 OA
ENDBRANCH 5 16
BRANCH 1 19
ATOM     19  O4  A00 X   2      19.136  13.209  27.9210  0.00  0.00     0.000 O
BRANCH 19 23
ATOM     20  C1  A00 X   2      18.281   9.583  30.0380  0.00  0.00     0.000 C
ATOM     21  C2  A00 X   2      19.523  10.392  30.4810  0.00  0.00     0.000 C
ATOM     22  C3  A00 X   2      19.456  11.839  29.9470  0.00  0.00     0.000 C
ATOM     23  C4  A00 X   2      19.250  11.844  28.4150  0.00  0.00     0.000 C
ATOM     24  C5  A00 X   2      17.992  10.989  28.1020  0.00  0.00     0.000 C
ATOM     25  O5  A00 X   2      18.212   9.639  28.5880  0.00  0.00     0.000 O
ATOM     26   O  A00 X   2      20.593  12.566  30.4410  0.00  0.00     0.000 O
ATOM     28  HD  A00 X   2      21.155  11.958  30.1880  0.00  0.00     0.000 HD
BRANCH 21 30
ATOM     28   N  A00 X   2      20.153   9.113  30.8210  0.00  0.00     0.000 N
ATOM     30  HD  A00 X   2      20.637   9.734  31.1810  0.00  0.00     0.000 HD
ATOM     30   O  A00 X   2      21.651   9.484  32.5750  0.00  0.00     0.000 OA
ATOM     31   S  A00 X   2      21.686   9.101  31.2080  0.00  0.00     0.000 S
ATOM     32   O  A00 X   2      22.085   7.749  30.9690  0.00  0.00     0.000 OA
ATOM     33   O  A00 X   2      22.358   9.985  30.3030  0.00  0.00     0.000 OA
ENDBRANCH 21 30
BRANCH 24 34
ATOM     34   C  A00 X   2      17.434  11.021  26.6600  0.00  0.00     0.000 C
ATOM     35   O  A00 X   2      13.893  11.254  25.8470  0.00  0.00     0.000 OA
ATOM     36   O  A00 X   2      16.017  10.759  26.6420  0.00  0.00     0.000 O
ATOM     37   O  A00 X   2      15.040  12.807  27.2120  0.00  0.00     0.000 OA
ATOM     38   S  A00 X   2      15.126  11.929  26.0850  0.00  0.00     0.000 S
ATOM     39   O  A00 X   2      15.787  12.418  24.9120  0.00  0.00     0.000 OA
ENDBRANCH 24 34
BRANCH 20 40
ATOM     40  O4  A00 X   3      17.151  10.268  30.5980  0.00  0.00     0.000 O
BRANCH 40 44
ATOM     41  C1  A00 X   3      14.165  10.608  32.6210  0.00  0.00     0.000 C
ATOM     42  C2  A00 X   3      15.171   9.441  32.7260  0.00  0.00     0.000 C
ATOM     43  C3  A00 X   3      15.451   8.822  31.3320  0.00  0.00     0.000 C
ATOM     44  C4  A00 X   3      15.819   9.833  30.2530  0.00  0.00     0.000 C
ATOM     45  C5  A00 X   3      14.759  10.970  30.2050  0.00  0.00     0.000 C
ATOM     46  O5  A00 X   3      14.520  11.517  31.5430  0.00  0.00     0.000 O
ATOM     47   O  A00 X   3      16.302   7.678  31.3180  0.00  0.00     0.000 O
ATOM     49  HD  A00 X   3      16.606   8.053  30.5990  0.00  0.00     0.000 HD
BRANCH 42 49
ATOM     49   O  A00 X   3      16.376   9.973  33.3180  0.00  0.00     0.000 O
ATOM     50   O  A00 X   3      18.576   9.160  33.7980  0.00  0.00     0.000 OA
ATOM     51   O  A00 X   3      16.724   7.751  34.2110  0.00  0.00     0.000 OA
ATOM     52   O  A00 X   3      17.002   9.671  35.5610  0.00  0.00     0.000 OA
ATOM     53   S  A00 X   3      17.232   9.098  34.2800  0.00  0.00     0.000 S
ENDBRANCH 42 49
BRANCH 45 54
ATOM     54   C  A00 X   3      13.475  10.521  29.4980  0.00  0.00     0.000 C
ATOM     55   O  A00 X   3      13.238   9.341  29.3370  0.00  0.00     0.000 OA
ATOM     56   O  A00 X   3      12.669  11.340  29.0850  0.00  0.00     0.000 OA
ENDBRANCH 45 54
BRANCH 41 57
ATOM     57  O4  A00 X   4      12.801  10.133  32.5650  0.00  0.00     0.000 O
BRANCH 57 61
ATOM     58  C1  A00 X   4       9.077  12.286  32.9310  0.00  0.00     0.000 C
ATOM     59  C2  A00 X   4       9.456  11.690  31.5520  0.00  0.00     0.000 C
ATOM     60  C3  A00 X   4      10.599  10.657  31.6230  0.00  0.00     0.000 C
ATOM     61  C4  A00 X   4      11.789  11.174  32.4600  0.00  0.00     0.000 C
ATOM     62  C5  A00 X   4      11.221  11.512  33.8610  0.00  0.00     0.000 C
ATOM     63  O5  A00 X   4      10.243  12.576  33.7350  0.00  0.00     0.000 O
BRANCH 59 66
ATOM     64   N  A00 X   4       9.807  12.230  30.2260  0.00  0.00     0.000 N
ATOM     66  HD  A00 X   4      10.412  12.848  30.1940  0.00  0.00     0.000 HD
ATOM     66   O  A00 X   4       7.638  13.275  30.1900  0.00  0.00     0.000 OA
ATOM     67   S  A00 X   4       8.626  12.766  29.2910  0.00  0.00     0.000 S
ATOM     68   O  A00 X   4       9.330  13.753  28.5250  0.00  0.00     0.000 OA
ATOM     69   O  A00 X   4       8.316  11.568  28.5630  0.00  0.00     0.000 OA
ENDBRANCH 59 66
BRANCH 62 70
ATOM     70   C  A00 X   4      12.292  11.949  34.8880  0.00  0.00     0.000 C
ATOM     71   O  A00 X   4      11.875  12.722  38.4000  0.00  0.00     0.000 OA
ATOM     72   O  A00 X   4      12.972  13.909  36.6880  0.00  0.00     0.000 OA
ATOM     73   O  A00 X   4      11.728  11.907  36.2090  0.00  0.00     0.000 O
ATOM     74   O  A00 X   4      10.538  13.919  36.7900  0.00  0.00     0.000 OA
ATOM     75   S  A00 X   4      11.754  13.224  37.0600  0.00  0.00     0.000 S
ENDBRANCH 62 70
ENDBRANCH 57 61
ENDBRANCH 41 57
ENDBRANCH 40 44
ENDBRANCH 20 40
ENDBRANCH 19 23
ENDBRANCH 1 19
TORSDOF 14
ENDMDL
MODEL 23
REMARK VINA RESULT:      -4.1     16.439     21.181
ROOT
ATOM      1  C1  A00 X   1      18.426  22.160  34.1240  0.00  0.00     0.000 C
ATOM      2  C2  A00 X   1      17.141  22.779  34.7360  0.00  0.00     0.000 C
ATOM      3  C3  A00 X   1      16.335  21.862  35.7140  0.00  0.00     0.000 C
ATOM      4  C4  A00 X   1      16.699  20.355  35.6710  0.00  0.00     0.000 C
ATOM      5  C5  A00 X   1      17.354  19.958  34.3480  0.00  0.00     0.000 C
ATOM      6  O5  A00 X   1      18.576  20.729  34.2980  0.00  0.00     0.000 O
ATOM      7   O  A00 X   1      14.950  21.954  35.3910  0.00  0.00     0.000 O
ATOM      9  HD  A00 X   1      15.118  21.121  35.5590  0.00  0.00     0.000 HD
ATOM      9   O  A00 X   1      17.548  19.992  36.7590  0.00  0.00     0.000 O
ATOM     11  HD  A00 X   1      17.717  19.159  36.9270  0.00  0.00     0.000 HD
ENDROOT
BRANCH 2 11
ATOM     11   O  A00 X   1      17.521  23.984  35.4280  0.00  0.00     0.000 O
ATOM     12   O  A00 X   1      19.767  24.356  36.1910  0.00  0.00     0.000 OA
ATOM     13   O  A00 X   1      18.475  22.527  37.1410  0.00  0.00     0.000 OA
ATOM     14   O  A00 X   1      17.879  24.786  37.5910  0.00  0.00     0.000 OA
ATOM     15   S  A00 X   1      18.489  23.880  36.6560  0.00  0.00     0.000 S
ENDBRANCH 2 11
BRANCH 5 16
ATOM     16   C  A00 X   1      16.470  20.129  33.1090  0.00  0.00     0.000 C
ATOM     17   O  A00 X   1      16.969  19.980  32.0130  0.00  0.00     0.000 OA
ATOM     18   O  A00 X   1      15.288  20.401  33.1850  0.00  0.00     0.000 OA
ENDBRANCH 5 16
BRANCH 1 19
ATOM     19  O4  A00 X   2      18.634  22.549  32.7440  0.00  0.00     0.000 O
BRANCH 19 23
ATOM     20  C1  A00 X   2      22.199  22.790  30.3780  0.00  0.00     0.000 C
ATOM     21  C2  A00 X   2      21.575  21.389  30.5890  0.00  0.00     0.000 C
ATOM     22  C3  A00 X   2      20.112  21.506  31.0670  0.00  0.00     0.000 C
ATOM     23  C4  A00 X   2      20.021  22.399  32.3240  0.00  0.00     0.000 C
ATOM     24  C5  A00 X   2      20.693  23.759  31.9910  0.00  0.00     0.000 C
ATOM     25  O5  A00 X   2      22.078  23.519  31.6290  0.00  0.00     0.000 O
ATOM     26   O  A00 X   2      19.558  20.184  31.1820  0.00  0.00     0.000 O
ATOM     28  HD  A00 X   2      20.223  19.891  31.6520  0.00  0.00     0.000 HD
BRANCH 21 30
ATOM     28   N  A00 X   2      22.929  20.828  30.6030  0.00  0.00     0.000 N
ATOM     30  HD  A00 X   2      22.384  20.165  30.4860  0.00  0.00     0.000 HD
ATOM     30   O  A00 X   2      22.832  18.671  29.7100  0.00  0.00     0.000 OA
ATOM     31   S  A00 X   2      23.113  19.298  30.9530  0.00  0.00     0.000 S
ATOM     32   O  A00 X   2      24.475  19.209  31.3800  0.00  0.00     0.000 OA
ATOM     33   O  A00 X   2      22.230  19.004  32.0430  0.00  0.00     0.000 OA
ENDBRANCH 21 30
BRANCH 24 34
ATOM     34   C  A00 X   2      20.533  24.916  33.0050  0.00  0.00     0.000 C
ATOM     35   O  A00 X   2      23.149  27.328  33.7780  0.00  0.00     0.000 OA
ATOM     36   O  A00 X   2      21.812  25.476  33.3650  0.00  0.00     0.000 O
ATOM     37   O  A00 X   2      22.336  26.915  31.5960  0.00  0.00     0.000 OA
ATOM     38   S  A00 X   2      22.011  26.990  32.9880  0.00  0.00     0.000 S
ATOM     39   O  A00 X   2      20.799  27.660  33.3520  0.00  0.00     0.000 OA
ENDBRANCH 24 34
BRANCH 20 40
ATOM     40  O4  A00 X   3      21.396  23.425  29.3730  0.00  0.00     0.000 O
BRANCH 40 44
ATOM     41  C1  A00 X   3      20.503  24.704  26.1030  0.00  0.00     0.000 C
ATOM     42  C2  A00 X   3      21.642  23.696  26.3740  0.00  0.00     0.000 C
ATOM     43  C3  A00 X   3      22.578  24.206  27.4990  0.00  0.00     0.000 C
ATOM     44  C4  A00 X   3      21.861  24.650  28.7670  0.00  0.00     0.000 C
ATOM     45  C5  A00 X   3      20.736  25.664  28.4150  0.00  0.00     0.000 C
ATOM     46  O5  A00 X   3      19.884  25.148  27.3420  0.00  0.00     0.000 O
ATOM     47   O  A00 X   3      23.718  23.394  27.7750  0.00  0.00     0.000 O
ATOM     49  HD  A00 X   3      23.532  23.608  28.5940  0.00  0.00     0.000 HD
BRANCH 42 49
ATOM     49   O  A00 X   3      21.020  22.442  26.7310  0.00  0.00     0.000 O
ATOM     50   O  A00 X   3      21.730  20.172  27.0000  0.00  0.00     0.000 OA
ATOM     51   O  A00 X   3      22.566  21.420  25.1740  0.00  0.00     0.000 OA
ATOM     52   O  A00 X   3      20.276  20.838  25.1860  0.00  0.00     0.000 OA
ATOM     53   S  A00 X   3      21.413  21.131  25.9890  0.00  0.00     0.000 S
ENDBRANCH 42 49
BRANCH 45 54
ATOM     54   C  A00 X   3      21.302  27.058  28.1170  0.00  0.00     0.000 C
ATOM     55   O  A00 X   3      20.559  27.995  27.9070  0.00  0.00     0.000 OA
ATOM     56   O  A00 X   3      22.508  27.250  28.0850  0.00  0.00     0.000 OA
ENDBRANCH 45 54
BRANCH 41 57
ATOM     57  O4  A00 X   4      20.938  25.783  25.2450  0.00  0.00     0.000 O
BRANCH 57 61
ATOM     58  C1  A00 X   4      19.048  27.912  21.9990  0.00  0.00     0.000 C
ATOM     59  C2  A00 X   4      18.757  28.364  23.4520  0.00  0.00     0.000 C
ATOM     60  C3  A00 X   4      19.743  27.785  24.4860  0.00  0.00     0.000 C
ATOM     61  C4  A00 X   4      19.938  26.264  24.3030  0.00  0.00     0.000 C
ATOM     62  C5  A00 X   4      20.431  26.061  22.8480  0.00  0.00     0.000 C
ATOM     63  O5  A00 X   4      19.404  26.512  21.9290  0.00  0.00     0.000 O
BRANCH 59 66
ATOM     64   N  A00 X   4      17.459  27.674  23.3360  0.00  0.00     0.000 N
ATOM     66  HD  A00 X   4      17.357  27.123  22.6760  0.00  0.00     0.000 HD
ATOM     66   O  A00 X   4      16.500  29.796  22.7210  0.00  0.00     0.000 OA
ATOM     67   S  A00 X   4      16.128  28.561  23.3370  0.00  0.00     0.000 S
ATOM     68   O  A00 X   4      15.259  27.723  22.5630  0.00  0.00     0.000 OA
ATOM     69   O  A00 X   4      15.834  28.575  24.7420  0.00  0.00     0.000 OA
ENDBRANCH 59 66
BRANCH 62 70
ATOM     70   C  A00 X   4      20.792  24.596  22.5020  0.00  0.00     0.000 C
ATOM     71   O  A00 X   4      19.453  22.498  19.8730  0.00  0.00     0.000 OA
ATOM     72   O  A00 X   4      19.754  22.075  22.1700  0.00  0.00     0.000 OA
ATOM     73   O  A00 X   4      20.202  24.248  21.2400  0.00  0.00     0.000 O
ATOM     74   O  A00 X   4      17.919  23.503  21.4400  0.00  0.00     0.000 OA
ATOM     75   S  A00 X   4      19.237  23.012  21.1970  0.00  0.00     0.000 S
ENDBRANCH 62 70
ENDBRANCH 57 61
ENDBRANCH 41 57
ENDBRANCH 40 44
ENDBRANCH 20 40
ENDBRANCH 19 23
ENDBRANCH 1 19
TORSDOF 14
ENDMDL
MODEL 24
REMARK VINA RESULT:      -4.1     23.615     27.539
ROOT
ATOM      1  C1  A00 X   1      20.858  35.206  23.6570  0.00  0.00     0.000 C
ATOM      2  C2  A00 X   1      21.887  36.135  24.3560  0.00  0.00     0.000 C
ATOM      3  C3  A00 X   1      23.137  36.538  23.5060  0.00  0.00     0.000 C
ATOM      4  C4  A00 X   1      23.384  35.686  22.2340  0.00  0.00     0.000 C
ATOM      5  C5  A00 X   1      22.720  34.312  22.3220  0.00  0.00     0.000 C
ATOM      6  O5  A00 X   1      21.306  34.593  22.4230  0.00  0.00     0.000 O
ATOM      7   O  A00 X   1      24.303  36.403  24.3160  0.00  0.00     0.000 O
ATOM      9  HD  A00 X   1      24.501  36.097  23.5300  0.00  0.00     0.000 HD
ATOM      9   O  A00 X   1      22.939  36.363  21.0590  0.00  0.00     0.000 O
ATOM     11  HD  A00 X   1      23.137  36.057  20.2730  0.00  0.00     0.000 HD
ENDROOT
BRANCH 2 11
ATOM     11   O  A00 X   1      21.193  37.330  24.7640  0.00  0.00     0.000 O
ATOM     12   O  A00 X   1      22.114  38.843  26.3850  0.00  0.00     0.000 OA
ATOM     13   O  A00 X   1      21.546  36.577  27.0610  0.00  0.00     0.000 OA
ATOM     14   O  A00 X   1      19.836  38.128  26.4890  0.00  0.00     0.000 OA
ATOM     15   S  A00 X   1      21.203  37.732  26.2790  0.00  0.00     0.000 S
ENDBRANCH 2 11
BRANCH 5 16
ATOM     16   C  A00 X   1      23.246  33.409  23.4420  0.00  0.00     0.000 C
ATOM     17   O  A00 X   1      22.660  32.373  23.6770  0.00  0.00     0.000 OA
ATOM     18   O  A00 X   1      24.231  33.688  24.0960  0.00  0.00     0.000 OA
ENDBRANCH 5 16
BRANCH 1 19
ATOM     19  O4  A00 X   2      20.286  34.226  24.5570  0.00  0.00     0.000 O
BRANCH 19 23
ATOM     20  C1  A00 X   2      16.570  33.895  22.4490  0.00  0.00     0.000 C
ATOM     21  C2  A00 X   2      16.675  34.984  23.5440  0.00  0.00     0.000 C
ATOM     22  C3  A00 X   2      18.151  35.269  23.8940  0.00  0.00     0.000 C
ATOM     23  C4  A00 X   2      18.882  33.962  24.2750  0.00  0.00     0.000 C
ATOM     24  C5  A00 X   2      18.686  32.952  23.1110  0.00  0.00     0.000 C
ATOM     25  O5  A00 X   2      17.265  32.715  22.9320  0.00  0.00     0.000 O
ATOM     26   O  A00 X   2      18.198  36.331  24.8620  0.00  0.00     0.000 O
ATOM     28  HD  A00 X   2      17.617  35.952  25.3810  0.00  0.00     0.000 HD
BRANCH 21 30
ATOM     28   N  A00 X   2      16.563  36.375  23.9930  0.00  0.00     0.000 N
ATOM     30  HD  A00 X   2      15.758  36.097  23.8340  0.00  0.00     0.000 HD
ATOM     30   O  A00 X   2      14.337  36.771  24.5830  0.00  0.00     0.000 OA
ATOM     31   S  A00 X   2      15.270  37.196  23.6010  0.00  0.00     0.000 S
ATOM     32   O  A00 X   2      15.688  38.559  23.7150  0.00  0.00     0.000 OA
ATOM     33   O  A00 X   2      14.966  36.881  22.2370  0.00  0.00     0.000 OA
ENDBRANCH 21 30
BRANCH 24 34
ATOM     34   C  A00 X   2      19.511  31.644  23.1390  0.00  0.00     0.000 C
ATOM     35   O  A00 X   2      19.301  29.155  25.7890  0.00  0.00     0.000 OA
ATOM     36   O  A00 X   2      19.490  31.041  24.4480  0.00  0.00     0.000 O
ATOM     37   O  A00 X   2      17.443  29.914  24.5380  0.00  0.00     0.000 OA
ATOM     38   S  A00 X   2      18.841  29.610  24.5180  0.00  0.00     0.000 S
ATOM     39   O  A00 X   2      19.345  28.882  23.3930  0.00  0.00     0.000 OA
ENDBRANCH 24 34
BRANCH 20 40
ATOM     40  O4  A00 X   3      17.260  34.425  21.3070  0.00  0.00     0.000 O
BRANCH 40 44
ATOM     41  C1  A00 X   3      19.358  34.394  18.3550  0.00  0.00     0.000 C
ATOM     42  C2  A00 X   3      18.532  35.607  18.8340  0.00  0.00     0.000 C
ATOM     43  C3  A00 X   3      17.058  35.204  19.1000  0.00  0.00     0.000 C
ATOM     44  C4  A00 X   3      16.887  33.977  19.9860  0.00  0.00     0.000 C
ATOM     45  C5  A00 X   3      17.743  32.801  19.4380  0.00  0.00     0.000 C
ATOM     46  O5  A00 X   3      19.122  33.228  19.1910  0.00  0.00     0.000 O
ATOM     47   O  A00 X   3      16.179  36.266  19.4660  0.00  0.00     0.000 O
ATOM     49  HD  A00 X   3      15.859  35.665  20.0020  0.00  0.00     0.000 HD
BRANCH 42 49
ATOM     49   O  A00 X   3      19.167  36.105  20.0320  0.00  0.00     0.000 O
ATOM     50   O  A00 X   3      18.793  37.896  21.5750  0.00  0.00     0.000 OA
ATOM     51   O  A00 X   3      18.522  38.307  19.2630  0.00  0.00     0.000 OA
ATOM     52   O  A00 X   3      20.697  37.885  20.0850  0.00  0.00     0.000 OA
ATOM     53   S  A00 X   3      19.309  37.637  20.2680  0.00  0.00     0.000 S
ENDBRANCH 42 49
BRANCH 45 54
ATOM     54   C  A00 X   3      17.088  32.144  18.2170  0.00  0.00     0.000 C
ATOM     55   O  A00 X   3      16.150  32.673  17.6580  0.00  0.00     0.000 OA
ATOM     56   O  A00 X   3      17.497  31.076  17.7860  0.00  0.00     0.000 OA
ENDBRANCH 45 54
BRANCH 41 57
ATOM     57  O4  A00 X   4      19.176  34.149  16.9420  0.00  0.00     0.000 O
BRANCH 57 61
ATOM     58  C1  A00 X   4      21.762  32.371  13.9770  0.00  0.00     0.000 C
ATOM     59  C2  A00 X   4      20.628  31.508  14.5840  0.00  0.00     0.000 C
ATOM     60  C3  A00 X   4      19.567  32.333  15.3420  0.00  0.00     0.000 C
ATOM     61  C4  A00 X   4      20.213  33.341  16.3160  0.00  0.00     0.000 C
ATOM     62  C5  A00 X   4      21.146  34.235  15.4620  0.00  0.00     0.000 C
ATOM     63  O5  A00 X   4      22.192  33.415  14.8800  0.00  0.00     0.000 O
BRANCH 59 66
ATOM     64   N  A00 X   4      19.833  30.559  13.7840  0.00  0.00     0.000 N
ATOM     66  HD  A00 X   4      19.189  30.140  14.1840  0.00  0.00     0.000 HD
ATOM     66   O  A00 X   4      21.770  29.129  13.7400  0.00  0.00     0.000 OA
ATOM     67   S  A00 X   4      20.608  29.427  12.9620  0.00  0.00     0.000 S
ATOM     68   O  A00 X   4      19.608  28.400  12.9300  0.00  0.00     0.000 OA
ATOM     69   O  A00 X   4      20.795  30.105  11.7110  0.00  0.00     0.000 OA
ENDBRANCH 59 66
BRANCH 62 70
ATOM     70   C  A00 X   4      21.809  35.391  16.2490  0.00  0.00     0.000 C
ATOM     71   O  A00 X   4      22.094  38.881  15.3300  0.00  0.00     0.000 OA
ATOM     72   O  A00 X   4      23.716  37.363  16.1100  0.00  0.00     0.000 OA
ATOM     73   O  A00 X   4      21.472  36.642  15.6290  0.00  0.00     0.000 O
ATOM     74   O  A00 X   4      22.939  37.215  13.8050  0.00  0.00     0.000 OA
ATOM     75   S  A00 X   4      22.647  37.567  15.1570  0.00  0.00     0.000 S
ENDBRANCH 62 70
ENDBRANCH 57 61
ENDBRANCH 41 57
ENDBRANCH 40 44
ENDBRANCH 20 40
ENDBRANCH 19 23
ENDBRANCH 1 19
TORSDOF 14
ENDMDL
MODEL 25
REMARK VINA RESULT:      -4.0     17.150     22.477
ROOT
ATOM      1  C1  A00 X   1      21.691  19.561  35.2740  0.00  0.00     0.000 C
ATOM      2  C2  A00 X   1      22.083  19.447  36.7710  0.00  0.00     0.000 C
ATOM      3  C3  A00 X   1      23.294  20.322  37.2330  0.00  0.00     0.000 C
ATOM      4  C4  A00 X   1      24.173  20.902  36.0940  0.00  0.00     0.000 C
ATOM      5  C5  A00 X   1      24.043  20.099  34.8000  0.00  0.00     0.000 C
ATOM      6  O5  A00 X   1      22.654  20.231  34.4240  0.00  0.00     0.000 O
ATOM      7   O  A00 X   1      24.154  19.523  38.0410  0.00  0.00     0.000 O
ATOM      9  HD  A00 X   1      24.660  20.001  37.5250  0.00  0.00     0.000 HD
ATOM      9   O  A00 X   1      23.866  22.273  35.8440  0.00  0.00     0.000 O
ATOM     11  HD  A00 X   1      24.371  22.750  35.3280  0.00  0.00     0.000 HD
ENDROOT
BRANCH 2 11
ATOM     11   O  A00 X   1      20.926  19.795  37.5550  0.00  0.00     0.000 O
ATOM     12   O  A00 X   1      20.917  19.627  39.9510  0.00  0.00     0.000 OA
ATOM     13   O  A00 X   1      21.165  17.608  38.6160  0.00  0.00     0.000 OA
ATOM     14   O  A00 X   1      19.107  18.799  38.6280  0.00  0.00     0.000 OA
ATOM     15   S  A00 X   1      20.534  18.890  38.7730  0.00  0.00     0.000 S
ENDBRANCH 2 11
BRANCH 5 16
ATOM     16   C  A00 X   1      24.518  18.645  34.8880  0.00  0.00     0.000 C
ATOM     17   O  A00 X   1      24.267  17.895  33.9680  0.00  0.00     0.000 OA
ATOM     18   O  A00 X   1      25.142  18.220  35.8400  0.00  0.00     0.000 OA
ENDBRANCH 5 16
BRANCH 1 19
ATOM     19  O4  A00 X   2      21.275  18.295  34.7050  0.00  0.00     0.000 O
BRANCH 19 23
ATOM     20  C1  A00 X   2      18.274  20.052  32.2000  0.00  0.00     0.000 C
ATOM     21  C2  A00 X   2      17.816  19.455  33.5530  0.00  0.00     0.000 C
ATOM     22  C3  A00 X   2      19.016  19.266  34.5040  0.00  0.00     0.000 C
ATOM     23  C4  A00 X   2      20.123  18.430  33.8240  0.00  0.00     0.000 C
ATOM     24  C5  A00 X   2      20.478  19.119  32.4780  0.00  0.00     0.000 C
ATOM     25  O5  A00 X   2      19.288  19.169  31.6500  0.00  0.00     0.000 O
ATOM     26   O  A00 X   2      18.531  18.776  35.7660  0.00  0.00     0.000 O
ATOM     28  HD  A00 X   2      18.069  18.141  35.3990  0.00  0.00     0.000 HD
BRANCH 21 30
ATOM     28   N  A00 X   2      17.102  19.728  34.8040  0.00  0.00     0.000 N
ATOM     30  HD  A00 X   2      16.501  19.630  34.1880  0.00  0.00     0.000 HD
ATOM     30   O  A00 X   2      14.862  19.132  34.5070  0.00  0.00     0.000 OA
ATOM     31   S  A00 X   2      15.632  20.305  34.7270  0.00  0.00     0.000 S
ATOM     32   O  A00 X   2      15.442  20.920  36.0040  0.00  0.00     0.000 OA
ATOM     33   O  A00 X   2      15.618  21.294  33.6910  0.00  0.00     0.000 OA
ENDBRANCH 21 30
BRANCH 24 34
ATOM     34   C  A00 X   2      21.720  18.610  31.7080  0.00  0.00     0.000 C
ATOM     35   O  A00 X   2      21.630  17.356  28.2910  0.00  0.00     0.000 OA
ATOM     36   O  A00 X   2      21.338  17.859  30.5380  0.00  0.00     0.000 O
ATOM     37   O  A00 X   2      20.842  19.490  28.9360  0.00  0.00     0.000 OA
ATOM     38   S  A00 X   2      21.814  18.466  29.1670  0.00  0.00     0.000 S
ATOM     39   O  A00 X   2      23.174  18.872  29.3540  0.00  0.00     0.000 OA
ENDBRANCH 24 34
BRANCH 20 40
ATOM     40  O4  A00 X   3      18.865  21.321  32.5160  0.00  0.00     0.000 O
BRANCH 40 44
ATOM     41  C1  A00 X   3      21.332  23.937  32.0750  0.00  0.00     0.000 C
ATOM     42  C2  A00 X   3      20.145  24.004  33.0600  0.00  0.00     0.000 C
ATOM     43  C3  A00 X   3      18.811  23.664  32.3460  0.00  0.00     0.000 C
ATOM     44  C4  A00 X   3      18.839  22.377  31.5310  0.00  0.00     0.000 C
ATOM     45  C5  A00 X   3      20.055  22.386  30.5630  0.00  0.00     0.000 C
ATOM     46  O5  A00 X   3      21.289  22.722  31.2770  0.00  0.00     0.000 O
ATOM     47   O  A00 X   3      17.633  23.779  33.1410  0.00  0.00     0.000 O
ATOM     49  HD  A00 X   3      17.406  23.065  32.7060  0.00  0.00     0.000 HD
BRANCH 42 49
ATOM     49   O  A00 X   3      20.426  23.070  34.1260  0.00  0.00     0.000 O
ATOM     50   O  A00 X   3      19.331  22.344  36.1270  0.00  0.00     0.000 OA
ATOM     51   O  A00 X   3      19.302  24.644  35.5810  0.00  0.00     0.000 OA
ATOM     52   O  A00 X   3      21.359  23.658  36.1990  0.00  0.00     0.000 OA
ATOM     53   S  A00 X   3      20.088  23.436  35.6010  0.00  0.00     0.000 S
ENDBRANCH 42 49
BRANCH 45 54
ATOM     54   C  A00 X   3      19.802  23.280  29.3430  0.00  0.00     0.000 C
ATOM     55   O  A00 X   3      18.915  24.109  29.3560  0.00  0.00     0.000 OA
ATOM     56   O  A00 X   3      20.486  23.173  28.3370  0.00  0.00     0.000 OA
ENDBRANCH 45 54
BRANCH 41 57
ATOM     57  O4  A00 X   4      21.447  25.148  31.2950  0.00  0.00     0.000 O
BRANCH 57 61
ATOM     58  C1  A00 X   4      24.808  27.199  29.5230  0.00  0.00     0.000 C
ATOM     59  C2  A00 X   4      24.458  25.776  29.0190  0.00  0.00     0.000 C
ATOM     60  C3  A00 X   4      23.057  25.298  29.4520  0.00  0.00     0.000 C
ATOM     61  C4  A00 X   4      22.809  25.538  30.9560  0.00  0.00     0.000 C
ATOM     62  C5  A00 X   4      23.007  27.055  31.1950  0.00  0.00     0.000 C
ATOM     63  O5  A00 X   4      24.379  27.411  30.8870  0.00  0.00     0.000 O
BRANCH 59 66
ATOM     64   N  A00 X   4      25.457  24.905  29.6650  0.00  0.00     0.000 N
ATOM     66  HD  A00 X   4      25.818  25.187  30.3990  0.00  0.00     0.000 HD
ATOM     66   O  A00 X   4      26.937  25.414  27.8350  0.00  0.00     0.000 OA
ATOM     67   S  A00 X   4      26.683  24.376  28.7840  0.00  0.00     0.000 S
ATOM     68   O  A00 X   4      27.680  24.213  29.8020  0.00  0.00     0.000 OA
ATOM     69   O  A00 X   4      26.132  23.144  28.2970  0.00  0.00     0.000 OA
ENDBRANCH 59 66
BRANCH 62 70
ATOM     70   C  A00 X   4      22.691  27.515  32.6380  0.00  0.00     0.000 C
ATOM     71   O  A00 X   4      24.494  26.780  35.6900  0.00  0.00     0.000 OA
ATOM     72   O  A00 X   4      22.198  26.629  35.1900  0.00  0.00     0.000 OA
ATOM     73   O  A00 X   4      23.803  27.197  33.4910  0.00  0.00     0.000 O
ATOM     74   O  A00 X   4      23.731  24.940  34.3310  0.00  0.00     0.000 OA
ATOM     75   S  A00 X   4      23.531  26.292  34.7430  0.00  0.00     0.000 S
ENDBRANCH 62 70
ENDBRANCH 57 61
ENDBRANCH 41 57
ENDBRANCH 40 44
ENDBRANCH 20 40
ENDBRANCH 19 23
ENDBRANCH 1 19
TORSDOF 14
ENDMDL
MODEL 26
REMARK VINA RESULT:      -3.7      6.432     14.600
ROOT
ATOM      1  C1  A00 X   1      20.391  14.138  27.5550  0.00  0.00     0.000 C
ATOM      2  C2  A00 X   1      21.412  13.305  26.7350  0.00  0.00     0.000 C
ATOM      3  C3  A00 X   1      22.348  14.114  25.7770  0.00  0.00     0.000 C
ATOM      4  C4  A00 X   1      21.908  15.573  25.4880  0.00  0.00     0.000 C
ATOM      5  C5  A00 X   1      20.413  15.783  25.7270  0.00  0.00     0.000 C
ATOM      6  O5  A00 X   1      20.225  15.515  27.1340  0.00  0.00     0.000 O
ATOM      7   O  A00 X   1      22.399  13.449  24.5170  0.00  0.00     0.000 O
ATOM      9  HD  A00 X   1      22.346  14.298  24.3560  0.00  0.00     0.000 HD
ATOM      9   O  A00 X   1      22.657  16.508  26.2640  0.00  0.00     0.000 O
ATOM     11  HD  A00 X   1      22.603  17.357  26.1030  0.00  0.00     0.000 HD
ENDROOT
BRANCH 2 11
ATOM     11   O  A00 X   1      22.223  12.564  27.6670  0.00  0.00     0.000 O
ATOM     12   O  A00 X   1      24.174  11.349  26.9680  0.00  0.00     0.000 OA
ATOM     13   O  A00 X   1      21.989  10.670  26.1410  0.00  0.00     0.000 OA
ATOM     14   O  A00 X   1      22.552  10.383  28.4350  0.00  0.00     0.000 OA
ATOM     15   S  A00 X   1      22.772  11.158  27.2430  0.00  0.00     0.000 S
ENDBRANCH 2 11
BRANCH 5 16
ATOM     16   C  A00 X   1      19.490  14.964  24.8180  0.00  0.00     0.000 C
ATOM     17   O  A00 X   1      18.307  14.914  25.0850  0.00  0.00     0.000 OA
ATOM     18   O  A00 X   1      19.898  14.370  23.8400  0.00  0.00     0.000 OA
ENDBRANCH 5 16
BRANCH 1 19
ATOM     19  O4  A00 X   2      19.113  13.472  27.7010  0.00  0.00     0.000 O
BRANCH 19 23
ATOM     20  C1  A00 X   2      18.053   9.819  29.6760  0.00  0.00     0.000 C
ATOM     21  C2  A00 X   2      18.845  10.870  30.4920  0.00  0.00     0.000 C
ATOM     22  C3  A00 X   2      18.772  12.257  29.8200  0.00  0.00     0.000 C
ATOM     23  C4  A00 X   2      19.230  12.172  28.3470  0.00  0.00     0.000 C
ATOM     24  C5  A00 X   2      18.378  11.079  27.6470  0.00  0.00     0.000 C
ATOM     25  O5  A00 X   2      18.591   9.814  28.3270  0.00  0.00     0.000 O
ATOM     26   O  A00 X   2      19.462  13.208  30.6490  0.00  0.00     0.000 O
ATOM     28  HD  A00 X   2      20.170  12.712  30.7150  0.00  0.00     0.000 HD
BRANCH 21 30
ATOM     28   N  A00 X   2      19.521   9.766  31.1820  0.00  0.00     0.000 N
ATOM     30  HD  A00 X   2      19.665  10.480  31.6500  0.00  0.00     0.000 HD
ATOM     30   O  A00 X   2      20.016  10.462  33.3560  0.00  0.00     0.000 OA
ATOM     31   S  A00 X   2      20.708  10.102  32.1700  0.00  0.00     0.000 S
ATOM     32   O  A00 X   2      21.442   8.877  32.2460  0.00  0.00     0.000 OA
ATOM     33   O  A00 X   2      21.502  11.119  31.5470  0.00  0.00     0.000 OA
ENDBRANCH 21 30
BRANCH 24 34
ATOM     34   C  A00 X   2      18.479  10.954  26.1080  0.00  0.00     0.000 C
ATOM     35   O  A00 X   2      15.605  10.678  23.8900  0.00  0.00     0.000 OA
ATOM     36   O  A00 X   2      17.232  10.510  25.5370  0.00  0.00     0.000 O
ATOM     37   O  A00 X   2      15.920  12.443  25.4320  0.00  0.00     0.000 OA
ATOM     38   S  A00 X   2      16.554  11.521  24.5410  0.00  0.00     0.000 S
ATOM     39   O  A00 X   2      17.598  12.022  23.6990  0.00  0.00     0.000 OA
ENDBRANCH 24 34
BRANCH 20 40
ATOM     40  O4  A00 X   3      16.698  10.290  29.6500  0.00  0.00     0.000 O
BRANCH 40 44
ATOM     41  C1  A00 X   3      13.095  10.406  30.0060  0.00  0.00     0.000 C
ATOM     42  C2  A00 X   3      14.025   9.445  30.7780  0.00  0.00     0.000 C
ATOM     43  C3  A00 X   3      14.978   8.698  29.8100  0.00  0.00     0.000 C
ATOM     44  C4  A00 X   3      15.726   9.599  28.8360  0.00  0.00     0.000 C
ATOM     45  C5  A00 X   3      14.725  10.530  28.0960  0.00  0.00     0.000 C
ATOM     46  O5  A00 X   3      13.839  11.206  29.0460  0.00  0.00     0.000 O
ATOM     47   O  A00 X   3      15.826   7.717  30.4050  0.00  0.00     0.000 O
ATOM     49  HD  A00 X   3      16.401   8.036  29.8410  0.00  0.00     0.000 HD
BRANCH 42 49
ATOM     49   O  A00 X   3      14.760  10.244  31.7310  0.00  0.00     0.000 O
ATOM     50   O  A00 X   3      16.454   9.853  33.3770  0.00  0.00     0.000 OA
ATOM     51   O  A00 X   3      14.684   8.300  33.1720  0.00  0.00     0.000 OA
ATOM     52   O  A00 X   3      14.198  10.460  34.0010  0.00  0.00     0.000 OA
ATOM     53   S  A00 X   3      15.051   9.694  33.1580  0.00  0.00     0.000 S
ENDBRANCH 42 49
BRANCH 45 54
ATOM     54   C  A00 X   3      13.967   9.783  26.9910  0.00  0.00     0.000 C
ATOM     55   O  A00 X   3      14.103   8.586  26.8480  0.00  0.00     0.000 OA
ATOM     56   O  A00 X   3      13.215  10.380  26.2360  0.00  0.00     0.000 OA
ENDBRANCH 45 54
BRANCH 41 57
ATOM     57  O4  A00 X   4      11.962   9.710  29.4370  0.00  0.00     0.000 O
BRANCH 57 61
ATOM     58  C1  A00 X   4       8.106  11.214  28.2120  0.00  0.00     0.000 C
ATOM     59  C2  A00 X   4       9.076  10.689  27.1250  0.00  0.00     0.000 C
ATOM     60  C3  A00 X   4      10.246   9.860  27.6930  0.00  0.00     0.000 C
ATOM     61  C4  A00 X   4      10.923  10.568  28.8860  0.00  0.00     0.000 C
ATOM     62  C5  A00 X   4       9.812  10.809  29.9390  0.00  0.00     0.000 C
ATOM     63  O5  A00 X   4       8.810  11.695  29.3800  0.00  0.00     0.000 O
BRANCH 59 66
ATOM     64   N  A00 X   4       9.634  10.679  25.7610  0.00  0.00     0.000 N
ATOM     66  HD  A00 X   4      10.344  11.153  25.6160  0.00  0.00     0.000 HD
ATOM     66   O  A00 X   4       7.708  11.949  25.0710  0.00  0.00     0.000 OA
ATOM     67   S  A00 X   4       8.659  11.023  24.5400  0.00  0.00     0.000 S
ATOM     68   O  A00 X   4       9.598  11.569  23.6050  0.00  0.00     0.000 OA
ATOM     69   O  A00 X   4       8.196   9.705  24.2070  0.00  0.00     0.000 OA
ENDBRANCH 59 66
BRANCH 62 70
ATOM     70   C  A00 X   4      10.321  11.417  31.2670  0.00  0.00     0.000 C
ATOM     71   O  A00 X   4       8.570  11.754  34.4180  0.00  0.00     0.000 OA
ATOM     72   O  A00 X   4       9.806  13.326  33.1740  0.00  0.00     0.000 OA
ATOM     73   O  A00 X   4       9.386  11.119  32.3160  0.00  0.00     0.000 O
ATOM     74   O  A00 X   4       7.570  12.698  32.4370  0.00  0.00     0.000 OA
ATOM     75   S  A00 X   4       8.769  12.320  33.1130  0.00  0.00     0.000 S
ENDBRANCH 62 70
ENDBRANCH 57 61
ENDBRANCH 41 57
ENDBRANCH 40 44
ENDBRANCH 20 40
ENDBRANCH 19 23
ENDBRANCH 1 19
TORSDOF 14
ENDMDL
MODEL 27
REMARK VINA RESULT:      -3.7      8.135     14.935
ROOT
ATOM      1  C1  A00 X   1      23.130  13.193  26.4870  0.00  0.00     0.000 C
ATOM      2  C2  A00 X   1      22.795  13.890  27.8330  0.00  0.00     0.000 C
ATOM      3  C3  A00 X   1      23.791  13.625  29.0100  0.00  0.00     0.000 C
ATOM      4  C4  A00 X   1      24.762  12.433  28.8090  0.00  0.00     0.000 C
ATOM      5  C5  A00 X   1      24.234  11.424  27.7900  0.00  0.00     0.000 C
ATOM      6  O5  A00 X   1      24.147  12.163  26.5510  0.00  0.00     0.000 O
ATOM      7   O  A00 X   1      23.040  13.340  30.1890  0.00  0.00     0.000 O
ATOM      9  HD  A00 X   1      23.709  12.790  30.1720  0.00  0.00     0.000 HD
ATOM      9   O  A00 X   1      26.061  12.879  28.4170  0.00  0.00     0.000 O
ATOM     11  HD  A00 X   1      26.729  12.328  28.4010  0.00  0.00     0.000 HD
ENDROOT
BRANCH 2 11
ATOM     11   O  A00 X   1      22.725  15.308  27.5880  0.00  0.00     0.000 O
ATOM     12   O  A00 X   1      22.815  16.912  29.3730  0.00  0.00     0.000 OA
ATOM     13   O  A00 X   1      20.943  15.362  29.2570  0.00  0.00     0.000 OA
ATOM     14   O  A00 X   1      21.196  17.071  27.6220  0.00  0.00     0.000 OA
ATOM     15   S  A00 X   1      21.869  16.202  28.5490  0.00  0.00     0.000 S
ENDBRANCH 2 11
BRANCH 5 16
ATOM     16   C  A00 X   1      22.925  10.731  28.1830  0.00  0.00     0.000 C
ATOM     17   O  A00 X   1      22.562  10.788  29.3400  0.00  0.00     0.000 OA
ATOM     18   O  A00 X   1      22.237  10.134  27.3790  0.00  0.00     0.000 OA
ENDBRANCH 5 16
BRANCH 1 19
ATOM     19  O4  A00 X   2      21.950  12.727  25.7870  0.00  0.00     0.000 O
BRANCH 19 23
ATOM     20  C1  A00 X   2      19.422  14.648  22.9090  0.00  0.00     0.000 C
ATOM     21  C2  A00 X   2      20.926  14.517  22.5650  0.00  0.00     0.000 C
ATOM     22  C3  A00 X   2      21.602  13.454  23.4560  0.00  0.00     0.000 C
ATOM     23  C4  A00 X   2      21.353  13.759  24.9500  0.00  0.00     0.000 C
ATOM     24  C5  A00 X   2      19.820  13.884  25.1600  0.00  0.00     0.000 C
ATOM     25  O5  A00 X   2      19.320  14.961  24.3240  0.00  0.00     0.000 O
ATOM     26   O  A00 X   2      22.976  13.321  23.0520  0.00  0.00     0.000 O
ATOM     28  HD  A00 X   2      23.120  14.174  23.0820  0.00  0.00     0.000 HD
BRANCH 21 30
ATOM     28   N  A00 X   2      20.588  14.682  21.1480  0.00  0.00     0.000 N
ATOM     30  HD  A00 X   2      21.244  15.222  21.3140  0.00  0.00     0.000 HD
ATOM     30   O  A00 X   2      22.360  15.789  20.1020  0.00  0.00     0.000 OA
ATOM     31   S  A00 X   2      20.997  16.026  20.4220  0.00  0.00     0.000 S
ATOM     32   O  A00 X   2      20.114  16.086  19.2990  0.00  0.00     0.000 OA
ATOM     33   O  A00 X   2      20.720  17.098  21.3310  0.00  0.00     0.000 OA
ENDBRANCH 21 30
BRANCH 24 34
ATOM     34   C  A00 X   2      19.289  13.960  26.6110  0.00  0.00     0.000 C
ATOM     35   O  A00 X   2      16.962  11.565  28.0610  0.00  0.00     0.000 OA
ATOM     36   O  A00 X   2      18.138  13.112  26.7910  0.00  0.00     0.000 O
ATOM     37   O  A00 X   2      19.032  10.971  27.0840  0.00  0.00     0.000 OA
ATOM     38   S  A00 X   2      18.316  11.953  27.8390  0.00  0.00     0.000 S
ATOM     39   O  A00 X   2      18.976  12.529  28.9720  0.00  0.00     0.000 OA
ENDBRANCH 24 34
BRANCH 20 40
ATOM     40  O4  A00 X   3      18.853  13.354  22.6610  0.00  0.00     0.000 O
BRANCH 40 44
ATOM     41  C1  A00 X   3      16.261  11.388  24.2540  0.00  0.00     0.000 C
ATOM     42  C2  A00 X   3      17.239  10.854  23.1860  0.00  0.00     0.000 C
ATOM     43  C3  A00 X   3      17.264  11.780  21.9430  0.00  0.00     0.000 C
ATOM     44  C4  A00 X   3      17.470  13.257  22.2570  0.00  0.00     0.000 C
ATOM     45  C5  A00 X   3      16.449  13.719  23.3340  0.00  0.00     0.000 C
ATOM     46  O5  A00 X   3      16.452  12.811  24.4830  0.00  0.00     0.000 O
ATOM     47   O  A00 X   3      18.070  11.338  20.8520  0.00  0.00     0.000 O
ATOM     49  HD  A00 X   3      18.258  12.182  20.7960  0.00  0.00     0.000 HD
BRANCH 42 49
ATOM     49   O  A00 X   3      18.541  10.770  23.8070  0.00  0.00     0.000 O
ATOM     50   O  A00 X   3      20.756  10.183  23.1170  0.00  0.00     0.000 OA
ATOM     51   O  A00 X   3      18.938   8.884  22.3440  0.00  0.00     0.000 OA
ATOM     52   O  A00 X   3      19.494   8.792  24.6400  0.00  0.00     0.000 OA
ATOM     53   S  A00 X   3      19.501   9.594  23.4650  0.00  0.00     0.000 S
ENDBRANCH 42 49
BRANCH 45 54
ATOM     54   C  A00 X   3      15.052  13.931  22.7370  0.00  0.00     0.000 C
ATOM     55   O  A00 X   3      14.104  14.178  23.4530  0.00  0.00     0.000 OA
ATOM     56   O  A00 X   3      14.869  13.854  21.5320  0.00  0.00     0.000 OA
ENDBRANCH 45 54
BRANCH 41 57
ATOM     57  O4  A00 X   4      14.895  11.018  23.9600  0.00  0.00     0.000 O
BRANCH 57 61
ATOM     58  C1  A00 X   4      11.512  10.047  26.4590  0.00  0.00     0.000 C
ATOM     59  C2  A00 X   4      12.149  11.453  26.5880  0.00  0.00     0.000 C
ATOM     60  C3  A00 X   4      13.093  11.809  25.4210  0.00  0.00     0.000 C
ATOM     61  C4  A00 X   4      14.086  10.667  25.1180  0.00  0.00     0.000 C
ATOM     62  C5  A00 X   4      13.229   9.414  24.8140  0.00  0.00     0.000 C
ATOM     63  O5  A00 X   4      12.462   9.062  25.9940  0.00  0.00     0.000 O
BRANCH 59 66
ATOM     64   N  A00 X   4      11.574  12.781  26.8700  0.00  0.00     0.000 N
ATOM     66  HD  A00 X   4      12.125  13.441  26.9750  0.00  0.00     0.000 HD
ATOM     66   O  A00 X   4      10.959  11.942  29.0420  0.00  0.00     0.000 OA
ATOM     67   S  A00 X   4      10.540  12.916  28.0830  0.00  0.00     0.000 S
ATOM     68   O  A00 X   4      10.758  14.283  28.4580  0.00  0.00     0.000 OA
ATOM     69   O  A00 X   4       9.305  12.686  27.3900  0.00  0.00     0.000 OA
ENDBRANCH 59 66
BRANCH 62 70
ATOM     70   C  A00 X   4      14.051   8.178  24.3750  0.00  0.00     0.000 C
ATOM     71   O  A00 X   4      16.257   6.107  26.3640  0.00  0.00     0.000 OA
ATOM     72   O  A00 X   4      16.585   7.124  24.2660  0.00  0.00     0.000 OA
ATOM     73   O  A00 X   4      14.584   7.525  25.5390  0.00  0.00     0.000 O
ATOM     74   O  A00 X   4      16.665   8.483  26.2870  0.00  0.00     0.000 OA
ATOM     75   S  A00 X   4      16.138   7.333  25.6250  0.00  0.00     0.000 S
ENDBRANCH 62 70
ENDBRANCH 57 61
ENDBRANCH 41 57
ENDBRANCH 40 44
ENDBRANCH 20 40
ENDBRANCH 19 23
ENDBRANCH 1 19
TORSDOF 14
ENDMDL
MODEL 28
REMARK VINA RESULT:      -3.3     17.606     22.750
ROOT
ATOM      1  C1  A00 X   1      24.199  20.511  35.5390  0.00  0.00     0.000 C
ATOM      2  C2  A00 X   1      25.234  20.719  36.6770  0.00  0.00     0.000 C
ATOM      3  C3  A00 X   1      25.125  22.064  37.4680  0.00  0.00     0.000 C
ATOM      4  C4  A00 X   1      24.261  23.164  36.7990  0.00  0.00     0.000 C
ATOM      5  C5  A00 X   1      24.128  22.956  35.2910  0.00  0.00     0.000 C
ATOM      6  O5  A00 X   1      23.448  21.688  35.1540  0.00  0.00     0.000 O
ATOM      7   O  A00 X   1      26.432  22.613  37.6200  0.00  0.00     0.000 O
ATOM      9  HD  A00 X   1      25.900  23.269  37.4310  0.00  0.00     0.000 HD
ATOM      9   O  A00 X   1      22.964  23.241  37.3920  0.00  0.00     0.000 O
ATOM     11  HD  A00 X   1      22.432  23.898  37.2030  0.00  0.00     0.000 HD
ENDROOT
BRANCH 2 11
ATOM     11   O  A00 X   1      25.098  19.620  37.6000  0.00  0.00     0.000 O
ATOM     12   O  A00 X   1      26.271  19.568  39.6950  0.00  0.00     0.000 OA
ATOM     13   O  A00 X   1      27.539  19.524  37.6200  0.00  0.00     0.000 OA
ATOM     14   O  A00 X   1      26.196  17.665  38.2510  0.00  0.00     0.000 OA
ATOM     15   S  A00 X   1      26.374  19.089  38.3400  0.00  0.00     0.000 S
ENDBRANCH 2 11
BRANCH 5 16
ATOM     16   C  A00 X   1      25.442  23.035  34.5080  0.00  0.00     0.000 C
ATOM     17   O  A00 X   1      25.450  22.676  33.3480  0.00  0.00     0.000 OA
ATOM     18   O  A00 X   1      26.471  23.450  35.0020  0.00  0.00     0.000 OA
ENDBRANCH 5 16
BRANCH 1 19
ATOM     19  O4  A00 X   2      24.763  19.842  34.3840  0.00  0.00     0.000 O
BRANCH 19 23
ATOM     20  C1  A00 X   2      21.258  17.488  33.6480  0.00  0.00     0.000 C
ATOM     21  C2  A00 X   2      22.408  16.827  34.4470  0.00  0.00     0.000 C
ATOM     22  C3  A00 X   2      23.378  17.893  34.9960  0.00  0.00     0.000 C
ATOM     23  C4  A00 X   2      23.886  18.805  33.8570  0.00  0.00     0.000 C
ATOM     24  C5  A00 X   2      22.646  19.387  33.1260  0.00  0.00     0.000 C
ATOM     25  O5  A00 X   2      21.858  18.290  32.5960  0.00  0.00     0.000 O
ATOM     26   O  A00 X   2      24.385  17.238  35.7860  0.00  0.00     0.000 O
ATOM     28  HD  A00 X   2      24.565  16.659  35.1670  0.00  0.00     0.000 HD
BRANCH 21 30
ATOM     28   N  A00 X   2      22.062  15.552  33.8120  0.00  0.00     0.000 N
ATOM     30  HD  A00 X   2      22.569  15.365  34.4890  0.00  0.00     0.000 HD
ATOM     30   O  A00 X   2      22.550  13.834  35.3190  0.00  0.00     0.000 OA
ATOM     31   S  A00 X   2      23.001  14.304  34.0570  0.00  0.00     0.000 S
ATOM     32   O  A00 X   2      22.713  13.442  32.9530  0.00  0.00     0.000 OA
ATOM     33   O  A00 X   2      24.353  14.771  33.9830  0.00  0.00     0.000 OA
ENDBRANCH 21 30
BRANCH 24 34
ATOM     34   C  A00 X   2      22.876  20.512  32.0890  0.00  0.00     0.000 C
ATOM     35   O  A00 X   2      22.140  20.195  28.5370  0.00  0.00     0.000 OA
ATOM     36   O  A00 X   2      22.836  19.998  30.7430  0.00  0.00     0.000 O
ATOM     37   O  A00 X   2      20.555  19.825  30.2530  0.00  0.00     0.000 OA
ATOM     38   S  A00 X   2      21.694  20.584  29.8350  0.00  0.00     0.000 S
ATOM     39   O  A00 X   2      21.673  21.996  30.0710  0.00  0.00     0.000 OA
ENDBRANCH 24 34
BRANCH 20 40
ATOM     40  O4  A00 X   3      20.582  18.345  34.5790  0.00  0.00     0.000 O
BRANCH 40 44
ATOM     41  C1  A00 X   3      18.986  21.518  35.2940  0.00  0.00     0.000 C
ATOM     42  C2  A00 X   3      19.156  20.369  36.3110  0.00  0.00     0.000 C
ATOM     43  C3  A00 X   3      18.647  19.028  35.7250  0.00  0.00     0.000 C
ATOM     44  C4  A00 X   3      19.199  18.690  34.3450  0.00  0.00     0.000 C
ATOM     45  C5  A00 X   3      18.987  19.889  33.3790  0.00  0.00     0.000 C
ATOM     46  O5  A00 X   3      19.471  21.135  33.9770  0.00  0.00     0.000 O
ATOM     47   O  A00 X   3      18.676  17.910  36.6100  0.00  0.00     0.000 O
ATOM     49  HD  A00 X   3      18.924  17.492  35.8940  0.00  0.00     0.000 HD
BRANCH 42 49
ATOM     49   O  A00 X   3      20.560  20.302  36.6430  0.00  0.00     0.000 O
ATOM     50   O  A00 X   3      21.954  18.918  38.0110  0.00  0.00     0.000 OA
ATOM     51   O  A00 X   3      19.841  19.583  38.8390  0.00  0.00     0.000 OA
ATOM     52   O  A00 X   3      21.518  21.228  38.5770  0.00  0.00     0.000 OA
ATOM     53   S  A00 X   3      21.011  19.988  38.0990  0.00  0.00     0.000 S
ENDBRANCH 42 49
BRANCH 45 54
ATOM     54   C  A00 X   3      17.534  19.977  32.8950  0.00  0.00     0.000 C
ATOM     55   O  A00 X   3      17.177  20.885  32.1720  0.00  0.00     0.000 OA
ATOM     56   O  A00 X   3      16.712  19.138  33.2290  0.00  0.00     0.000 OA
ENDBRANCH 45 54
BRANCH 41 57
ATOM     57  O4  A00 X   4      17.637  22.036  35.2940  0.00  0.00     0.000 O
BRANCH 57 61
ATOM     58  C1  A00 X   4      15.997  25.977  34.6470  0.00  0.00     0.000 C
ATOM     59  C2  A00 X   4      16.750  25.287  33.4830  0.00  0.00     0.000 C
ATOM     60  C3  A00 X   4      16.969  23.777  33.7020  0.00  0.00     0.000 C
ATOM     61  C4  A00 X   4      17.527  23.476  35.1090  0.00  0.00     0.000 C
ATOM     62  C5  A00 X   4      16.512  24.070  36.1170  0.00  0.00     0.000 C
ATOM     63  O5  A00 X   4      16.449  25.509  35.9380  0.00  0.00     0.000 O
BRANCH 59 66
ATOM     64   N  A00 X   4      18.104  25.713  33.0840  0.00  0.00     0.000 N
ATOM     66  HD  A00 X   4      18.643  25.972  33.7110  0.00  0.00     0.000 HD
ATOM     66   O  A00 X   4      17.091  27.658  32.0900  0.00  0.00     0.000 OA
ATOM     67   S  A00 X   4      18.243  26.825  31.9420  0.00  0.00     0.000 S
ATOM     68   O  A00 X   4      19.490  27.425  32.3160  0.00  0.00     0.000 OA
ATOM     69   O  A00 X   4      18.318  25.986  30.7800  0.00  0.00     0.000 OA
ENDBRANCH 59 66
BRANCH 62 70
ATOM     70   C  A00 X   4      16.843  23.773  37.5980  0.00  0.00     0.000 C
ATOM     71   O  A00 X   4      19.571  25.052  39.6070  0.00  0.00     0.000 OA
ATOM     72   O  A00 X   4      18.798  22.849  39.2920  0.00  0.00     0.000 OA
ATOM     73   O  A00 X   4      17.859  24.683  38.0500  0.00  0.00     0.000 O
ATOM     74   O  A00 X   4      20.091  23.934  37.5340  0.00  0.00     0.000 OA
ATOM     75   S  A00 X   4      19.184  24.075  38.6280  0.00  0.00     0.000 S
ENDBRANCH 62 70
ENDBRANCH 57 61
ENDBRANCH 41 57
ENDBRANCH 40 44
ENDBRANCH 20 40
ENDBRANCH 19 23
ENDBRANCH 1 19
TORSDOF 14
ENDMDL
MODEL 29
REMARK VINA RESULT:      -2.9     32.087     35.734
ROOT
ATOM      1  C1  A00 X   1      20.376  46.307  13.1990  0.00  0.00     0.000 C
ATOM      2  C2  A00 X   1      19.737  46.982  11.9560  0.00  0.00     0.000 C
ATOM      3  C3  A00 X   1      18.298  46.500  11.5750  0.00  0.00     0.000 C
ATOM      4  C4  A00 X   1      17.839  45.176  12.2390  0.00  0.00     0.000 C
ATOM      5  C5  A00 X   1      19.020  44.318  12.6920  0.00  0.00     0.000 C
ATOM      6  O5  A00 X   1      19.698  45.122  13.6840  0.00  0.00     0.000 O
ATOM      7   O  A00 X   1      18.246  46.286  10.1660  0.00  0.00     0.000 O
ATOM      9  HD  A00 X   1      17.815  45.634  10.5400  0.00  0.00     0.000 HD
ATOM      9   O  A00 X   1      16.969  45.421  13.3430  0.00  0.00     0.000 O
ATOM     11  HD  A00 X   1      16.537  44.769  13.7170  0.00  0.00     0.000 HD
ENDROOT
BRANCH 2 11
ATOM     11   O  A00 X   1      19.708  48.403  12.1950  0.00  0.00     0.000 O
ATOM     12   O  A00 X   1      19.222  49.316  14.3630  0.00  0.00     0.000 OA
ATOM     13   O  A00 X   1      17.509  48.042  13.1970  0.00  0.00     0.000 OA
ATOM     14   O  A00 X   1      18.193  50.170  12.3820  0.00  0.00     0.000 OA
ATOM     15   S  A00 X   1      18.582  48.994  13.1130  0.00  0.00     0.000 S
ENDBRANCH 2 11
BRANCH 5 16
ATOM     16   C  A00 X   1      19.938  43.832  11.5660  0.00  0.00     0.000 C
ATOM     17   O  A00 X   1      19.543  43.908  10.4210  0.00  0.00     0.000 OA
ATOM     18   O  A00 X   1      21.046  43.381  11.7780  0.00  0.00     0.000 OA
ENDBRANCH 5 16
BRANCH 1 19
ATOM     19  O4  A00 X   2      21.797  46.076  13.0430  0.00  0.00     0.000 O
BRANCH 19 23
ATOM     20  C1  A00 X   2      22.636  45.597  17.2190  0.00  0.00     0.000 C
ATOM     21  C2  A00 X   2      22.555  47.041  16.6670  0.00  0.00     0.000 C
ATOM     22  C3  A00 X   2      21.837  47.068  15.3020  0.00  0.00     0.000 C
ATOM     23  C4  A00 X   2      22.507  46.086  14.3150  0.00  0.00     0.000 C
ATOM     24  C5  A00 X   2      22.544  44.687  14.9890  0.00  0.00     0.000 C
ATOM     25  O5  A00 X   2      23.306  44.782  16.2210  0.00  0.00     0.000 O
ATOM     26   O  A00 X   2      21.726  48.434  14.8660  0.00  0.00     0.000 O
ATOM     28  HD  A00 X   2      22.566  48.598  15.0010  0.00  0.00     0.000 HD
BRANCH 21 30
ATOM     28   N  A00 X   2      21.895  48.337  16.8550  0.00  0.00     0.000 N
ATOM     30  HD  A00 X   2      22.501  48.273  17.4700  0.00  0.00     0.000 HD
ATOM     30   O  A00 X   2      23.246  49.646  18.2420  0.00  0.00     0.000 OA
ATOM     31   S  A00 X   2      21.969  49.026  18.2760  0.00  0.00     0.000 S
ATOM     32   O  A00 X   2      20.859  49.929  18.2720  0.00  0.00     0.000 OA
ATOM     33   O  A00 X   2      21.771  47.999  19.2550  0.00  0.00     0.000 OA
ENDBRANCH 21 30
BRANCH 24 34
ATOM     34   C  A00 X   2      22.957  43.474  14.1230  0.00  0.00     0.000 C
ATOM     35   O  A00 X   2      25.668  41.194  14.9650  0.00  0.00     0.000 OA
ATOM     36   O  A00 X   2      24.256  42.978  14.5050  0.00  0.00     0.000 O
ATOM     37   O  A00 X   2      23.842  41.662  16.3940  0.00  0.00     0.000 OA
ATOM     38   S  A00 X   2      24.277  41.499  15.0400  0.00  0.00     0.000 S
ATOM     39   O  A00 X   2      23.440  40.738  14.1620  0.00  0.00     0.000 OA
ENDBRANCH 24 34
BRANCH 20 40
ATOM     40  O4  A00 X   3      21.277  45.160  17.3620  0.00  0.00     0.000 O
BRANCH 40 44
ATOM     41  C1  A00 X   3      18.356  43.016  17.3590  0.00  0.00     0.000 C
ATOM     42  C2  A00 X   3      18.417  44.421  17.9980  0.00  0.00     0.000 C
ATOM     43  C3  A00 X   3      19.643  44.551  18.9370  0.00  0.00     0.000 C
ATOM     44  C4  A00 X   3      20.966  44.121  18.3150  0.00  0.00     0.000 C
ATOM     45  C5  A00 X   3      20.827  42.700  17.6990  0.00  0.00     0.000 C
ATOM     46  O5  A00 X   3      19.652  42.620  16.8290  0.00  0.00     0.000 O
ATOM     47   O  A00 X   3      19.753  45.781  19.6510  0.00  0.00     0.000 O
ATOM     49  HD  A00 X   3      20.595  45.677  19.4770  0.00  0.00     0.000 HD
BRANCH 42 49
ATOM     49   O  A00 X   3      18.476  45.376  16.9150  0.00  0.00     0.000 O
ATOM     50   O  A00 X   3      18.715  47.749  16.7100  0.00  0.00     0.000 OA
ATOM     51   O  A00 X   3      17.305  46.886  18.4010  0.00  0.00     0.000 OA
ATOM     52   O  A00 X   3      16.647  46.630  16.1450  0.00  0.00     0.000 OA
ATOM     53   S  A00 X   3      17.749  46.747  17.0360  0.00  0.00     0.000 S
ENDBRANCH 42 49
BRANCH 45 54
ATOM     54   C  A00 X   3      20.855  41.610  18.7770  0.00  0.00     0.000 C
ATOM     55   O  A00 X   3      20.749  41.897  19.9520  0.00  0.00     0.000 OA
ATOM     56   O  A00 X   3      20.987  40.434  18.4730  0.00  0.00     0.000 OA
ENDBRANCH 45 54
BRANCH 41 57
ATOM     57  O4  A00 X   4      17.767  42.047  18.2540  0.00  0.00     0.000 O
BRANCH 57 61
ATOM     58  C1  A00 X   4      15.503  38.426  17.6180  0.00  0.00     0.000 C
ATOM     59  C2  A00 X   4      17.015  38.424  17.2810  0.00  0.00     0.000 C
ATOM     60  C3  A00 X   4      17.779  39.625  17.8750  0.00  0.00     0.000 C
ATOM     61  C4  A00 X   4      17.051  40.959  17.6030  0.00  0.00     0.000 C
ATOM     62  C5  A00 X   4      15.633  40.813  18.2080  0.00  0.00     0.000 C
ATOM     63  O5  A00 X   4      14.928  39.749  17.5180  0.00  0.00     0.000 O
BRANCH 59 66
ATOM     64   N  A00 X   4      18.234  37.669  16.9400  0.00  0.00     0.000 N
ATOM     66  HD  A00 X   4      18.790  38.035  16.3850  0.00  0.00     0.000 HD
ATOM     66   O  A00 X   4      16.826  36.142  15.7210  0.00  0.00     0.000 OA
ATOM     67   S  A00 X   4      18.072  36.164  16.4210  0.00  0.00     0.000 S
ATOM     68   O  A00 X   4      19.243  36.046  15.6010  0.00  0.00     0.000 OA
ATOM     69   O  A00 X   4      18.154  35.457  17.6670  0.00  0.00     0.000 OA
ENDBRANCH 59 66
BRANCH 62 70
ATOM     70   C  A00 X   4      14.777  42.100  18.1320  0.00  0.00     0.000 C
ATOM     71   O  A00 X   4      13.410  43.736  15.2060  0.00  0.00     0.000 OA
ATOM     72   O  A00 X   4      14.635  44.606  17.0190  0.00  0.00     0.000 OA
ATOM     73   O  A00 X   4      14.251  42.242  16.8030  0.00  0.00     0.000 O
ATOM     74   O  A00 X   4      15.784  43.326  15.2930  0.00  0.00     0.000 OA
ATOM     75   S  A00 X   4      14.579  43.561  16.0210  0.00  0.00     0.000 S
ENDBRANCH 62 70
ENDBRANCH 57 61
ENDBRANCH 41 57
ENDBRANCH 40 44
ENDBRANCH 20 40
ENDBRANCH 19 23
ENDBRANCH 1 19
TORSDOF 14
ENDMDL
MODEL 30
REMARK VINA RESULT:      -2.7     34.481     38.542
ROOT
ATOM      1  C1  A00 X   1      20.408  47.086  14.6480  0.00  0.00     0.000 C
ATOM      2  C2  A00 X   1      20.752  46.853  13.1520  0.00  0.00     0.000 C
ATOM      3  C3  A00 X   1      19.752  45.957  12.3490  0.00  0.00     0.000 C
ATOM      4  C4  A00 X   1      18.765  45.124  13.2050  0.00  0.00     0.000 C
ATOM      5  C5  A00 X   1      19.280  44.901  14.6270  0.00  0.00     0.000 C
ATOM      6  O5  A00 X   1      19.377  46.227  15.1940  0.00  0.00     0.000 O
ATOM      7   O  A00 X   1      20.498  45.026  11.5690  0.00  0.00     0.000 O
ATOM      9  HD  A00 X   1      19.822  44.598  11.9010  0.00  0.00     0.000 HD
ATOM      9   O  A00 X   1      17.473  45.729  13.2500  0.00  0.00     0.000 O
ATOM     11  HD  A00 X   1      16.797  45.301  13.5820  0.00  0.00     0.000 HD
ENDROOT
BRANCH 2 11
ATOM     11   O  A00 X   1      20.841  48.143  12.5170  0.00  0.00     0.000 O
ATOM     12   O  A00 X   1      21.606  48.395  10.2550  0.00  0.00     0.000 OA
ATOM     13   O  A00 X   1      23.137  47.540  11.9410  0.00  0.00     0.000 OA
ATOM     14   O  A00 X   1      22.405  49.802  12.0140  0.00  0.00     0.000 OA
ATOM     15   S  A00 X   1      22.082  48.459  11.6140  0.00  0.00     0.000 S
ENDBRANCH 2 11
BRANCH 5 16
ATOM     16   C  A00 X   1      20.579  44.095  14.7270  0.00  0.00     0.000 C
ATOM     17   O  A00 X   1      21.154  44.050  15.7950  0.00  0.00     0.000 OA
ATOM     18   O  A00 X   1      21.048  43.495  13.7800  0.00  0.00     0.000 OA
ENDBRANCH 5 16
BRANCH 1 19
ATOM     19  O4  A00 X   2      21.582  47.107  15.4970  0.00  0.00     0.000 O
BRANCH 19 23
ATOM     20  C1  A00 X   2      20.053  50.208  18.0280  0.00  0.00     0.000 C
ATOM     21  C2  A00 X   2      21.081  50.613  16.9440  0.00  0.00     0.000 C
ATOM     22  C3  A00 X   2      21.202  49.517  15.8650  0.00  0.00     0.000 C
ATOM     23  C4  A00 X   2      21.518  48.150  16.5120  0.00  0.00     0.000 C
ATOM     24  C5  A00 X   2      20.432  47.870  17.5870  0.00  0.00     0.000 C
ATOM     25  O5  A00 X   2      20.471  48.930  18.5770  0.00  0.00     0.000 O
ATOM     26   O  A00 X   2      22.114  49.968  14.8490  0.00  0.00     0.000 O
ATOM     28  HD  A00 X   2      22.725  50.185  15.4230  0.00  0.00     0.000 HD
BRANCH 21 30
ATOM     28   N  A00 X   2      21.802  51.295  15.8650  0.00  0.00     0.000 N
ATOM     30  HD  A00 X   2      21.563  51.905  16.4320  0.00  0.00     0.000 HD
ATOM     30   O  A00 X   2      22.386  53.429  16.6160  0.00  0.00     0.000 OA
ATOM     31   S  A00 X   2      21.544  52.838  15.6380  0.00  0.00     0.000 S
ATOM     32   O  A00 X   2      21.950  53.053  14.2830  0.00  0.00     0.000 OA
ATOM     33   O  A00 X   2      20.135  53.056  15.7750  0.00  0.00     0.000 OA
ENDBRANCH 21 30
BRANCH 24 34
ATOM     34   C  A00 X   2      20.386  46.461  18.2220  0.00  0.00     0.000 C
ATOM     35   O  A00 X   2      20.608  45.828  21.8010  0.00  0.00     0.000 OA
ATOM     36   O  A00 X   2      20.845  46.488  19.5890  0.00  0.00     0.000 O
ATOM     37   O  A00 X   2      19.000  47.249  20.8080  0.00  0.00     0.000 OA
ATOM     38   S  A00 X   2      19.781  46.059  20.6630  0.00  0.00     0.000 S
ATOM     39   O  A00 X   2      19.127  44.896  20.1430  0.00  0.00     0.000 OA
ENDBRANCH 24 34
BRANCH 20 40
ATOM     40  O4  A00 X   3      18.805  50.049  17.3390  0.00  0.00     0.000 O
BRANCH 40 44
ATOM     41  C1  A00 X   3      15.755  48.161  16.8300  0.00  0.00     0.000 C
ATOM     42  C2  A00 X   3      16.139  49.438  16.0520  0.00  0.00     0.000 C
ATOM     43  C3  A00 X   3      16.538  50.580  17.0220  0.00  0.00     0.000 C
ATOM     44  C4  A00 X   3      17.569  50.187  18.0730  0.00  0.00     0.000 C
ATOM     45  C5  A00 X   3      17.110  48.900  18.8140  0.00  0.00     0.000 C
ATOM     46  O5  A00 X   3      16.734  47.854  17.8610  0.00  0.00     0.000 O
ATOM     47   O  A00 X   3      16.830  51.838  16.4170  0.00  0.00     0.000 O
ATOM     49  HD  A00 X   3      17.450  51.857  17.0210  0.00  0.00     0.000 HD
BRANCH 42 49
ATOM     49   O  A00 X   3      17.231  49.086  15.1740  0.00  0.00     0.000 O
ATOM     50   O  A00 X   3      18.554  50.203  13.5210  0.00  0.00     0.000 OA
ATOM     51   O  A00 X   3      16.225  50.607  13.5820  0.00  0.00     0.000 OA
ATOM     52   O  A00 X   3      16.982  48.467  12.9230  0.00  0.00     0.000 OA
ATOM     53   S  A00 X   3      17.265  49.616  13.7110  0.00  0.00     0.000 S
ENDBRANCH 42 49
BRANCH 45 54
ATOM     54   C  A00 X   3      16.015  49.199  19.8450  0.00  0.00     0.000 C
ATOM     55   O  A00 X   3      15.521  50.305  19.9200  0.00  0.00     0.000 OA
ATOM     56   O  A00 X   3      15.622  48.331  20.6090  0.00  0.00     0.000 OA
ENDBRANCH 45 54
BRANCH 41 57
ATOM     57  O4  A00 X   4      14.394  48.218  17.3120  0.00  0.00     0.000 O
BRANCH 57 61
ATOM     58  C1  A00 X   4      11.414  45.176  18.0200  0.00  0.00     0.000 C
ATOM     59  C2  A00 X   4      12.778  45.060  18.7450  0.00  0.00     0.000 C
ATOM     60  C3  A00 X   4      13.608  46.359  18.7040  0.00  0.00     0.000 C
ATOM     61  C4  A00 X   4      13.673  46.954  17.2810  0.00  0.00     0.000 C
ATOM     62  C5  A00 X   4      12.207  47.184  16.8370  0.00  0.00     0.000 C
ATOM     63  O5  A00 X   4      11.521  45.907  16.7770  0.00  0.00     0.000 O
BRANCH 59 66
ATOM     64   N  A00 X   4      13.375  44.024  17.8820  0.00  0.00     0.000 N
ATOM     66  HD  A00 X   4      13.038  43.919  17.0910  0.00  0.00     0.000 HD
ATOM     66   O  A00 X   4      12.406  42.383  19.3540  0.00  0.00     0.000 OA
ATOM     67   S  A00 X   4      13.514  42.541  18.4660  0.00  0.00     0.000 S
ATOM     68   O  A00 X   4      13.447  41.779  17.2530  0.00  0.00     0.000 OA
ATOM     69   O  A00 X   4      14.828  42.618  19.0400  0.00  0.00     0.000 OA
ENDBRANCH 59 66
BRANCH 62 70
ATOM     70   C  A00 X   4      12.064  47.883  15.4640  0.00  0.00     0.000 C
ATOM     71   O  A00 X   4      12.787  46.568  12.1700  0.00  0.00     0.000 OA
ATOM     72   O  A00 X   4      13.421  48.596  13.1860  0.00  0.00     0.000 OA
ATOM     73   O  A00 X   4      12.224  46.912  14.4180  0.00  0.00     0.000 O
ATOM     74   O  A00 X   4      14.529  46.525  13.8360  0.00  0.00     0.000 OA
ATOM     75   S  A00 X   4      13.347  47.161  13.3520  0.00  0.00     0.000 S
ENDBRANCH 62 70
ENDBRANCH 57 61
ENDBRANCH 41 57
ENDBRANCH 40 44
ENDBRANCH 20 40
ENDBRANCH 19 23
ENDBRANCH 1 19
TORSDOF 14
ENDMDL
MODEL 31
REMARK VINA RESULT:      -2.7     23.947     27.747
ROOT
ATOM      1  C1  A00 X   1      20.290  36.427  24.6210  0.00  0.00     0.000 C
ATOM      2  C2  A00 X   1      21.465  37.259  25.2010  0.00  0.00     0.000 C
ATOM      3  C3  A00 X   1      22.557  37.712  24.1770  0.00  0.00     0.000 C
ATOM      4  C4  A00 X   1      22.535  36.983  22.8090  0.00  0.00     0.000 C
ATOM      5  C5  A00 X   1      21.842  35.623  22.8910  0.00  0.00     0.000 C
ATOM      6  O5  A00 X   1      20.482  35.927  23.2750  0.00  0.00     0.000 O
ATOM      7   O  A00 X   1      23.843  37.471  24.7430  0.00  0.00     0.000 O
ATOM      9  HD  A00 X   1      23.884  37.239  23.9100  0.00  0.00     0.000 HD
ATOM      9   O  A00 X   1      21.913  37.781  21.8020  0.00  0.00     0.000 O
ATOM     11  HD  A00 X   1      21.954  37.548  20.9690  0.00  0.00     0.000 HD
ENDROOT
BRANCH 2 11
ATOM     11   O  A00 X   1      20.905  38.425  25.8370  0.00  0.00     0.000 O
ATOM     12   O  A00 X   1      19.003  39.576  24.9300  0.00  0.00     0.000 OA
ATOM     13   O  A00 X   1      21.076  39.517  23.6590  0.00  0.00     0.000 OA
ATOM     14   O  A00 X   1      20.941  40.754  25.6860  0.00  0.00     0.000 OA
ATOM     15   S  A00 X   1      20.443  39.627  24.9440  0.00  0.00     0.000 S
ENDBRANCH 2 11
BRANCH 5 16
ATOM     16   C  A00 X   1      22.524  34.602  23.8090  0.00  0.00     0.000 C
ATOM     17   O  A00 X   1      23.673  34.801  24.1450  0.00  0.00     0.000 OA
ATOM     18   O  A00 X   1      21.955  33.609  24.2150  0.00  0.00     0.000 OA
ENDBRANCH 5 16
BRANCH 1 19
ATOM     19  O4  A00 X   2      19.849  35.378  25.5170  0.00  0.00     0.000 O
BRANCH 19 23
ATOM     20  C1  A00 X   2      16.091  34.676  23.5800  0.00  0.00     0.000 C
ATOM     21  C2  A00 X   2      16.169  35.852  24.5840  0.00  0.00     0.000 C
ATOM     22  C3  A00 X   2      17.636  36.245  24.8570  0.00  0.00     0.000 C
ATOM     23  C4  A00 X   2      18.454  35.015  25.3090  0.00  0.00     0.000 C
ATOM     24  C5  A00 X   2      18.280  33.908  24.2330  0.00  0.00     0.000 C
ATOM     25  O5  A00 X   2      16.870  33.579  24.1260  0.00  0.00     0.000 O
ATOM     26   O  A00 X   2      17.652  37.381  25.7380  0.00  0.00     0.000 O
ATOM     28  HD  A00 X   2      17.112  37.012  26.3060  0.00  0.00     0.000 HD
BRANCH 21 30
ATOM     28   N  A00 X   2      15.903  37.291  24.6730  0.00  0.00     0.000 N
ATOM     30  HD  A00 X   2      15.140  36.890  24.7540  0.00  0.00     0.000 HD
ATOM     30   O  A00 X   2      13.766  37.582  25.5700  0.00  0.00     0.000 OA
ATOM     31   S  A00 X   2      14.448  37.815  24.3470  0.00  0.00     0.000 S
ATOM     32   O  A00 X   2      14.649  39.193  24.0210  0.00  0.00     0.000 OA
ATOM     33   O  A00 X   2      13.986  37.094  23.1980  0.00  0.00     0.000 OA
ENDBRANCH 21 30
BRANCH 24 34
ATOM     34   C  A00 X   2      19.180  32.654  24.3310  0.00  0.00     0.000 C
ATOM     35   O  A00 X   2      19.070  30.271  27.0810  0.00  0.00     0.000 OA
ATOM     36   O  A00 X   2      19.171  32.106  25.6640  0.00  0.00     0.000 O
ATOM     37   O  A00 X   2      17.193  30.863  25.7700  0.00  0.00     0.000 OA
ATOM     38   S  A00 X   2      18.607  30.643  25.7850  0.00  0.00     0.000 S
ATOM     39   O  A00 X   2      19.174  29.899  24.7010  0.00  0.00     0.000 OA
ENDBRANCH 24 34
BRANCH 20 40
ATOM     40  O4  A00 X   3      16.711  35.153  22.3770  0.00  0.00     0.000 O
BRANCH 40 44
ATOM     41  C1  A00 X   3      18.686  35.158  19.3400  0.00  0.00     0.000 C
ATOM     42  C2  A00 X   3      17.719  36.284  19.7620  0.00  0.00     0.000 C
ATOM     43  C3  A00 X   3      16.325  35.711  20.1280  0.00  0.00     0.000 C
ATOM     44  C4  A00 X   3      16.357  34.550  21.1130  0.00  0.00     0.000 C
ATOM     45  C5  A00 X   3      17.346  33.458  20.6180  0.00  0.00     0.000 C
ATOM     46  O5  A00 X   3      18.643  34.045  20.2750  0.00  0.00     0.000 O
ATOM     47   O  A00 X   3      15.322  36.672  20.4510  0.00  0.00     0.000 O
ATOM     49  HD  A00 X   3      15.107  36.081  21.0460  0.00  0.00     0.000 HD
BRANCH 42 49
ATOM     49   O  A00 X   3      18.322  36.962  20.8860  0.00  0.00     0.000 O
ATOM     50   O  A00 X   3      17.712  38.739  22.3700  0.00  0.00     0.000 OA
ATOM     51   O  A00 X   3      17.223  38.956  20.0670  0.00  0.00     0.000 OA
ATOM     52   O  A00 X   3      19.486  38.996  20.7460  0.00  0.00     0.000 OA
ATOM     53   S  A00 X   3      18.185  38.504  21.0410  0.00  0.00     0.000 S
ENDBRANCH 42 49
BRANCH 45 54
ATOM     54   C  A00 X   3      16.745  32.619  19.4840  0.00  0.00     0.000 C
ATOM     55   O  A00 X   3      17.197  31.525  19.2160  0.00  0.00     0.000 OA
ATOM     56   O  A00 X   3      15.802  33.037  18.8300  0.00  0.00     0.000 OA
ENDBRANCH 45 54
BRANCH 41 57
ATOM     57  O4  A00 X   4      18.489  34.774  17.9610  0.00  0.00     0.000 O
BRANCH 57 61
ATOM     58  C1  A00 X   4      21.055  32.951  15.0050  0.00  0.00     0.000 C
ATOM     59  C2  A00 X   4      20.587  32.096  16.2090  0.00  0.00     0.000 C
ATOM     60  C3  A00 X   4      19.411  32.721  16.9870  0.00  0.00     0.000 C
ATOM     61  C4  A00 X   4      19.660  34.212  17.3020  0.00  0.00     0.000 C
ATOM     62  C5  A00 X   4      19.897  34.912  15.9410  0.00  0.00     0.000 C
ATOM     63  O5  A00 X   4      21.088  34.362  15.3220  0.00  0.00     0.000 O
BRANCH 59 66
ATOM     64   N  A00 X   4      21.473  31.720  17.3260  0.00  0.00     0.000 N
ATOM     66  HD  A00 X   4      22.055  32.305  17.5890  0.00  0.00     0.000 HD
ATOM     66   O  A00 X   4      22.554  30.184  15.8180  0.00  0.00     0.000 OA
ATOM     67   S  A00 X   4      22.293  30.351  17.2140  0.00  0.00     0.000 S
ATOM     68   O  A00 X   4      23.434  30.667  18.0220  0.00  0.00     0.000 OA
ATOM     69   O  A00 X   4      21.364  29.449  17.8340  0.00  0.00     0.000 OA
ENDBRANCH 59 66
BRANCH 62 70
ATOM     70   C  A00 X   4      20.058  36.447  16.0390  0.00  0.00     0.000 C
ATOM     71   O  A00 X   4      22.722  38.347  17.5890  0.00  0.00     0.000 OA
ATOM     72   O  A00 X   4      20.384  38.536  17.7920  0.00  0.00     0.000 OA
ATOM     73   O  A00 X   4      21.378  36.757  16.5150  0.00  0.00     0.000 O
ATOM     74   O  A00 X   4      21.547  36.714  18.9180  0.00  0.00     0.000 OA
ATOM     75   S  A00 X   4      21.504  37.622  17.8170  0.00  0.00     0.000 S
ENDBRANCH 62 70
ENDBRANCH 57 61
ENDBRANCH 41 57
ENDBRANCH 40 44
ENDBRANCH 20 40
ENDBRANCH 19 23
ENDBRANCH 1 19
TORSDOF 14
ENDMDL
MODEL 32
REMARK VINA RESULT:      -2.1     22.469     25.957
ROOT
ATOM      1  C1  A00 X   1      21.691  37.527  26.4890  0.00  0.00     0.000 C
ATOM      2  C2  A00 X   1      21.233  38.307  27.7490  0.00  0.00     0.000 C
ATOM      3  C3  A00 X   1      22.370  38.936  28.6200  0.00  0.00     0.000 C
ATOM      4  C4  A00 X   1      23.799  38.406  28.3370  0.00  0.00     0.000 C
ATOM      5  C5  A00 X   1      23.783  37.026  27.6800  0.00  0.00     0.000 C
ATOM      6  O5  A00 X   1      23.108  37.228  26.4190  0.00  0.00     0.000 O
ATOM      7   O  A00 X   1      22.100  38.661  29.9930  0.00  0.00     0.000 O
ATOM      9  HD  A00 X   1      22.951  38.550  29.8720  0.00  0.00     0.000 HD
ATOM      9   O  A00 X   1      24.543  39.317  27.5280  0.00  0.00     0.000 O
ATOM     11  HD  A00 X   1      25.393  39.206  27.4070  0.00  0.00     0.000 HD
ENDROOT
BRANCH 2 11
ATOM     11   O  A00 X   1      20.340  39.353  27.3170  0.00  0.00     0.000 O
ATOM     12   O  A00 X   1      20.061  39.907  24.9970  0.00  0.00     0.000 OA
ATOM     13   O  A00 X   1      22.228  40.243  26.0490  0.00  0.00     0.000 OA
ATOM     14   O  A00 X   1      20.369  41.594  26.6620  0.00  0.00     0.000 OA
ATOM     15   S  A00 X   1      20.798  40.314  26.1670  0.00  0.00     0.000 S
ENDBRANCH 2 11
BRANCH 5 16
ATOM     16   C  A00 X   1      23.171  35.910  28.5320  0.00  0.00     0.000 C
ATOM     17   O  A00 X   1      22.936  34.841  28.0080  0.00  0.00     0.000 OA
ATOM     18   O  A00 X   1      22.918  36.055  29.7120  0.00  0.00     0.000 OA
ENDBRANCH 5 16
BRANCH 1 19
ATOM     19  O4  A00 X   2      20.889  36.348  26.2350  0.00  0.00     0.000 O
BRANCH 19 23
ATOM     20  C1  A00 X   2      18.254  35.339  23.0100  0.00  0.00     0.000 C
ATOM     21  C2  A00 X   2      19.765  35.444  22.6920  0.00  0.00     0.000 C
ATOM     22  C3  A00 X   2      20.605  35.378  23.9850  0.00  0.00     0.000 C
ATOM     23  C4  A00 X   2      20.129  36.445  24.9970  0.00  0.00     0.000 C
ATOM     24  C5  A00 X   2      18.604  36.245  25.2150  0.00  0.00     0.000 C
ATOM     25  O5  A00 X   2      17.925  36.403  23.9420  0.00  0.00     0.000 O
ATOM     26   O  A00 X   2      21.998  35.410  23.6320  0.00  0.00     0.000 O
ATOM     28  HD  A00 X   2      21.905  36.104  23.1220  0.00  0.00     0.000 HD
BRANCH 21 30
ATOM     28   N  A00 X   2      20.874  34.686  22.1040  0.00  0.00     0.000 N
ATOM     30  HD  A00 X   2      20.408  35.000  21.4450  0.00  0.00     0.000 HD
ATOM     30   O  A00 X   2      21.056  35.290  19.8540  0.00  0.00     0.000 OA
ATOM     31   S  A00 X   2      20.724  34.145  20.6260  0.00  0.00     0.000 S
ATOM     32   O  A00 X   2      21.671  33.076  20.5590  0.00  0.00     0.000 OA
ATOM     33   O  A00 X   2      19.390  33.638  20.4940  0.00  0.00     0.000 OA
ENDBRANCH 21 30
BRANCH 24 34
ATOM     34   C  A00 X   2      17.924  37.038  26.3560  0.00  0.00     0.000 C
ATOM     35   O  A00 X   2      15.801  35.534  28.9030  0.00  0.00     0.000 OA
ATOM     36   O  A00 X   2      16.883  36.263  26.9830  0.00  0.00     0.000 O
ATOM     37   O  A00 X   2      18.019  34.846  28.4570  0.00  0.00     0.000 OA
ATOM     38   S  A00 X   2      17.107  35.948  28.5070  0.00  0.00     0.000 S
ATOM     39   O  A00 X   2      17.566  37.163  29.1090  0.00  0.00     0.000 OA
ENDBRANCH 24 34
BRANCH 20 40
ATOM     40  O4  A00 X   3      18.080  34.068  23.6530  0.00  0.00     0.000 O
BRANCH 40 44
ATOM     41  C1  A00 X   3      16.905  31.403  25.8070  0.00  0.00     0.000 C
ATOM     42  C2  A00 X   3      17.731  31.194  24.5190  0.00  0.00     0.000 C
ATOM     43  C3  A00 X   3      17.101  31.957  23.3250  0.00  0.00     0.000 C
ATOM     44  C4  A00 X   3      16.790  33.422  23.6040  0.00  0.00     0.000 C
ATOM     45  C5  A00 X   3      15.954  33.550  24.9090  0.00  0.00     0.000 C
ATOM     46  O5  A00 X   3      16.579  32.806  26.0050  0.00  0.00     0.000 O
ATOM     47   O  A00 X   3      17.733  31.767  22.0610  0.00  0.00     0.000 O
ATOM     49  HD  A00 X   3      17.562  32.611  21.9750  0.00  0.00     0.000 HD
BRANCH 42 49
ATOM     49   O  A00 X   3      19.070  31.659  24.7960  0.00  0.00     0.000 O
ATOM     50   O  A00 X   3      21.108  31.904  23.5640  0.00  0.00     0.000 OA
ATOM     51   O  A00 X   3      19.807  29.956  23.2420  0.00  0.00     0.000 OA
ATOM     52   O  A00 X   3      20.882  30.262  25.3250  0.00  0.00     0.000 OA
ATOM     53   S  A00 X   3      20.300  30.912  24.2020  0.00  0.00     0.000 S
ENDBRANCH 42 49
BRANCH 45 54
ATOM     54   C  A00 X   3      14.486  33.169  24.6820  0.00  0.00     0.000 C
ATOM     55   O  A00 X   3      13.653  33.377  25.5400  0.00  0.00     0.000 OA
ATOM     56   O  A00 X   3      14.129  32.650  23.6360  0.00  0.00     0.000 OA
ENDBRANCH 45 54
BRANCH 41 57
ATOM     57  O4  A00 X   4      15.760  30.522  25.8550  0.00  0.00     0.000 O
BRANCH 57 61
ATOM     58  C1  A00 X   4      13.483  28.977  29.1820  0.00  0.00     0.000 C
ATOM     59  C2  A00 X   4      12.881  30.133  28.3440  0.00  0.00     0.000 C
ATOM     60  C3  A00 X   4      13.596  30.353  26.9960  0.00  0.00     0.000 C
ATOM     61  C4  A00 X   4      15.131  30.397  27.1620  0.00  0.00     0.000 C
ATOM     62  C5  A00 X   4      15.536  29.058  27.8260  0.00  0.00     0.000 C
ATOM     63  O5  A00 X   4      14.928  28.974  29.1400  0.00  0.00     0.000 O
BRANCH 59 66
ATOM     64   N  A00 X   4      12.968  31.440  29.0200  0.00  0.00     0.000 N
ATOM     66  HD  A00 X   4      13.630  31.565  29.5650  0.00  0.00     0.000 HD
ATOM     66   O  A00 X   4      11.032  30.796  30.2990  0.00  0.00     0.000 OA
ATOM     67   S  A00 X   4      11.683  31.971  29.8110  0.00  0.00     0.000 S
ATOM     68   O  A00 X   4      12.313  32.787  30.8080  0.00  0.00     0.000 OA
ATOM     69   O  A00 X   4      11.034  32.714  28.7680  0.00  0.00     0.000 OA
ENDBRANCH 59 66
BRANCH 62 70
ATOM     70   C  A00 X   4      17.064  28.864  27.9770  0.00  0.00     0.000 C
ATOM     71   O  A00 X   4      19.244  30.056  30.6100  0.00  0.00     0.000 OA
ATOM     72   O  A00 X   4      19.450  30.192  28.2690  0.00  0.00     0.000 OA
ATOM     73   O  A00 X   4      17.468  29.288  29.2890  0.00  0.00     0.000 O
ATOM     74   O  A00 X   4      17.885  31.657  29.4270  0.00  0.00     0.000 OA
ATOM     75   S  A00 X   4      18.566  30.403  29.3930  0.00  0.00     0.000 S
ENDBRANCH 62 70
ENDBRANCH 57 61
ENDBRANCH 41 57
ENDBRANCH 40 44
ENDBRANCH 20 40
ENDBRANCH 19 23
ENDBRANCH 1 19
TORSDOF 14
ENDMDL
MODEL 33
REMARK VINA RESULT:      -1.7     33.318     37.053
ROOT
ATOM      1  C1  A00 X   1      20.588  48.672  15.4810  0.00  0.00     0.000 C
ATOM      2  C2  A00 X   1      20.293  49.837  14.4990  0.00  0.00     0.000 C
ATOM      3  C3  A00 X   1      18.795  50.031  14.0920  0.00  0.00     0.000 C
ATOM      4  C4  A00 X   1      17.856  48.839  14.4110  0.00  0.00     0.000 C
ATOM      5  C5  A00 X   1      18.621  47.523  14.5520  0.00  0.00     0.000 C
ATOM      6  O5  A00 X   1      19.503  47.730  15.6780  0.00  0.00     0.000 O
ATOM      7   O  A00 X   1      18.727  50.234  12.6820  0.00  0.00     0.000 O
ATOM      9  HD  A00 X   1      18.072  49.709  12.8970  0.00  0.00     0.000 HD
ATOM      9   O  A00 X   1      17.090  49.080  15.5910  0.00  0.00     0.000 O
ATOM     11  HD  A00 X   1      16.435  48.556  15.8050  0.00  0.00     0.000 HD
ENDROOT
BRANCH 2 11
ATOM     11   O  A00 X   1      20.775  51.053  15.1050  0.00  0.00     0.000 O
ATOM     12   O  A00 X   1      20.453  51.524  17.4370  0.00  0.00     0.000 OA
ATOM     13   O  A00 X   1      18.514  51.343  15.9800  0.00  0.00     0.000 OA
ATOM     14   O  A00 X   1      20.025  53.166  15.7540  0.00  0.00     0.000 OA
ATOM     15   S  A00 X   1      19.868  51.792  16.1480  0.00  0.00     0.000 S
ENDBRANCH 2 11
BRANCH 5 16
ATOM     16   C  A00 X   1      19.344  47.055  13.2850  0.00  0.00     0.000 C
ATOM     17   O  A00 X   1      19.065  47.583  12.2280  0.00  0.00     0.000 OA
ATOM     18   O  A00 X   1      20.188  46.182  13.3010  0.00  0.00     0.000 OA
ENDBRANCH 5 16
BRANCH 1 19
ATOM     19  O4  A00 X   2      21.831  47.990  15.1850  0.00  0.00     0.000 O
BRANCH 19 23
ATOM     20  C1  A00 X   2      22.280  46.059  18.9850  0.00  0.00     0.000 C
ATOM     21  C2  A00 X   2      22.644  47.561  18.8990  0.00  0.00     0.000 C
ATOM     22  C3  A00 X   2      22.036  48.203  17.6350  0.00  0.00     0.000 C
ATOM     23  C4  A00 X   2      22.447  47.413  16.3720  0.00  0.00     0.000 C
ATOM     24  C5  A00 X   2      22.047  45.928  16.5900  0.00  0.00     0.000 C
ATOM     25  O5  A00 X   2      22.740  45.424  17.7620  0.00  0.00     0.000 O
ATOM     26   O  A00 X   2      22.343  49.607  17.6370  0.00  0.00     0.000 O
ATOM     28  HD  A00 X   2      23.186  49.474  17.7830  0.00  0.00     0.000 HD
BRANCH 21 30
ATOM     28   N  A00 X   2      22.325  48.833  19.5540  0.00  0.00     0.000 N
ATOM     30  HD  A00 X   2      22.902  48.430  20.0580  0.00  0.00     0.000 HD
ATOM     30   O  A00 X   2      23.968  49.257  21.1600  0.00  0.00     0.000 OA
ATOM     31   S  A00 X   2      22.578  48.971  21.1080  0.00  0.00     0.000 S
ATOM     32   O  A00 X   2      21.725  50.051  21.4960  0.00  0.00     0.000 OA
ATOM     33   O  A00 X   2      22.144  47.750  21.7180  0.00  0.00     0.000 OA
ENDBRANCH 21 30
BRANCH 24 34
ATOM     34   C  A00 X   2      22.141  44.966  15.3820  0.00  0.00     0.000 C
ATOM     35   O  A00 X   2      23.840  41.747  15.4630  0.00  0.00     0.000 OA
ATOM     36   O  A00 X   2      23.152  43.960  15.5920  0.00  0.00     0.000 O
ATOM     37   O  A00 X   2      22.112  42.368  16.9540  0.00  0.00     0.000 OA
ATOM     38   S  A00 X   2      22.626  42.478  15.6230  0.00  0.00     0.000 S
ATOM     39   O  A00 X   2      21.696  42.355  14.5410  0.00  0.00     0.000 OA
ENDBRANCH 24 34
BRANCH 20 40
ATOM     40  O4  A00 X   3      20.847  46.010  19.0410  0.00  0.00     0.000 O
BRANCH 40 44
ATOM     41  C1  A00 X   3      17.386  44.989  18.7180  0.00  0.00     0.000 C
ATOM     42  C2  A00 X   3      17.897  46.074  19.6910  0.00  0.00     0.000 C
ATOM     43  C3  A00 X   3      19.090  45.550  20.5310  0.00  0.00     0.000 C
ATOM     44  C4  A00 X   3      20.204  44.907  19.7160  0.00  0.00     0.000 C
ATOM     45  C5  A00 X   3      19.614  43.825  18.7680  0.00  0.00     0.000 C
ATOM     46  O5  A00 X   3      18.485  44.360  18.0030  0.00  0.00     0.000 O
ATOM     47   O  A00 X   3      19.589  46.440  21.5270  0.00  0.00     0.000 O
ATOM     49  HD  A00 X   3      20.352  46.126  21.2650  0.00  0.00     0.000 HD
BRANCH 42 49
ATOM     49   O  A00 X   3      18.275  47.215  18.8910  0.00  0.00     0.000 O
ATOM     50   O  A00 X   3      19.171  49.398  19.2990  0.00  0.00     0.000 OA
ATOM     51   O  A00 X   3      17.489  48.566  20.7380  0.00  0.00     0.000 OA
ATOM     52   O  A00 X   3      16.908  49.085  18.5060  0.00  0.00     0.000 OA
ATOM     53   S  A00 X   3      17.950  48.658  19.3750  0.00  0.00     0.000 S
ENDBRANCH 42 49
BRANCH 45 54
ATOM     54   C  A00 X   3      19.274  42.534  19.5220  0.00  0.00     0.000 C
ATOM     55   O  A00 X   3      19.184  42.530  20.7320  0.00  0.00     0.000 OA
ATOM     56   O  A00 X   3      19.090  41.488  18.9190  0.00  0.00     0.000 OA
ENDBRANCH 45 54
BRANCH 41 57
ATOM     57  O4  A00 X   4      16.503  44.054  19.3780  0.00  0.00     0.000 O
BRANCH 57 61
ATOM     58  C1  A00 X   4      13.785  41.091  17.8050  0.00  0.00     0.000 C
ATOM     59  C2  A00 X   4      15.146  40.620  18.3750  0.00  0.00     0.000 C
ATOM     60  C3  A00 X   4      15.863  41.692  19.2210  0.00  0.00     0.000 C
ATOM     61  C4  A00 X   4      15.893  43.060  18.5060  0.00  0.00     0.000 C
ATOM     62  C5  A00 X   4      14.417  43.434  18.2180  0.00  0.00     0.000 C
ATOM     63  O5  A00 X   4      13.843  42.451  17.3190  0.00  0.00     0.000 O
BRANCH 59 66
ATOM     64   N  A00 X   4      16.302  40.116  17.6120  0.00  0.00     0.000 N
ATOM     66  HD  A00 X   4      16.493  40.514  16.8670  0.00  0.00     0.000 HD
ATOM     66   O  A00 X   4      14.996  38.153  17.1220  0.00  0.00     0.000 OA
ATOM     67   S  A00 X   4      16.360  38.555  17.2670  0.00  0.00     0.000 S
ATOM     68   O  A00 X   4      17.127  38.586  16.0560  0.00  0.00     0.000 OA
ATOM     69   O  A00 X   4      17.083  38.071  18.4090  0.00  0.00     0.000 OA
ENDBRANCH 59 66
BRANCH 62 70
ATOM     70   C  A00 X   4      14.231  44.838  17.5960  0.00  0.00     0.000 C
ATOM     71   O  A00 X   4      14.700  45.870  14.1580  0.00  0.00     0.000 OA
ATOM     72   O  A00 X   4      15.489  46.816  16.1650  0.00  0.00     0.000 OA
ATOM     73   O  A00 X   4      14.283  44.734  16.1640  0.00  0.00     0.000 O
ATOM     74   O  A00 X   4      16.531  44.790  15.2980  0.00  0.00     0.000 OA
ATOM     75   S  A00 X   4      15.355  45.592  15.4060  0.00  0.00     0.000 S
ENDBRANCH 62 70
ENDBRANCH 57 61
ENDBRANCH 41 57
ENDBRANCH 40 44
ENDBRANCH 20 40
ENDBRANCH 19 23
ENDBRANCH 1 19
TORSDOF 14
ENDMDL
MODEL 34
REMARK VINA RESULT:      -1.3     19.013     27.657
ROOT
ATOM      1  C1  A00 X   1      29.530  17.187  39.8290  0.00  0.00     0.000 C
ATOM      2  C2  A00 X   1      29.915  16.562  41.1960  0.00  0.00     0.000 C
ATOM      3  C3  A00 X   1      28.726  16.072  42.0870  0.00  0.00     0.000 C
ATOM      4  C4  A00 X   1      27.325  16.593  41.6770  0.00  0.00     0.000 C
ATOM      5  C5  A00 X   1      27.405  17.879  40.8550  0.00  0.00     0.000 C
ATOM      6  O5  A00 X   1      28.127  17.506  39.6600  0.00  0.00     0.000 O
ATOM      7   O  A00 X   1      28.946  16.511  43.4250  0.00  0.00     0.000 O
ATOM      9  HD  A00 X   1      28.104  16.625  43.2540  0.00  0.00     0.000 HD
ATOM      9   O  A00 X   1      26.591  15.604  40.9550  0.00  0.00     0.000 O
ATOM     11  HD  A00 X   1      25.750  15.717  40.7840  0.00  0.00     0.000 HD
ENDROOT
BRANCH 2 11
ATOM     11   O  A00 X   1      30.797  15.452  40.9380  0.00  0.00     0.000 O
ATOM     12   O  A00 X   1      31.815  14.198  42.7150  0.00  0.00     0.000 OA
ATOM     13   O  A00 X   1      32.381  16.548  42.4390  0.00  0.00     0.000 OA
ATOM     14   O  A00 X   1      33.073  14.944  40.8250  0.00  0.00     0.000 OA
ATOM     15   S  A00 X   1      32.087  15.289  41.8130  0.00  0.00     0.000 S
ENDBRANCH 2 11
BRANCH 5 16
ATOM     16   C  A00 X   1      28.011  19.080  41.5880  0.00  0.00     0.000 C
ATOM     17   O  A00 X   1      28.085  19.045  42.7990  0.00  0.00     0.000 OA
ATOM     18   O  A00 X   1      28.427  20.059  41.0020  0.00  0.00     0.000 OA
ENDBRANCH 5 16
BRANCH 1 19
ATOM     19  O4  A00 X   2      30.374  18.308  39.4670  0.00  0.00     0.000 O
BRANCH 19 23
ATOM     20  C1  A00 X   2      30.400  17.339  35.2930  0.00  0.00     0.000 C
ATOM     21  C2  A00 X   2      31.605  16.869  36.1430  0.00  0.00     0.000 C
ATOM     22  C3  A00 X   2      31.262  16.899  37.6470  0.00  0.00     0.000 C
ATOM     23  C4  A00 X   2      30.745  18.296  38.0590  0.00  0.00     0.000 C
ATOM     24  C5  A00 X   2      29.557  18.657  37.1260  0.00  0.00     0.000 C
ATOM     25  O5  A00 X   2      30.027  18.666  35.7530  0.00  0.00     0.000 O
ATOM     26   O  A00 X   2      32.385  16.391  38.3870  0.00  0.00     0.000 O
ATOM     28  HD  A00 X   2      32.949  16.910  37.9840  0.00  0.00     0.000 HD
BRANCH 21 30
ATOM     28   N  A00 X   2      32.466  17.095  34.9780  0.00  0.00     0.000 N
ATOM     30  HD  A00 X   2      32.917  16.606  35.5330  0.00  0.00     0.000 HD
ATOM     30   O  A00 X   2      34.211  15.542  35.0520  0.00  0.00     0.000 OA
ATOM     31   S  A00 X   2      34.031  16.947  35.1520  0.00  0.00     0.000 S
ATOM     32   O  A00 X   2      34.565  17.704  34.0620  0.00  0.00     0.000 OA
ATOM     33   O  A00 X   2      34.378  17.559  36.4000  0.00  0.00     0.000 OA
ENDBRANCH 21 30
BRANCH 24 34
ATOM     34   C  A00 X   2      28.713  19.905  37.4760  0.00  0.00     0.000 C
ATOM     35   O  A00 X   2      30.070  23.271  37.7650  0.00  0.00     0.000 OA
ATOM     36   O  A00 X   2      29.551  21.011  37.8650  0.00  0.00     0.000 O
ATOM     37   O  A00 X   2      30.300  21.914  35.8420  0.00  0.00     0.000 OA
ATOM     38   S  A00 X   2      29.460  22.280  36.9410  0.00  0.00     0.000 S
ATOM     39   O  A00 X   2      28.069  22.486  36.6730  0.00  0.00     0.000 OA
ENDBRANCH 24 34
BRANCH 20 40
ATOM     40  O4  A00 X   3      29.339  16.416  35.5800  0.00  0.00     0.000 O
BRANCH 40 44
ATOM     41  C1  A00 X   3      25.827  15.888  36.2930  0.00  0.00     0.000 C
ATOM     42  C2  A00 X   3      26.890  14.770  36.2320  0.00  0.00     0.000 C
ATOM     43  C3  A00 X   3      27.712  14.856  34.9200  0.00  0.00     0.000 C
ATOM     44  C4  A00 X   3      28.279  16.237  34.6170  0.00  0.00     0.000 C
ATOM     45  C5  A00 X   3      27.150  17.303  34.6920  0.00  0.00     0.000 C
ATOM     46  O5  A00 X   3      26.395  17.179  35.9400  0.00  0.00     0.000 O
ATOM     47   O  A00 X   3      28.669  13.818  34.7160  0.00  0.00     0.000 O
ATOM     49  HD  A00 X   3      29.144  14.471  34.4030  0.00  0.00     0.000 HD
BRANCH 42 49
ATOM     49   O  A00 X   3      27.734  14.926  37.3950  0.00  0.00     0.000 O
ATOM     50   O  A00 X   3      29.696  13.866  38.2660  0.00  0.00     0.000 OA
ATOM     51   O  A00 X   3      27.994  12.521  37.3270  0.00  0.00     0.000 OA
ATOM     52   O  A00 X   3      27.548  13.648  39.3560  0.00  0.00     0.000 OA
ATOM     53   S  A00 X   3      28.285  13.675  38.1390  0.00  0.00     0.000 S
ENDBRANCH 42 49
BRANCH 45 54
ATOM     54   C  A00 X   3      26.260  17.276  33.4430  0.00  0.00     0.000 C
ATOM     55   O  A00 X   3      25.322  18.039  33.3360  0.00  0.00     0.000 OA
ATOM     56   O  A00 X   3      26.478  16.487  32.5370  0.00  0.00     0.000 OA
ENDBRANCH 45 54
BRANCH 41 57
ATOM     57  O4  A00 X   4      24.645  15.541  35.5370  0.00  0.00     0.000 O
BRANCH 57 61
ATOM     58  C1  A00 X   4      20.610  16.884  36.2800  0.00  0.00     0.000 C
ATOM     59  C2  A00 X   4      21.190  17.036  34.8520  0.00  0.00     0.000 C
ATOM     60  C3  A00 X   4      22.473  16.211  34.6190  0.00  0.00     0.000 C
ATOM     61  C4  A00 X   4      23.492  16.401  35.7620  0.00  0.00     0.000 C
ATOM     62  C5  A00 X   4      22.765  15.993  37.0670  0.00  0.00     0.000 C
ATOM     63  O5  A00 X   4      21.645  16.887  37.2900  0.00  0.00     0.000 O
BRANCH 59 66
ATOM     64   N  A00 X   4      21.436  17.918  33.6970  0.00  0.00     0.000 N
ATOM     66  HD  A00 X   4      22.033  18.539  33.7870  0.00  0.00     0.000 HD
ATOM     66   O  A00 X   4      19.263  18.876  34.0930  0.00  0.00     0.000 OA
ATOM     67   S  A00 X   4      20.183  18.651  33.0240  0.00  0.00     0.000 S
ATOM     68   O  A00 X   4      20.821  19.823  32.5000  0.00  0.00     0.000 OA
ATOM     69   O  A00 X   4      19.828  17.680  32.0270  0.00  0.00     0.000 OA
ENDBRANCH 59 66
BRANCH 62 70
ATOM     70   C  A00 X   4      23.666  16.011  38.3250  0.00  0.00     0.000 C
ATOM     71   O  A00 X   4      24.334  13.332  40.6670  0.00  0.00     0.000 OA
ATOM     72   O  A00 X   4      23.700  15.570  41.0360  0.00  0.00     0.000 OA
ATOM     73   O  A00 X   4      23.832  14.669  38.8100  0.00  0.00     0.000 O
ATOM     74   O  A00 X   4      22.042  13.961  40.2590  0.00  0.00     0.000 OA
ATOM     75   S  A00 X   4      23.411  14.365  40.2900  0.00  0.00     0.000 S
ENDBRANCH 62 70
ENDBRANCH 57 61
ENDBRANCH 41 57
ENDBRANCH 40 44
ENDBRANCH 20 40
ENDBRANCH 19 23
ENDBRANCH 1 19
TORSDOF 14
ENDMDL
MODEL 35
REMARK VINA RESULT:      -1.2     11.139     17.557
ROOT
ATOM      1  C1  A00 X   1      21.066  11.850  28.5560  0.00  0.00     0.000 C
ATOM      2  C2  A00 X   1      19.884  12.613  29.2110  0.00  0.00     0.000 C
ATOM      3  C3  A00 X   1      19.444  12.115  30.6270  0.00  0.00     0.000 C
ATOM      4  C4  A00 X   1      19.978  10.719  31.0400  0.00  0.00     0.000 C
ATOM      5  C5  A00 X   1      20.363   9.867  29.8310  0.00  0.00     0.000 C
ATOM      6  O5  A00 X   1      21.433  10.600  29.1920  0.00  0.00     0.000 O
ATOM      7   O  A00 X   1      18.021  12.031  30.6600  0.00  0.00     0.000 O
ATOM      9  HD  A00 X   1      18.328  11.332  31.0690  0.00  0.00     0.000 HD
ATOM      9   O  A00 X   1      21.090  10.827  31.9280  0.00  0.00     0.000 O
ATOM     11  HD  A00 X   1      21.397  10.128  32.3370  0.00  0.00     0.000 HD
ENDROOT
BRANCH 2 11
ATOM     11   O  A00 X   1      20.254  14.003  29.2960  0.00  0.00     0.000 O
ATOM     12   O  A00 X   1      22.545  14.716  29.2090  0.00  0.00     0.000 OA
ATOM     13   O  A00 X   1      21.798  13.334  31.0660  0.00  0.00     0.000 OA
ATOM     14   O  A00 X   1      21.026  15.573  30.8430  0.00  0.00     0.000 OA
ATOM     15   S  A00 X   1      21.503  14.404  30.1540  0.00  0.00     0.000 S
ENDBRANCH 2 11
BRANCH 5 16
ATOM     16   C  A00 X   1      19.207   9.522  28.8860  0.00  0.00     0.000 C
ATOM     17   O  A00 X   1      19.463   9.001  27.8210  0.00  0.00     0.000 OA
ATOM     18   O  A00 X   1      18.046   9.745  29.1680  0.00  0.00     0.000 OA
ENDBRANCH 5 16
BRANCH 1 19
ATOM     19  O4  A00 X   2      20.906  11.687  27.1250  0.00  0.00     0.000 O
BRANCH 19 23
ATOM     20  C1  A00 X   2      23.778  11.102  24.0000  0.00  0.00     0.000 C
ATOM     21  C2  A00 X   2      23.427   9.882  24.8850  0.00  0.00     0.000 C
ATOM     22  C3  A00 X   2      22.107  10.119  25.6490  0.00  0.00     0.000 C
ATOM     23  C4  A00 X   2      22.170  11.441  26.4460  0.00  0.00     0.000 C
ATOM     24  C5  A00 X   2      22.547  12.576  25.4550  0.00  0.00     0.000 C
ATOM     25  O5  A00 X   2      23.835  12.270  24.8620  0.00  0.00     0.000 O
ATOM     26   O  A00 X   2      21.791   8.935  26.4000  0.00  0.00     0.000 O
ATOM     28  HD  A00 X   2      22.580   8.887  26.7540  0.00  0.00     0.000 HD
BRANCH 21 30
ATOM     28   N  A00 X   2      23.301   8.642  25.6580  0.00  0.00     0.000 N
ATOM     30  HD  A00 X   2      23.739   8.445  24.9380  0.00  0.00     0.000 HD
ATOM     30   O  A00 X   2      24.837   7.098  24.8130  0.00  0.00     0.000 OA
ATOM     31   S  A00 X   2      23.429   7.260  24.9010  0.00  0.00     0.000 S
ATOM     32   O  A00 X   2      22.768   6.336  25.7700  0.00  0.00     0.000 OA
ATOM     33   O  A00 X   2      22.711   7.385  23.6680  0.00  0.00     0.000 OA
ENDBRANCH 21 30
BRANCH 24 34
ATOM     34   C  A00 X   2      22.451  14.037  25.9540  0.00  0.00     0.000 C
ATOM     35   O  A00 X   2      20.462  16.621  24.3340  0.00  0.00     0.000 OA
ATOM     36   O  A00 X   2      21.897  14.900  24.9410  0.00  0.00     0.000 O
ATOM     37   O  A00 X   2      19.588  14.555  25.0830  0.00  0.00     0.000 OA
ATOM     38   S  A00 X   2      20.540  15.596  25.3230  0.00  0.00     0.000 S
ATOM     39   O  A00 X   2      20.688  16.062  26.6690  0.00  0.00     0.000 OA
ENDBRANCH 24 34
BRANCH 20 40
ATOM     40  O4  A00 X   3      22.687  11.239  23.0780  0.00  0.00     0.000 O
BRANCH 40 44
ATOM     41  C1  A00 X   3      21.017  11.738  19.9020  0.00  0.00     0.000 C
ATOM     42  C2  A00 X   3      22.504  11.357  20.0640  0.00  0.00     0.000 C
ATOM     43  C3  A00 X   3      23.217  12.311  21.0560  0.00  0.00     0.000 C
ATOM     44  C4  A00 X   3      22.499  12.493  22.3870  0.00  0.00     0.000 C
ATOM     45  C5  A00 X   3      21.013  12.879  22.1420  0.00  0.00     0.000 C
ATOM     46  O5  A00 X   3      20.384  11.959  21.1930  0.00  0.00     0.000 O
ATOM     47   O  A00 X   3      24.620  12.107  21.2180  0.00  0.00     0.000 O
ATOM     49  HD  A00 X   3      24.435  12.281  22.0460  0.00  0.00     0.000 HD
BRANCH 42 49
ATOM     49   O  A00 X   3      22.543   9.989  20.5270  0.00  0.00     0.000 O
ATOM     50   O  A00 X   3      24.240   8.387  21.0590  0.00  0.00     0.000 OA
ATOM     51   O  A00 X   3      24.516   9.749  19.1460  0.00  0.00     0.000 OA
ATOM     52   O  A00 X   3      22.805   8.118  19.1320  0.00  0.00     0.000 OA
ATOM     53   S  A00 X   3      23.583   8.990  19.9420  0.00  0.00     0.000 S
ENDBRANCH 42 49
BRANCH 45 54
ATOM     54   C  A00 X   3      20.869  14.352  21.7410  0.00  0.00     0.000 C
ATOM     55   O  A00 X   3      19.771  14.840  21.5650  0.00  0.00     0.000 OA
ATOM     56   O  A00 X   3      21.853  15.059  21.5900  0.00  0.00     0.000 OA
ENDBRANCH 45 54
BRANCH 41 57
ATOM     57  O4  A00 X   4      20.843  12.828  18.9690  0.00  0.00     0.000 O
BRANCH 57 61
ATOM     58  C1  A00 X   4      17.835  13.736  16.0090  0.00  0.00     0.000 C
ATOM     59  C2  A00 X   4      17.466  13.873  17.5070  0.00  0.00     0.000 C
ATOM     60  C3  A00 X   4      18.691  13.878  18.4440  0.00  0.00     0.000 C
ATOM     61  C4  A00 X   4      19.669  12.729  18.1150  0.00  0.00     0.000 C
ATOM     62  C5  A00 X   4      20.069  12.910  16.6290  0.00  0.00     0.000 C
ATOM     63  O5  A00 X   4      18.889  12.770  15.7970  0.00  0.00     0.000 O
BRANCH 59 66
ATOM     64   N  A00 X   4      16.559  13.131  18.4010  0.00  0.00     0.000 N
ATOM     66  HD  A00 X   4      16.595  12.266  18.3780  0.00  0.00     0.000 HD
ATOM     66   O  A00 X   4      14.742  13.862  17.0010  0.00  0.00     0.000 OA
ATOM     67   S  A00 X   4      14.998  13.476  18.3530  0.00  0.00     0.000 S
ATOM     68   O  A00 X   4      14.442  12.215  18.7500  0.00  0.00     0.000 OA
ATOM     69   O  A00 X   4      14.932  14.493  19.3640  0.00  0.00     0.000 OA
ENDBRANCH 59 66
BRANCH 62 70
ATOM     70   C  A00 X   4      21.140  11.908  16.1370  0.00  0.00     0.000 C
ATOM     71   O  A00 X   4      24.494  12.583  14.9520  0.00  0.00     0.000 OA
ATOM     72   O  A00 X   4      22.775  11.268  14.0250  0.00  0.00     0.000 OA
ATOM     73   O  A00 X   4      22.399  12.587  16.0010  0.00  0.00     0.000 O
ATOM     74   O  A00 X   4      22.646  13.696  13.8760  0.00  0.00     0.000 OA
ATOM     75   S  A00 X   4      23.102  12.554  14.5990  0.00  0.00     0.000 S
ENDBRANCH 62 70
ENDBRANCH 57 61
ENDBRANCH 41 57
ENDBRANCH 40 44
ENDBRANCH 20 40
ENDBRANCH 19 23
ENDBRANCH 1 19
TORSDOF 14
ENDMDL
MODEL 36
REMARK VINA RESULT:      -1.1     52.518     57.840
ROOT
ATOM      1  C1  A00 X   1      54.743   8.597  48.3920  0.00  0.00     0.000 C
ATOM      2  C2  A00 X   1      53.195   8.487  48.4200  0.00  0.00     0.000 C
ATOM      3  C3  A00 X   1      52.601   7.073  48.1140  0.00  0.00     0.000 C
ATOM      4  C4  A00 X   1      53.582   6.061  47.4680  0.00  0.00     0.000 C
ATOM      5  C5  A00 X   1      54.746   6.756  46.7610  0.00  0.00     0.000 C
ATOM      6  O5  A00 X   1      55.440   7.467  47.8110  0.00  0.00     0.000 O
ATOM      7   O  A00 X   1      51.514   7.222  47.2020  0.00  0.00     0.000 O
ATOM      9  HD  A00 X   1      51.965   6.526  46.9510  0.00  0.00     0.000 HD
ATOM      9   O  A00 X   1      54.085   5.136  48.4310  0.00  0.00     0.000 O
ATOM     11  HD  A00 X   1      54.536   4.440  48.1800  0.00  0.00     0.000 HD
ENDROOT
BRANCH 2 11
ATOM     11   O  A00 X   1      52.749   8.911  49.7230  0.00  0.00     0.000 O
ATOM     12   O  A00 X   1      50.459   8.700  50.4120  0.00  0.00     0.000 OA
ATOM     13   O  A00 X   1      51.012  10.174  48.5580  0.00  0.00     0.000 OA
ATOM     14   O  A00 X   1      51.697  10.713  50.7710  0.00  0.00     0.000 OA
ATOM     15   S  A00 X   1      51.376   9.657  49.8490  0.00  0.00     0.000 S
ENDBRANCH 2 11
BRANCH 5 16
ATOM     16   C  A00 X   1      54.348   7.644  45.5780  0.00  0.00     0.000 C
ATOM     17   O  A00 X   1      55.175   8.405  45.1190  0.00  0.00     0.000 OA
ATOM     18   O  A00 X   1      53.240   7.609  45.0800  0.00  0.00     0.000 OA
ENDBRANCH 5 16
BRANCH 1 19
ATOM     19  O4  A00 X   2      55.207   9.849  47.8310  0.00  0.00     0.000 O
BRANCH 19 23
ATOM     20  C1  A00 X   2      58.391  10.290  50.6650  0.00  0.00     0.000 C
ATOM     21  C2  A00 X   2      57.080  11.068  50.9360  0.00  0.00     0.000 C
ATOM     22  C3  A00 X   2      55.916  10.489  50.1060  0.00  0.00     0.000 C
ATOM     23  C4  A00 X   2      56.287  10.443  48.6060  0.00  0.00     0.000 C
ATOM     24  C5  A00 X   2      57.620   9.657  48.4720  0.00  0.00     0.000 C
ATOM     25  O5  A00 X   2      58.646  10.342  49.2360  0.00  0.00     0.000 O
ATOM     26   O  A00 X   2      54.711  11.197  50.4430  0.00  0.00     0.000 O
ATOM     28  HD  A00 X   2      55.077  11.974  50.3310  0.00  0.00     0.000 HD
BRANCH 21 30
ATOM     28   N  A00 X   2      57.885  12.151  51.5090  0.00  0.00     0.000 N
ATOM     30  HD  A00 X   2      57.068  12.286  51.7610  0.00  0.00     0.000 HD
ATOM     30   O  A00 X   2      56.632  13.175  53.1950  0.00  0.00     0.000 OA
ATOM     31   S  A00 X   2      57.164  13.497  51.9180  0.00  0.00     0.000 S
ATOM     32   O  A00 X   2      58.224  14.458  51.9310  0.00  0.00     0.000 OA
ATOM     33   O  A00 X   2      56.225  13.806  50.8820  0.00  0.00     0.000 OA
ENDBRANCH 21 30
BRANCH 24 34
ATOM     34   C  A00 X   2      58.094   9.269  47.0510  0.00  0.00     0.000 C
ATOM     35   O  A00 X   2      61.183  10.458  45.5340  0.00  0.00     0.000 OA
ATOM     36   O  A00 X   2      59.140  10.148  46.5910  0.00  0.00     0.000 O
ATOM     37   O  A00 X   2      61.079   9.329  47.6100  0.00  0.00     0.000 OA
ATOM     38   S  A00 X   2      60.520   9.453  46.2980  0.00  0.00     0.000 S
ATOM     39   O  A00 X   2      60.223   8.247  45.5870  0.00  0.00     0.000 OA
ENDBRANCH 24 34
BRANCH 20 40
ATOM     40  O4  A00 X   3      58.126   8.935  51.0560  0.00  0.00     0.000 O
BRANCH 40 44
ATOM     41  C1  A00 X   3      58.448   5.420  50.2410  0.00  0.00     0.000 C
ATOM     42  C2  A00 X   3      57.718   5.972  51.4850  0.00  0.00     0.000 C
ATOM     43  C3  A00 X   3      58.615   6.975  52.2550  0.00  0.00     0.000 C
ATOM     44  C4  A00 X   3      59.230   8.068  51.3910  0.00  0.00     0.000 C
ATOM     45  C5  A00 X   3      59.949   7.436  50.1650  0.00  0.00     0.000 C
ATOM     46  O5  A00 X   3      59.070   6.489  49.4750  0.00  0.00     0.000 O
ATOM     47   O  A00 X   3      58.075   7.485  53.4730  0.00  0.00     0.000 O
ATOM     49  HD  A00 X   3      58.445   8.218  53.1990  0.00  0.00     0.000 HD
BRANCH 42 49
ATOM     49   O  A00 X   3      56.503   6.600  51.0190  0.00  0.00     0.000 O
ATOM     50   O  A00 X   3      54.700   7.827  52.0040  0.00  0.00     0.000 OA
ATOM     51   O  A00 X   3      55.538   5.927  53.1340  0.00  0.00     0.000 OA
ATOM     52   O  A00 X   3      54.377   5.608  51.1010  0.00  0.00     0.000 OA
ATOM     53   S  A00 X   3      55.194   6.495  51.8540  0.00  0.00     0.000 S
ENDBRANCH 42 49
BRANCH 45 54
ATOM     54   C  A00 X   3      61.303   6.830  50.5520  0.00  0.00     0.000 C
ATOM     55   O  A00 X   3      62.053   6.396  49.7020  0.00  0.00     0.000 OA
ATOM     56   O  A00 X   3      61.651   6.771  51.7220  0.00  0.00     0.000 OA
ENDBRANCH 45 54
BRANCH 41 57
ATOM     57  O4  A00 X   4      59.348   4.343  50.5840  0.00  0.00     0.000 O
BRANCH 57 61
ATOM     58  C1  A00 X   4      60.586   0.771  48.4990  0.00  0.00     0.000 C
ATOM     59  C2  A00 X   4      60.908   2.148  47.8670  0.00  0.00     0.000 C
ATOM     60  C3  A00 X   4      60.749   3.327  48.8480  0.00  0.00     0.000 C
ATOM     61  C4  A00 X   4      59.412   3.258  49.6150  0.00  0.00     0.000 C
ATOM     62  C5  A00 X   4      59.396   1.890  50.3410  0.00  0.00     0.000 C
ATOM     63  O5  A00 X   4      59.421   0.827  49.3540  0.00  0.00     0.000 O
BRANCH 59 66
ATOM     64   N  A00 X   4      60.006   2.471  46.7470  0.00  0.00     0.000 N
ATOM     66  HD  A00 X   4      59.206   2.140  46.7690  0.00  0.00     0.000 HD
ATOM     66   O  A00 X   4      61.383   1.063  45.3620  0.00  0.00     0.000 OA
ATOM     67   S  A00 X   4      60.519   2.197  45.2570  0.00  0.00     0.000 S
ATOM     68   O  A00 X   4      59.271   1.962  44.5920  0.00  0.00     0.000 OA
ATOM     69   O  A00 X   4      61.116   3.468  44.9570  0.00  0.00     0.000 OA
ENDBRANCH 59 66
BRANCH 62 70
ATOM     70   C  A00 X   4      58.170   1.677  51.2610  0.00  0.00     0.000 C
ATOM     71   O  A00 X   4      54.701   1.210  50.3370  0.00  0.00     0.000 OA
ATOM     72   O  A00 X   4      55.688   2.655  51.9130  0.00  0.00     0.000 OA
ATOM     73   O  A00 X   4      57.039   1.290  50.4640  0.00  0.00     0.000 O
ATOM     74   O  A00 X   4      55.853   3.171  49.5370  0.00  0.00     0.000 OA
ATOM     75   S  A00 X   4      55.745   2.172  50.5510  0.00  0.00     0.000 S
ENDBRANCH 62 70
ENDBRANCH 57 61
ENDBRANCH 41 57
ENDBRANCH 40 44
ENDBRANCH 20 40
ENDBRANCH 19 23
ENDBRANCH 1 19
TORSDOF 14
ENDMDL
MODEL 37
REMARK VINA RESULT:      -1.1     72.743     78.933
ROOT
ATOM      1  C1  A00 X   1      81.586  23.562  37.5330  0.00  0.00     0.000 C
ATOM      2  C2  A00 X   1      81.002  24.299  38.7680  0.00  0.00     0.000 C
ATOM      3  C3  A00 X   1      81.941  25.346  39.4520  0.00  0.00     0.000 C
ATOM      4  C4  A00 X   1      83.438  25.260  39.0570  0.00  0.00     0.000 C
ATOM      5  C5  A00 X   1      83.815  23.878  38.5230  0.00  0.00     0.000 C
ATOM      6  O5  A00 X   1      83.013  23.714  37.3320  0.00  0.00     0.000 O
ATOM      7   O  A00 X   1      81.884  25.159  40.8640  0.00  0.00     0.000 O
ATOM      9  HD  A00 X   1      82.712  25.305  40.6590  0.00  0.00     0.000 HD
ATOM      9   O  A00 X   1      83.783  26.259  38.0970  0.00  0.00     0.000 O
ATOM     11  HD  A00 X   1      84.612  26.405  37.8930  0.00  0.00     0.000 HD
ENDROOT
BRANCH 2 11
ATOM     11   O  A00 X   1      79.789  24.957  38.3530  0.00  0.00     0.000 O
ATOM     12   O  A00 X   1      78.605  26.467  39.7970  0.00  0.00     0.000 OA
ATOM     13   O  A00 X   1      78.799  24.125  40.4250  0.00  0.00     0.000 OA
ATOM     14   O  A00 X   1      77.471  24.765  38.5580  0.00  0.00     0.000 OA
ATOM     15   S  A00 X   1      78.609  25.088  39.3760  0.00  0.00     0.000 S
ENDBRANCH 2 11
BRANCH 5 16
ATOM     16   C  A00 X   1      83.663  22.731  39.5270  0.00  0.00     0.000 C
ATOM     17   O  A00 X   1      83.738  21.590  39.1220  0.00  0.00     0.000 OA
ATOM     18   O  A00 X   1      83.478  22.924  40.7130  0.00  0.00     0.000 OA
ENDBRANCH 5 16
BRANCH 1 19
ATOM     19  O4  A00 X   2      81.188  22.171  37.4690  0.00  0.00     0.000 O
BRANCH 19 23
ATOM     20  C1  A00 X   2      80.665  22.197  33.2160  0.00  0.00     0.000 C
ATOM     21  C2  A00 X   2      79.402  22.379  34.0920  0.00  0.00     0.000 C
ATOM     22  C3  A00 X   2      79.786  22.779  35.5330  0.00  0.00     0.000 C
ATOM     23  C4  A00 X   2      80.789  21.765  36.1290  0.00  0.00     0.000 C
ATOM     24  C5  A00 X   2      81.993  21.659  35.1530  0.00  0.00     0.000 C
ATOM     25  O5  A00 X   2      81.509  21.207  33.8620  0.00  0.00     0.000 O
ATOM     26   O  A00 X   2      78.582  23.003  36.2860  0.00  0.00     0.000 O
ATOM     28  HD  A00 X   2      78.231  22.249  36.0450  0.00  0.00     0.000 HD
BRANCH 21 30
ATOM     28   N  A00 X   2      78.641  21.635  33.0840  0.00  0.00     0.000 N
ATOM     30  HD  A00 X   2      78.063  22.038  33.5880  0.00  0.00     0.000 HD
ATOM     30   O  A00 X   2      76.455  22.462  33.0670  0.00  0.00     0.000 OA
ATOM     31   S  A00 X   2      77.137  21.260  33.3940  0.00  0.00     0.000 S
ATOM     32   O  A00 X   2      76.875  20.160  32.5180  0.00  0.00     0.000 OA
ATOM     33   O  A00 X   2      77.080  20.832  34.7600  0.00  0.00     0.000 OA
ENDBRANCH 21 30
BRANCH 24 34
ATOM     34   C  A00 X   2      83.244  20.883  35.6270  0.00  0.00     0.000 C
ATOM     35   O  A00 X   2      84.474  17.838  34.0560  0.00  0.00     0.000 OA
ATOM     36   O  A00 X   2      83.283  19.558  35.0610  0.00  0.00     0.000 O
ATOM     37   O  A00 X   2      84.126  19.873  32.9020  0.00  0.00     0.000 OA
ATOM     38   S  A00 X   2      84.519  19.261  34.1350  0.00  0.00     0.000 S
ATOM     39   O  A00 X   2      85.666  19.796  34.8050  0.00  0.00     0.000 OA
ENDBRANCH 24 34
BRANCH 20 40
ATOM     40  O4  A00 X   3      81.327  23.469  33.2200  0.00  0.00     0.000 O
BRANCH 40 44
ATOM     41  C1  A00 X   3      84.445  25.293  33.5050  0.00  0.00     0.000 C
ATOM     42  C2  A00 X   3      83.056  25.945  33.3310  0.00  0.00     0.000 C
ATOM     43  C3  A00 X   3      82.293  25.316  32.1360  0.00  0.00     0.000 C
ATOM     44  C4  A00 X   3      82.240  23.794  32.1500  0.00  0.00     0.000 C
ATOM     45  C5  A00 X   3      83.672  23.213  32.3240  0.00  0.00     0.000 C
ATOM     46  O5  A00 X   3      84.358  23.842  33.4540  0.00  0.00     0.000 O
ATOM     47   O  A00 X   3      81.030  25.902  31.8260  0.00  0.00     0.000 O
ATOM     49  HD  A00 X   3      80.809  25.076  31.6860  0.00  0.00     0.000 HD
BRANCH 42 49
ATOM     49   O  A00 X   3      82.341  25.757  34.5720  0.00  0.00     0.000 O
ATOM     50   O  A00 X   3      80.157  26.270  35.4080  0.00  0.00     0.000 OA
ATOM     51   O  A00 X   3      81.284  27.882  34.0950  0.00  0.00     0.000 OA
ATOM     52   O  A00 X   3      82.130  27.390  36.2470  0.00  0.00     0.000 OA
ATOM     53   S  A00 X   3      81.418  26.882  35.1250  0.00  0.00     0.000 S
ENDBRANCH 42 49
BRANCH 45 54
ATOM     54   C  A00 X   3      84.474  23.281  31.0190  0.00  0.00     0.000 C
ATOM     55   O  A00 X   3      84.032  23.865  30.0500  0.00  0.00     0.000 OA
ATOM     56   O  A00 X   3      85.569  22.748  30.9290  0.00  0.00     0.000 OA
ENDBRANCH 45 54
BRANCH 41 57
ATOM     57  O4  A00 X   4      85.417  25.855  32.5960  0.00  0.00     0.000 O
BRANCH 57 61
ATOM     58  C1  A00 X   4      89.658  26.598  32.9180  0.00  0.00     0.000 C
ATOM     59  C2  A00 X   4      89.151  25.138  33.0170  0.00  0.00     0.000 C
ATOM     60  C3  A00 X   4      87.697  24.957  32.5350  0.00  0.00     0.000 C
ATOM     61  C4  A00 X   4      86.756  26.017  33.1450  0.00  0.00     0.000 C
ATOM     62  C5  A00 X   4      87.335  27.397  32.7460  0.00  0.00     0.000 C
ATOM     63  O5  A00 X   4      88.652  27.550  33.3350  0.00  0.00     0.000 O
BRANCH 59 66
ATOM     64   N  A00 X   4      89.155  24.677  34.4170  0.00  0.00     0.000 N
ATOM     66  HD  A00 X   4      89.053  25.275  35.0350  0.00  0.00     0.000 HD
ATOM     66   O  A00 X   4      91.508  24.232  34.1590  0.00  0.00     0.000 OA
ATOM     67   S  A00 X   4      90.382  23.780  34.9160  0.00  0.00     0.000 S
ATOM     68   O  A00 X   4      90.400  24.118  36.3090  0.00  0.00     0.000 OA
ATOM     69   O  A00 X   4      89.868  22.470  34.6350  0.00  0.00     0.000 OA
ENDBRANCH 59 66
BRANCH 62 70
ATOM     70   C  A00 X   4      86.461  28.599  33.1760  0.00  0.00     0.000 C
ATOM     71   O  A00 X   4      85.827  29.854  36.5120  0.00  0.00     0.000 OA
ATOM     72   O  A00 X   4      84.343  29.348  34.7560  0.00  0.00     0.000 OA
ATOM     73   O  A00 X   4      86.695  28.883  34.5650  0.00  0.00     0.000 O
ATOM     74   O  A00 X   4      85.347  27.538  36.0420  0.00  0.00     0.000 OA
ATOM     75   S  A00 X   4      85.463  28.867  35.5350  0.00  0.00     0.000 S
ENDBRANCH 62 70
ENDBRANCH 57 61
ENDBRANCH 41 57
ENDBRANCH 40 44
ENDBRANCH 20 40
ENDBRANCH 19 23
ENDBRANCH 1 19
TORSDOF 14
ENDMDL
MODEL 38
REMARK VINA RESULT:      -1.1     78.780     85.119
ROOT
ATOM      1  C1  A00 X   1      73.289  51.786  58.7930  0.00  0.00     0.000 C
ATOM      2  C2  A00 X   1      72.660  53.205  58.7740  0.00  0.00     0.000 C
ATOM      3  C3  A00 X   1      71.117  53.277  59.0170  0.00  0.00     0.000 C
ATOM      4  C4  A00 X   1      70.355  51.933  58.8800  0.00  0.00     0.000 C
ATOM      5  C5  A00 X   1      71.118  50.923  58.0240  0.00  0.00     0.000 C
ATOM      6  O5  A00 X   1      72.348  50.685  58.7450  0.00  0.00     0.000 O
ATOM      7   O  A00 X   1      70.544  54.166  58.0610  0.00  0.00     0.000 O
ATOM      9  HD  A00 X   1      70.010  53.488  58.1310  0.00  0.00     0.000 HD
ATOM      9   O  A00 X   1      70.068  51.364  60.1570  0.00  0.00     0.000 O
ATOM     11  HD  A00 X   1      69.534  50.686  60.2270  0.00  0.00     0.000 HD
ENDROOT
BRANCH 2 11
ATOM     11   O  A00 X   1      73.331  53.995  59.7760  0.00  0.00     0.000 O
ATOM     12   O  A00 X   1      72.592  56.205  60.3560  0.00  0.00     0.000 OA
ATOM     13   O  A00 X   1      73.417  55.777  58.1080  0.00  0.00     0.000 OA
ATOM     14   O  A00 X   1      74.898  55.714  59.9670  0.00  0.00     0.000 OA
ATOM     15   S  A00 X   1      73.546  55.525  59.5170  0.00  0.00     0.000 S
ENDBRANCH 2 11
BRANCH 5 16
ATOM     16   C  A00 X   1      71.333  51.340  56.5660  0.00  0.00     0.000 C
ATOM     17   O  A00 X   1      72.105  50.697  55.8850  0.00  0.00     0.000 OA
ATOM     18   O  A00 X   1      70.755  52.285  56.0660  0.00  0.00     0.000 OA
ENDBRANCH 5 16
BRANCH 1 19
ATOM     19  O4  A00 X   2      74.341  51.625  57.8100  0.00  0.00     0.000 O
BRANCH 19 23
ATOM     20  C1  A00 X   2      76.820  49.272  60.3940  0.00  0.00     0.000 C
ATOM     21  C2  A00 X   2      77.128  50.785  60.2920  0.00  0.00     0.000 C
ATOM     22  C3  A00 X   2      75.928  51.551  59.6970  0.00  0.00     0.000 C
ATOM     23  C4  A00 X   2      75.504  50.933  58.3460  0.00  0.00     0.000 C
ATOM     24  C5  A00 X   2      75.244  49.419  58.5780  0.00  0.00     0.000 C
ATOM     25  O5  A00 X   2      76.464  48.804  59.0660  0.00  0.00     0.000 O
ATOM     26   O  A00 X   2      76.237  52.956  59.6860  0.00  0.00     0.000 O
ATOM     28  HD  A00 X   2      77.004  52.836  59.3020  0.00  0.00     0.000 HD
BRANCH 21 30
ATOM     28   N  A00 X   2      78.551  50.467  60.4430  0.00  0.00     0.000 N
ATOM     30  HD  A00 X   2      78.468  51.316  60.5890  0.00  0.00     0.000 HD
ATOM     30   O  A00 X   2      79.580  52.245  61.5550  0.00  0.00     0.000 OA
ATOM     31   S  A00 X   2      79.610  51.628  60.2760  0.00  0.00     0.000 S
ATOM     32   O  A00 X   2      80.824  50.938  59.9670  0.00  0.00     0.000 OA
ATOM     33   O  A00 X   2      79.193  52.425  59.1610  0.00  0.00     0.000 OA
ENDBRANCH 21 30
BRANCH 24 34
ATOM     34   C  A00 X   2      74.585  48.613  57.4340  0.00  0.00     0.000 C
ATOM     35   O  A00 X   2      76.173  45.810  55.7360  0.00  0.00     0.000 OA
ATOM     36   O  A00 X   2      75.558  47.817  56.7280  0.00  0.00     0.000 O
ATOM     37   O  A00 X   2      75.852  45.928  58.0760  0.00  0.00     0.000 OA
ATOM     38   S  A00 X   2      75.324  46.263  56.7890  0.00  0.00     0.000 S
ATOM     39   O  A00 X   2      73.924  46.055  56.5720  0.00  0.00     0.000 OA
ENDBRANCH 24 34
BRANCH 20 40
ATOM     40  O4  A00 X   3      75.681  49.166  61.2610  0.00  0.00     0.000 O
BRANCH 40 44
ATOM     41  C1  A00 X   3      72.459  47.656  61.9390  0.00  0.00     0.000 C
ATOM     42  C2  A00 X   3      73.135  48.722  62.8280  0.00  0.00     0.000 C
ATOM     43  C3  A00 X   3      74.594  48.319  63.1640  0.00  0.00     0.000 C
ATOM     44  C4  A00 X   3      75.437  47.925  61.9580  0.00  0.00     0.000 C
ATOM     45  C5  A00 X   3      74.693  46.848  61.1180  0.00  0.00     0.000 C
ATOM     46  O5  A00 X   3      73.319  47.265  60.8330  0.00  0.00     0.000 O
ATOM     47   O  A00 X   3      75.291  49.190  64.0530  0.00  0.00     0.000 O
ATOM     49  HD  A00 X   3      75.953  49.019  63.5220  0.00  0.00     0.000 HD
BRANCH 42 49
ATOM     49   O  A00 X   3      73.086  49.970  62.1030  0.00  0.00     0.000 O
ATOM     50   O  A00 X   3      73.858  52.209  62.4530  0.00  0.00     0.000 OA
ATOM     51   O  A00 X   3      72.905  51.033  64.2690  0.00  0.00     0.000 OA
ATOM     52   O  A00 X   3      71.503  51.664  62.4740  0.00  0.00     0.000 OA
ATOM     53   S  A00 X   3      72.825  51.307  62.8560  0.00  0.00     0.000 S
ENDBRANCH 42 49
BRANCH 45 54
ATOM     54   C  A00 X   3      74.781  45.462  61.7680  0.00  0.00     0.000 C
ATOM     55   O  A00 X   3      74.396  44.475  61.1750  0.00  0.00     0.000 OA
ATOM     56   O  A00 X   3      75.238  45.326  62.8930  0.00  0.00     0.000 OA
ENDBRANCH 45 54
BRANCH 41 57
ATOM     57  O4  A00 X   4      71.965  46.544  62.7200  0.00  0.00     0.000 O
BRANCH 57 61
ATOM     58  C1  A00 X   4      68.531  43.960  62.3160  0.00  0.00     0.000 C
ATOM     59  C2  A00 X   4      69.600  43.953  61.1950  0.00  0.00     0.000 C
ATOM     60  C3  A00 X   4      70.926  44.623  61.6060  0.00  0.00     0.000 C
ATOM     61  C4  A00 X   4      70.692  45.994  62.2770  0.00  0.00     0.000 C
ATOM     62  C5  A00 X   4      69.770  45.732  63.4930  0.00  0.00     0.000 C
ATOM     63  O5  A00 X   4      68.496  45.220  63.0240  0.00  0.00     0.000 O
BRANCH 59 66
ATOM     64   N  A00 X   4      69.129  44.713  60.0220  0.00  0.00     0.000 N
ATOM     66  HD  A00 X   4      68.566  45.356  60.1620  0.00  0.00     0.000 HD
ATOM     66   O  A00 X   4      67.903  42.747  59.3670  0.00  0.00     0.000 OA
ATOM     67   S  A00 X   4      68.520  43.899  58.7880  0.00  0.00     0.000 S
ATOM     68   O  A00 X   4      67.619  44.877  58.2520  0.00  0.00     0.000 OA
ATOM     69   O  A00 X   4      69.706  43.700  58.0050  0.00  0.00     0.000 OA
ENDBRANCH 59 66
BRANCH 62 70
ATOM     70   C  A00 X   4      69.506  46.981  64.3680  0.00  0.00     0.000 C
ATOM     71   O  A00 X   4      67.558  49.927  63.5720  0.00  0.00     0.000 OA
ATOM     72   O  A00 X   4      69.732  49.716  64.4530  0.00  0.00     0.000 OA
ATOM     73   O  A00 X   4      68.484  47.783  63.7530  0.00  0.00     0.000 O
ATOM     74   O  A00 X   4      69.347  49.292  62.0850  0.00  0.00     0.000 OA
ATOM     75   S  A00 X   4      68.828  49.275  63.4140  0.00  0.00     0.000 S
ENDBRANCH 62 70
ENDBRANCH 57 61
ENDBRANCH 41 57
ENDBRANCH 40 44
ENDBRANCH 20 40
ENDBRANCH 19 23
ENDBRANCH 1 19
TORSDOF 14
ENDMDL
MODEL 39
REMARK VINA RESULT:      -1.1     52.805     58.048
ROOT
ATOM      1  C1  A00 X   1      29.762  28.611  75.6870  0.00  0.00     0.000 C
ATOM      2  C2  A00 X   1      30.052  29.813  76.6260  0.00  0.00     0.000 C
ATOM      3  C3  A00 X   1      30.785  31.032  75.9750  0.00  0.00     0.000 C
ATOM      4  C4  A00 X   1      31.453  30.756  74.6030  0.00  0.00     0.000 C
ATOM      5  C5  A00 X   1      31.746  29.271  74.3920  0.00  0.00     0.000 C
ATOM      6  O5  A00 X   1      30.449  28.634  74.4110  0.00  0.00     0.000 O
ATOM      7   O  A00 X   1      31.825  31.461  76.8520  0.00  0.00     0.000 O
ATOM      9  HD  A00 X   1      32.142  31.490  76.0460  0.00  0.00     0.000 HD
ATOM      9   O  A00 X   1      30.655  31.247  73.5260  0.00  0.00     0.000 O
ATOM     11  HD  A00 X   1      30.972  31.277  72.7210  0.00  0.00     0.000 HD
ENDROOT
BRANCH 2 11
ATOM     11   O  A00 X   1      28.794  30.258  77.1690  0.00  0.00     0.000 O
ATOM     12   O  A00 X   1      28.616  32.257  78.4880  0.00  0.00     0.000 OA
ATOM     13   O  A00 X   1      29.938  30.394  79.3230  0.00  0.00     0.000 OA
ATOM     14   O  A00 X   1      27.572  30.215  79.1580  0.00  0.00     0.000 OA
ATOM     15   S  A00 X   1      28.758  30.830  78.6280  0.00  0.00     0.000 S
ENDBRANCH 2 11
BRANCH 5 16
ATOM     16   C  A00 X   1      32.743  28.660  75.3830  0.00  0.00     0.000 C
ATOM     17   O  A00 X   1      32.864  27.453  75.4160  0.00  0.00     0.000 OA
ATOM     18   O  A00 X   1      33.420  29.340  76.1280  0.00  0.00     0.000 OA
ENDBRANCH 5 16
BRANCH 1 19
ATOM     19  O4  A00 X   2      29.919  27.332  76.3490  0.00  0.00     0.000 O
BRANCH 19 23
ATOM     20  C1  A00 X   2      26.525  25.571  74.4140  0.00  0.00     0.000 C
ATOM     21  C2  A00 X   2      26.323  26.125  75.8450  0.00  0.00     0.000 C
ATOM     22  C3  A00 X   2      27.467  27.088  76.2270  0.00  0.00     0.000 C
ATOM     23  C4  A00 X   2      28.840  26.405  76.0360  0.00  0.00     0.000 C
ATOM     24  C5  A00 X   2      28.909  25.880  74.5760  0.00  0.00     0.000 C
ATOM     25  O5  A00 X   2      27.829  24.933  74.3680  0.00  0.00     0.000 O
ATOM     26   O  A00 X   2      27.199  27.627  77.5330  0.00  0.00     0.000 O
ATOM     28  HD  A00 X   2      27.055  26.847  77.8800  0.00  0.00     0.000 HD
BRANCH 21 30
ATOM     28   N  A00 X   2      25.372  25.037  76.0920  0.00  0.00     0.000 N
ATOM     30  HD  A00 X   2      25.250  25.624  76.7180  0.00  0.00     0.000 HD
ATOM     30   O  A00 X   2      23.752  25.812  77.5870  0.00  0.00     0.000 OA
ATOM     31   S  A00 X   2      24.796  24.851  77.5520  0.00  0.00     0.000 S
ATOM     32   O  A00 X   2      24.363  23.488  77.5740  0.00  0.00     0.000 OA
ATOM     33   O  A00 X   2      25.885  25.041  78.4640  0.00  0.00     0.000 OA
ENDBRANCH 21 30
BRANCH 24 34
ATOM     34   C  A00 X   2      30.269  25.357  74.0560  0.00  0.00     0.000 C
ATOM     35   O  A00 X   2      32.150  22.660  75.6190  0.00  0.00     0.000 OA
ATOM     36   O  A00 X   2      30.935  24.554  75.0510  0.00  0.00     0.000 O
ATOM     37   O  A00 X   2      29.910  22.458  74.8870  0.00  0.00     0.000 OA
ATOM     38   S  A00 X   2      31.187  23.056  74.6450  0.00  0.00     0.000 S
ATOM     39   O  A00 X   2      31.664  23.078  73.2940  0.00  0.00     0.000 OA
ENDBRANCH 24 34
BRANCH 20 40
ATOM     40  O4  A00 X   3      26.521  26.717  73.5500  0.00  0.00     0.000 O
BRANCH 40 44
ATOM     41  C1  A00 X   3      28.061  28.438  70.7590  0.00  0.00     0.000 C
ATOM     42  C2  A00 X   3      26.869  28.980  71.5780  0.00  0.00     0.000 C
ATOM     43  C3  A00 X   3      25.743  27.920  71.6880  0.00  0.00     0.000 C
ATOM     44  C4  A00 X   3      26.210  26.546  72.1500  0.00  0.00     0.000 C
ATOM     45  C5  A00 X   3      27.404  26.068  71.2770  0.00  0.00     0.000 C
ATOM     46  O5  A00 X   3      28.437  27.102  71.1930  0.00  0.00     0.000 O
ATOM     47   O  A00 X   3      24.553  28.342  72.3510  0.00  0.00     0.000 O
ATOM     49  HD  A00 X   3      24.581  27.538  72.6720  0.00  0.00     0.000 HD
BRANCH 42 49
ATOM     49   O  A00 X   3      27.380  29.344  72.8790  0.00  0.00     0.000 O
ATOM     50   O  A00 X   3      26.470  30.197  74.9220  0.00  0.00     0.000 OA
ATOM     51   O  A00 X   3      25.702  31.087  72.8710  0.00  0.00     0.000 OA
ATOM     52   O  A00 X   3      27.928  31.533  73.5300  0.00  0.00     0.000 OA
ATOM     53   S  A00 X   3      26.847  30.612  73.6070  0.00  0.00     0.000 S
ENDBRANCH 42 49
BRANCH 45 54
ATOM     54   C  A00 X   3      26.939  25.566  69.9050  0.00  0.00     0.000 C
ATOM     55   O  A00 X   3      25.793  25.732  69.5420  0.00  0.00     0.000 OA
ATOM     56   O  A00 X   3      27.712  24.991  69.1550  0.00  0.00     0.000 OA
ENDBRANCH 45 54
BRANCH 41 57
ATOM     57  O4  A00 X   4      27.826  28.549  69.3370  0.00  0.00     0.000 O
BRANCH 57 61
ATOM     58  C1  A00 X   4      30.435  29.282  65.9760  0.00  0.00     0.000 C
ATOM     59  C2  A00 X   4      30.668  28.013  66.8330  0.00  0.00     0.000 C
ATOM     60  C3  A00 X   4      29.484  27.670  67.7600  0.00  0.00     0.000 C
ATOM     61  C4  A00 X   4      28.993  28.906  68.5440  0.00  0.00     0.000 C
ATOM     62  C5  A00 X   4      28.616  29.972  67.4850  0.00  0.00     0.000 C
ATOM     63  O5  A00 X   4      29.802  30.339  66.7340  0.00  0.00     0.000 O
BRANCH 59 66
ATOM     64   N  A00 X   4      31.824  28.227  67.7230  0.00  0.00     0.000 N
ATOM     66  HD  A00 X   4      32.002  29.041  67.9590  0.00  0.00     0.000 HD
ATOM     66   O  A00 X   4      33.237  27.640  65.8630  0.00  0.00     0.000 OA
ATOM     67   S  A00 X   4      33.236  27.610  67.2930  0.00  0.00     0.000 S
ATOM     68   O  A00 X   4      34.127  28.534  67.9300  0.00  0.00     0.000 OA
ATOM     69   O  A00 X   4      33.158  26.329  67.9360  0.00  0.00     0.000 OA
ENDBRANCH 59 66
BRANCH 62 70
ATOM     70   C  A00 X   4      27.992  31.259  68.0780  0.00  0.00     0.000 C
ATOM     71   O  A00 X   4      29.581  33.833  70.0660  0.00  0.00     0.000 OA
ATOM     72   O  A00 X   4      27.573  32.651  70.4080  0.00  0.00     0.000 OA
ATOM     73   O  A00 X   4      29.038  32.106  68.5800  0.00  0.00     0.000 O
ATOM     74   O  A00 X   4      29.706  31.549  70.8270  0.00  0.00     0.000 OA
ATOM     75   S  A00 X   4      28.978  32.530  70.0880  0.00  0.00     0.000 S
ENDBRANCH 62 70
ENDBRANCH 57 61
ENDBRANCH 41 57
ENDBRANCH 40 44
ENDBRANCH 20 40
ENDBRANCH 19 23
ENDBRANCH 1 19
TORSDOF 14
ENDMDL
MODEL 40
REMARK VINA RESULT:      -1.1     74.851     78.463
ROOT
ATOM      1  C1  A00 X   1      14.697  84.301  53.2480  0.00  0.00     0.000 C
ATOM      2  C2  A00 X   1      15.202  83.904  54.6610  0.00  0.00     0.000 C
ATOM      3  C3  A00 X   1      16.229  82.725  54.7170  0.00  0.00     0.000 C
ATOM      4  C4  A00 X   1      16.335  81.869  53.4290  0.00  0.00     0.000 C
ATOM      5  C5  A00 X   1      15.079  81.970  52.5640  0.00  0.00     0.000 C
ATOM      6  O5  A00 X   1      15.004  83.363  52.1870  0.00  0.00     0.000 O
ATOM      7   O  A00 X   1      15.847  81.836  55.7650  0.00  0.00     0.000 O
ATOM      9  HD  A00 X   1      16.096  81.349  55.0930  0.00  0.00     0.000 HD
ATOM      9   O  A00 X   1      17.482  82.225  52.6580  0.00  0.00     0.000 O
ATOM     11  HD  A00 X   1      17.730  81.738  51.9870  0.00  0.00     0.000 HD
ENDROOT
BRANCH 2 11
ATOM     11   O  A00 X   1      15.796  85.073  55.2580  0.00  0.00     0.000 O
ATOM     12   O  A00 X   1      16.967  84.973  57.3530  0.00  0.00     0.000 OA
ATOM     13   O  A00 X   1      14.588  84.469  57.2940  0.00  0.00     0.000 OA
ATOM     14   O  A00 X   1      15.361  86.682  56.8930  0.00  0.00     0.000 OA
ATOM     15   S  A00 X   1      15.670  85.280  56.8070  0.00  0.00     0.000 S
ENDBRANCH 2 11
BRANCH 5 16
ATOM     16   C  A00 X   1      13.797  81.443  53.2170  0.00  0.00     0.000 C
ATOM     17   O  A00 X   1      12.733  81.677  52.6830  0.00  0.00     0.000 OA
ATOM     18   O  A00 X   1      13.809  80.794  54.2440  0.00  0.00     0.000 OA
ENDBRANCH 5 16
BRANCH 1 19
ATOM     19  O4  A00 X   2      13.296  84.671  53.2370  0.00  0.00     0.000 O
BRANCH 19 23
ATOM     20  C1  A00 X   2      13.859  87.897  50.4730  0.00  0.00     0.000 C
ATOM     21  C2  A00 X   2      13.782  88.251  51.9780  0.00  0.00     0.000 C
ATOM     22  C3  A00 X   2      14.015  86.999  52.8490  0.00  0.00     0.000 C
ATOM     23  C4  A00 X   2      13.041  85.868  52.4480  0.00  0.00     0.000 C
ATOM     24  C5  A00 X   2      13.201  85.623  50.9220  0.00  0.00     0.000 C
ATOM     25  O5  A00 X   2      12.884  86.851  50.2160  0.00  0.00     0.000 O
ATOM     26   O  A00 X   2      14.002  87.391  54.2320  0.00  0.00     0.000 O
ATOM     28  HD  A00 X   2      13.256  87.824  54.1550  0.00  0.00     0.000 HD
BRANCH 21 30
ATOM     28   N  A00 X   2      13.111  89.501  51.6100  0.00  0.00     0.000 N
ATOM     30  HD  A00 X   2      13.374  89.590  52.4300  0.00  0.00     0.000 HD
ATOM     30   O  A00 X   2      13.692  91.129  53.1820  0.00  0.00     0.000 OA
ATOM     31   S  A00 X   2      12.536  90.421  52.7600  0.00  0.00     0.000 S
ATOM     32   O  A00 X   2      11.549  91.216  52.0970  0.00  0.00     0.000 OA
ATOM     33   O  A00 X   2      11.916  89.558  53.7210  0.00  0.00     0.000 OA
ENDBRANCH 21 30
BRANCH 24 34
ATOM     34   C  A00 X   2      12.504  84.385  50.3090  0.00  0.00     0.000 C
ATOM     35   O  A00 X   2       8.921  83.763  50.4870  0.00  0.00     0.000 OA
ATOM     36   O  A00 X   2      11.170  84.225  50.8310  0.00  0.00     0.000 O
ATOM     37   O  A00 X   2       9.878  85.735  49.5970  0.00  0.00     0.000 OA
ATOM     38   S  A00 X   2      10.018  84.321  49.7650  0.00  0.00     0.000 S
ATOM     39   O  A00 X   2      10.449  83.557  48.6320  0.00  0.00     0.000 OA
ENDBRANCH 24 34
BRANCH 20 40
ATOM     40  O4  A00 X   3      15.182  87.383  50.2620  0.00  0.00     0.000 O
BRANCH 40 44
ATOM     41  C1  A00 X   3      17.239  84.816  48.7450  0.00  0.00     0.000 C
ATOM     42  C2  A00 X   3      17.772  85.959  49.6350  0.00  0.00     0.000 C
ATOM     43  C3  A00 X   3      17.249  87.334  49.1470  0.00  0.00     0.000 C
ATOM     44  C4  A00 X   3      15.742  87.398  48.9320  0.00  0.00     0.000 C
ATOM     45  C5  A00 X   3      15.283  86.222  48.0240  0.00  0.00     0.000 C
ATOM     46  O5  A00 X   3      15.808  84.947  48.5160  0.00  0.00     0.000 O
ATOM     47   O  A00 X   3      17.747  88.474  49.8440  0.00  0.00     0.000 O
ATOM     49  HD  A00 X   3      16.933  88.751  49.7440  0.00  0.00     0.000 HD
BRANCH 42 49
ATOM     49   O  A00 X   3      17.342  85.680  50.9850  0.00  0.00     0.000 O
ATOM     50   O  A00 X   3      17.515  86.755  53.1170  0.00  0.00     0.000 OA
ATOM     51   O  A00 X   3      19.399  86.744  51.6880  0.00  0.00     0.000 OA
ATOM     52   O  A00 X   3      18.691  84.698  52.6370  0.00  0.00     0.000 OA
ATOM     53   S  A00 X   3      18.281  85.984  52.1890  0.00  0.00     0.000 S
ENDBRANCH 42 49
BRANCH 45 54
ATOM     54   C  A00 X   3      15.613  86.481  46.5490  0.00  0.00     0.000 C
ATOM     55   O  A00 X   3      15.229  85.719  45.6860  0.00  0.00     0.000 OA
ATOM     56   O  A00 X   3      16.269  87.457  46.2170  0.00  0.00     0.000 OA
ENDBRANCH 45 54
BRANCH 41 57
ATOM     57  O4  A00 X   4      18.016  84.675  47.5350  0.00  0.00     0.000 O
BRANCH 57 61
ATOM     58  C1  A00 X   4      19.119  81.265  45.1280  0.00  0.00     0.000 C
ATOM     59  C2  A00 X   4      17.617  81.612  45.2780  0.00  0.00     0.000 C
ATOM     60  C3  A00 X   4      17.365  83.025  45.8430  0.00  0.00     0.000 C
ATOM     61  C4  A00 X   4      18.228  83.305  47.0920  0.00  0.00     0.000 C
ATOM     62  C5  A00 X   4      19.701  83.103  46.6580  0.00  0.00     0.000 C
ATOM     63  O5  A00 X   4      19.896  81.722  46.2580  0.00  0.00     0.000 O
BRANCH 59 66
ATOM     64   N  A00 X   4      16.992  80.680  46.2350  0.00  0.00     0.000 N
ATOM     66  HD  A00 X   4      17.500  80.334  46.8450  0.00  0.00     0.000 HD
ATOM     66   O  A00 X   4      16.791  79.109  44.4210  0.00  0.00     0.000 OA
ATOM     67   S  A00 X   4      16.154  79.448  45.6550  0.00  0.00     0.000 S
ATOM     68   O  A00 X   4      16.321  78.499  46.7170  0.00  0.00     0.000 OA
ATOM     69   O  A00 X   4      14.846  80.037  45.5940  0.00  0.00     0.000 OA
ENDBRANCH 59 66
BRANCH 62 70
ATOM     70   C  A00 X   4      20.736  83.447  47.7560  0.00  0.00     0.000 C
ATOM     71   O  A00 X   4      21.442  81.676  50.8340  0.00  0.00     0.000 OA
ATOM     72   O  A00 X   4      21.038  83.962  50.4370  0.00  0.00     0.000 OA
ATOM     73   O  A00 X   4      20.846  82.343  48.6690  0.00  0.00     0.000 O
ATOM     74   O  A00 X   4      19.178  82.388  50.4070  0.00  0.00     0.000 OA
ATOM     75   S  A00 X   4      20.570  82.616  50.1880  0.00  0.00     0.000 S
ENDBRANCH 62 70
ENDBRANCH 57 61
ENDBRANCH 41 57
ENDBRANCH 40 44
ENDBRANCH 20 40
ENDBRANCH 19 23
ENDBRANCH 1 19
TORSDOF 14
ENDMDL
MODEL 41
REMARK VINA RESULT:      -1.1     63.224     68.295
ROOT
ATOM      1  C1  A00 X   1      51.566  44.562  66.6240  0.00  0.00     0.000 C
ATOM      2  C2  A00 X   1      53.106  44.425  66.4900  0.00  0.00     0.000 C
ATOM      3  C3  A00 X   1      53.665  42.965  66.4420  0.00  0.00     0.000 C
ATOM      4  C4  A00 X   1      52.681  41.857  66.8970  0.00  0.00     0.000 C
ATOM      5  C5  A00 X   1      51.575  42.403  67.8010  0.00  0.00     0.000 C
ATOM      6  O5  A00 X   1      50.858  43.347  66.9750  0.00  0.00     0.000 O
ATOM      7   O  A00 X   1      54.797  42.880  67.3050  0.00  0.00     0.000 O
ATOM      9  HD  A00 X   1      54.334  42.156  67.4180  0.00  0.00     0.000 HD
ATOM      9   O  A00 X   1      52.101  41.183  65.7800  0.00  0.00     0.000 O
ATOM     11  HD  A00 X   1      51.638  40.460  65.8930  0.00  0.00     0.000 HD
ENDROOT
BRANCH 2 11
ATOM     11   O  A00 X   1      53.506  45.120  65.2930  0.00  0.00     0.000 O
ATOM     12   O  A00 X   1      55.752  45.009  64.4490  0.00  0.00     0.000 OA
ATOM     13   O  A00 X   1      55.343  46.041  66.6140  0.00  0.00     0.000 OA
ATOM     14   O  A00 X   1      54.575  47.083  64.6180  0.00  0.00     0.000 OA
ATOM     15   S  A00 X   1      54.899  45.839  65.2620  0.00  0.00     0.000 S
ENDBRANCH 2 11
BRANCH 5 16
ATOM     16   C  A00 X   1      52.058  42.993  69.1300  0.00  0.00     0.000 C
ATOM     17   O  A00 X   1      51.274  43.631  69.8020  0.00  0.00     0.000 OA
ATOM     18   O  A00 X   1      53.193  42.841  69.5370  0.00  0.00     0.000 OA
ENDBRANCH 5 16
BRANCH 1 19
ATOM     19  O4  A00 X   2      51.173  45.667  67.4740  0.00  0.00     0.000 O
BRANCH 19 23
ATOM     20  C1  A00 X   2      47.869  46.800  64.9910  0.00  0.00     0.000 C
ATOM     21  C2  A00 X   2      49.192  47.585  64.8220  0.00  0.00     0.000 C
ATOM     22  C3  A00 X   2      50.375  46.809  65.4380  0.00  0.00     0.000 C
ATOM     23  C4  A00 X   2      50.077  46.444  66.9100  0.00  0.00     0.000 C
ATOM     24  C5  A00 X   2      48.725  45.681  66.9460  0.00  0.00     0.000 C
ATOM     25  O5  A00 X   2      47.688  46.543  66.4090  0.00  0.00     0.000 O
ATOM     26   O  A00 X   2      51.586  47.544  65.1950  0.00  0.00     0.000 O
ATOM     28  HD  A00 X   2      51.255  48.286  65.4950  0.00  0.00     0.000 HD
BRANCH 21 30
ATOM     28   N  A00 X   2      48.396  48.784  64.5390  0.00  0.00     0.000 N
ATOM     30  HD  A00 X   2      49.205  48.954  64.2820  0.00  0.00     0.000 HD
ATOM     30   O  A00 X   2      49.603  50.126  63.0560  0.00  0.00     0.000 OA
ATOM     31   S  A00 X   2      49.140  50.172  64.3970  0.00  0.00     0.000 S
ATOM     32   O  A00 X   2      48.111  51.134  64.6480  0.00  0.00     0.000 OA
ATOM     33   O  A00 X   2      50.134  50.227  65.4260  0.00  0.00     0.000 OA
ENDBRANCH 21 30
BRANCH 24 34
ATOM     34   C  A00 X   2      48.309  45.002  68.2720  0.00  0.00     0.000 C
ATOM     35   O  A00 X   2      45.370  45.934  70.2080  0.00  0.00     0.000 OA
ATOM     36   O  A00 X   2      47.335  45.793  68.9810  0.00  0.00     0.000 O
ATOM     37   O  A00 X   2      45.305  45.296  67.9310  0.00  0.00     0.000 OA
ATOM     38   S  A00 X   2      45.940  45.102  69.1990  0.00  0.00     0.000 S
ATOM     39   O  A00 X   2      46.214  43.756  69.6050  0.00  0.00     0.000 OA
ENDBRANCH 24 34
BRANCH 20 40
ATOM     40  O4  A00 X   3      48.064  45.558  64.2990  0.00  0.00     0.000 O
BRANCH 40 44
ATOM     41  C1  A00 X   3      47.672  41.957  64.2970  0.00  0.00     0.000 C
ATOM     42  C2  A00 X   3      48.345  42.770  63.1700  0.00  0.00     0.000 C
ATOM     43  C3  A00 X   3      47.439  43.942  62.7130  0.00  0.00     0.000 C
ATOM     44  C4  A00 X   3      46.913  44.814  63.8450  0.00  0.00     0.000 C
ATOM     45  C5  A00 X   3      46.247  43.927  64.9350  0.00  0.00     0.000 C
ATOM     46  O5  A00 X   3      47.132  42.829  65.3280  0.00  0.00     0.000 O
ATOM     47   O  A00 X   3      47.923  44.711  61.6140  0.00  0.00     0.000 O
ATOM     49  HD  A00 X   3      47.595  45.367  62.0740  0.00  0.00     0.000 HD
BRANCH 42 49
ATOM     49   O  A00 X   3      49.606  43.248  63.6880  0.00  0.00     0.000 O
ATOM     50   O  A00 X   3      51.408  44.602  62.8830  0.00  0.00     0.000 OA
ATOM     51   O  A00 X   3      50.439  43.011  61.4280  0.00  0.00     0.000 OA
ATOM     52   O  A00 X   3      51.684  42.233  63.2800  0.00  0.00     0.000 OA
ATOM     53   S  A00 X   3      50.867  43.283  62.7770  0.00  0.00     0.000 S
ENDBRANCH 42 49
BRANCH 45 54
ATOM     54   C  A00 X   3      44.852  43.454  64.5070  0.00  0.00     0.000 C
ATOM     55   O  A00 X   3      44.081  42.987  65.3200  0.00  0.00     0.000 OA
ATOM     56   O  A00 X   3      44.493  43.538  63.3430  0.00  0.00     0.000 OA
ENDBRANCH 45 54
BRANCH 41 57
ATOM     57  O4  A00 X   4      46.717  41.007  63.7730  0.00  0.00     0.000 O
BRANCH 57 61
ATOM     58  C1  A00 X   4      45.417  37.110  65.1000  0.00  0.00     0.000 C
ATOM     59  C2  A00 X   4      45.175  38.327  66.0260  0.00  0.00     0.000 C
ATOM     60  C3  A00 X   4      45.343  39.685  65.3140  0.00  0.00     0.000 C
ATOM     61  C4  A00 X   4      46.647  39.742  64.4890  0.00  0.00     0.000 C
ATOM     62  C5  A00 X   4      46.581  38.561  63.4880  0.00  0.00     0.000 C
ATOM     63  O5  A00 X   4      46.550  37.312  64.2250  0.00  0.00     0.000 O
BRANCH 59 66
ATOM     64   N  A00 X   4      46.151  38.346  67.1310  0.00  0.00     0.000 N
ATOM     66  HD  A00 X   4      46.924  37.984  66.9870  0.00  0.00     0.000 HD
ATOM     66   O  A00 X   4      44.752  36.744  68.2610  0.00  0.00     0.000 OA
ATOM     67   S  A00 X   4      45.694  37.778  68.5550  0.00  0.00     0.000 S
ATOM     68   O  A00 X   4      46.955  37.335  69.0730  0.00  0.00     0.000 OA
ATOM     69   O  A00 X   4      45.200  38.982  69.1610  0.00  0.00     0.000 OA
ENDBRANCH 59 66
BRANCH 62 70
ATOM     70   C  A00 X   4      47.761  38.514  62.4880  0.00  0.00     0.000 C
ATOM     71   O  A00 X   4      51.244  37.770  63.1350  0.00  0.00     0.000 OA
ATOM     72   O  A00 X   4      50.249  39.540  61.9430  0.00  0.00     0.000 OA
ATOM     73   O  A00 X   4      48.908  37.938  63.1340  0.00  0.00     0.000 O
ATOM     74   O  A00 X   4      50.196  39.549  64.3800  0.00  0.00     0.000 OA
ATOM     75   S  A00 X   4      50.228  38.783  63.1750  0.00  0.00     0.000 S
ENDBRANCH 62 70
ENDBRANCH 57 61
ENDBRANCH 41 57
ENDBRANCH 40 44
ENDBRANCH 20 40
ENDBRANCH 19 23
ENDBRANCH 1 19
TORSDOF 14
ENDMDL
MODEL 42
REMARK VINA RESULT:      -1.1     51.757     55.998
ROOT
ATOM      1  C1  A00 X   1      11.881  54.075  62.3960  0.00  0.00     0.000 C
ATOM      2  C2  A00 X   1      10.636  54.955  62.6880  0.00  0.00     0.000 C
ATOM      3  C3  A00 X   1      10.234  55.969  61.5670  0.00  0.00     0.000 C
ATOM      4  C4  A00 X   1      11.313  56.233  60.4850  0.00  0.00     0.000 C
ATOM      5  C5  A00 X   1      12.720  55.903  60.9810  0.00  0.00     0.000 C
ATOM      6  O5  A00 X   1      12.687  54.486  61.2640  0.00  0.00     0.000 O
ATOM      7   O  A00 X   1       9.949  57.229  62.1700  0.00  0.00     0.000 O
ATOM      9  HD  A00 X   1      10.397  57.388  61.4470  0.00  0.00     0.000 HD
ATOM      9   O  A00 X   1      11.040  55.505  59.2880  0.00  0.00     0.000 O
ATOM     11  HD  A00 X   1      11.488  55.665  58.5640  0.00  0.00     0.000 HD
ENDROOT
BRANCH 2 11
ATOM     11   O  A00 X   1       9.526  54.073  62.9440  0.00  0.00     0.000 O
ATOM     12   O  A00 X   1       7.284  54.895  63.2000  0.00  0.00     0.000 OA
ATOM     13   O  A00 X   1       8.981  55.539  64.8190  0.00  0.00     0.000 OA
ATOM     14   O  A00 X   1       8.214  53.291  64.7090  0.00  0.00     0.000 OA
ATOM     15   S  A00 X   1       8.434  54.510  63.9790  0.00  0.00     0.000 S
ENDBRANCH 2 11
BRANCH 5 16
ATOM     16   C  A00 X   1      13.207  56.752  62.1600  0.00  0.00     0.000 C
ATOM     17   O  A00 X   1      14.224  56.420  62.7340  0.00  0.00     0.000 OA
ATOM     18   O  A00 X   1      12.617  57.745  62.5350  0.00  0.00     0.000 OA
ENDBRANCH 5 16
BRANCH 1 19
ATOM     19  O4  A00 X   2      12.697  53.849  63.5710  0.00  0.00     0.000 O
BRANCH 19 23
ATOM     20  C1  A00 X   2      13.518  49.758  62.5950  0.00  0.00     0.000 C
ATOM     21  C2  A00 X   2      12.379  50.037  63.6050  0.00  0.00     0.000 C
ATOM     22  C3  A00 X   2      11.921  51.508  63.5240  0.00  0.00     0.000 C
ATOM     23  C4  A00 X   2      13.124  52.463  63.6980  0.00  0.00     0.000 C
ATOM     24  C5  A00 X   2      14.197  52.070  62.6460  0.00  0.00     0.000 C
ATOM     25  O5  A00 X   2      14.594  50.693  62.8750  0.00  0.00     0.000 O
ATOM     26   O  A00 X   2      10.820  51.699  64.4290  0.00  0.00     0.000 O
ATOM     28  HD  A00 X   2      11.238  51.333  65.0940  0.00  0.00     0.000 HD
BRANCH 21 30
ATOM     28   N  A00 X   2      12.750  48.803  64.3050  0.00  0.00     0.000 N
ATOM     30  HD  A00 X   2      11.962  49.025  64.5880  0.00  0.00     0.000 HD
ATOM     30   O  A00 X   2      10.814  47.889  65.2410  0.00  0.00     0.000 OA
ATOM     31   S  A00 X   2      12.037  48.465  65.6750  0.00  0.00     0.000 S
ATOM     32   O  A00 X   2      12.941  47.557  66.3110  0.00  0.00     0.000 OA
ATOM     33   O  A00 X   2      11.952  49.686  66.4200  0.00  0.00     0.000 OA
ENDBRANCH 21 30
BRANCH 24 34
ATOM     34   C  A00 X   2      15.406  53.016  62.4540  0.00  0.00     0.000 C
ATOM     35   O  A00 X   2      18.859  52.077  63.1270  0.00  0.00     0.000 OA
ATOM     36   O  A00 X   2      16.578  52.508  63.1220  0.00  0.00     0.000 O
ATOM     37   O  A00 X   2      17.431  50.897  61.6570  0.00  0.00     0.000 OA
ATOM     38   S  A00 X   2      17.795  52.177  62.1830  0.00  0.00     0.000 S
ATOM     39   O  A00 X   2      17.902  53.267  61.2600  0.00  0.00     0.000 OA
ENDBRANCH 24 34
BRANCH 20 40
ATOM     40  O4  A00 X   3      12.965  50.038  61.3000  0.00  0.00     0.000 O
BRANCH 40 44
ATOM     41  C1  A00 X   3      13.416  51.597  58.0620  0.00  0.00     0.000 C
ATOM     42  C2  A00 X   3      12.135  50.865  58.5150  0.00  0.00     0.000 C
ATOM     43  C3  A00 X   3      12.468  49.459  59.0780  0.00  0.00     0.000 C
ATOM     44  C4  A00 X   3      13.569  49.444  60.1310  0.00  0.00     0.000 C
ATOM     45  C5  A00 X   3      14.824  50.194  59.6000  0.00  0.00     0.000 C
ATOM     46  O5  A00 X   3      14.461  51.509  59.0700  0.00  0.00     0.000 O
ATOM     47   O  A00 X   3      11.350  48.655  59.4490  0.00  0.00     0.000 O
ATOM     49  HD  A00 X   3      11.871  48.433  60.1040  0.00  0.00     0.000 HD
BRANCH 42 49
ATOM     49   O  A00 X   3      11.502  51.696  59.5120  0.00  0.00     0.000 O
ATOM     50   O  A00 X   3       9.571  51.550  60.9190  0.00  0.00     0.000 OA
ATOM     51   O  A00 X   3       9.406  50.824  58.6750  0.00  0.00     0.000 OA
ATOM     52   O  A00 X   3       9.692  53.132  59.0950  0.00  0.00     0.000 OA
ATOM     53   S  A00 X   3       9.951  51.816  59.5670  0.00  0.00     0.000 S
ENDBRANCH 42 49
BRANCH 45 54
ATOM     54   C  A00 X   3      15.616  49.339  58.6040  0.00  0.00     0.000 C
ATOM     55   O  A00 X   3      15.155  48.301  58.1750  0.00  0.00     0.000 OA
ATOM     56   O  A00 X   3      16.725  49.686  58.2260  0.00  0.00     0.000 OA
ENDBRANCH 45 54
BRANCH 41 57
ATOM     57  O4  A00 X   4      13.834  51.175  56.7440  0.00  0.00     0.000 O
BRANCH 57 61
ATOM     58  C1  A00 X   4      15.771  53.229  53.4770  0.00  0.00     0.000 C
ATOM     59  C2  A00 X   4      16.523  53.107  54.8260  0.00  0.00     0.000 C
ATOM     60  C3  A00 X   4      15.906  52.065  55.7820  0.00  0.00     0.000 C
ATOM     61  C4  A00 X   4      14.376  52.231  55.9000  0.00  0.00     0.000 C
ATOM     62  C5  A00 X   4      13.812  52.110  54.4630  0.00  0.00     0.000 C
ATOM     63  O5  A00 X   4      14.336  53.193  53.6520  0.00  0.00     0.000 O
BRANCH 59 66
ATOM     64   N  A00 X   4      16.466  54.390  55.5480  0.00  0.00     0.000 N
ATOM     66  HD  A00 X   4      15.788  54.907  55.3930  0.00  0.00     0.000 HD
ATOM     66   O  A00 X   4      18.315  55.122  54.1900  0.00  0.00     0.000 OA
ATOM     67   S  A00 X   4      17.739  55.357  55.4770  0.00  0.00     0.000 S
ATOM     68   O  A00 X   4      17.105  56.632  55.6460  0.00  0.00     0.000 OA
ATOM     69   O  A00 X   4      18.465  54.903  56.6290  0.00  0.00     0.000 OA
ENDBRANCH 59 66
BRANCH 62 70
ATOM     70   C  A00 X   4      12.267  52.141  54.3850  0.00  0.00     0.000 C
ATOM     71   O  A00 X   4      10.027  54.915  55.0140  0.00  0.00     0.000 OA
ATOM     72   O  A00 X   4       9.985  52.699  55.8090  0.00  0.00     0.000 OA
ATOM     73   O  A00 X   4      11.815  53.502  54.4700  0.00  0.00     0.000 O
ATOM     74   O  A00 X   4      11.588  54.281  56.7390  0.00  0.00     0.000 OA
ATOM     75   S  A00 X   4      10.809  53.871  55.6150  0.00  0.00     0.000 S
ENDBRANCH 62 70
ENDBRANCH 57 61
ENDBRANCH 41 57
ENDBRANCH 40 44
ENDBRANCH 20 40
ENDBRANCH 19 23
ENDBRANCH 1 19
TORSDOF 14
ENDMDL
MODEL 43
REMARK VINA RESULT:      -1.1     55.728     61.407
ROOT
ATOM      1  C1  A00 X   1      24.853  30.048  78.5290  0.00  0.00     0.000 C
ATOM      2  C2  A00 X   1      23.337  30.372  78.4470  0.00  0.00     0.000 C
ATOM      3  C3  A00 X   1      22.562  29.735  77.2460  0.00  0.00     0.000 C
ATOM      4  C4  A00 X   1      23.445  29.176  76.1010  0.00  0.00     0.000 C
ATOM      5  C5  A00 X   1      24.835  29.813  76.0810  0.00  0.00     0.000 C
ATOM      6  O5  A00 X   1      25.428  29.441  77.3450  0.00  0.00     0.000 O
ATOM      7   O  A00 X   1      21.725  30.731  76.6630  0.00  0.00     0.000 O
ATOM      9  HD  A00 X   1      22.079  30.281  76.0120  0.00  0.00     0.000 HD
ATOM      9   O  A00 X   1      23.567  27.756  76.1820  0.00  0.00     0.000 O
ATOM     11  HD  A00 X   1      23.921  27.307  75.5310  0.00  0.00     0.000 HD
ENDROOT
BRANCH 2 11
ATOM     11   O  A00 X   1      22.729  29.941  79.6800  0.00  0.00     0.000 O
ATOM     12   O  A00 X   1      20.418  30.367  80.1740  0.00  0.00     0.000 OA
ATOM     13   O  A00 X   1      21.949  32.242  79.9310  0.00  0.00     0.000 OA
ATOM     14   O  A00 X   1      22.139  30.763  81.7840  0.00  0.00     0.000 OA
ATOM     15   S  A00 X   1      21.733  30.905  80.4120  0.00  0.00     0.000 S
ENDBRANCH 2 11
BRANCH 5 16
ATOM     16   C  A00 X   1      24.852  31.322  75.8160  0.00  0.00     0.000 C
ATOM     17   O  A00 X   1      25.891  31.928  75.9750  0.00  0.00     0.000 OA
ATOM     18   O  A00 X   1      23.866  31.930  75.4480  0.00  0.00     0.000 OA
ENDBRANCH 5 16
BRANCH 1 19
ATOM     19  O4  A00 X   2      25.643  31.174  78.9820  0.00  0.00     0.000 O
BRANCH 19 23
ATOM     20  C1  A00 X   2      28.372  28.745  81.2230  0.00  0.00     0.000 C
ATOM     21  C2  A00 X   2      27.219  29.427  81.9990  0.00  0.00     0.000 C
ATOM     22  C3  A00 X   2      26.105  29.888  81.0360  0.00  0.00     0.000 C
ATOM     23  C4  A00 X   2      26.688  30.782  79.9190  0.00  0.00     0.000 C
ATOM     24  C5  A00 X   2      27.839  29.996  79.2340  0.00  0.00     0.000 C
ATOM     25  O5  A00 X   2      28.851  29.689  80.2280  0.00  0.00     0.000 O
ATOM     26   O  A00 X   2      25.031  30.450  81.8090  0.00  0.00     0.000 O
ATOM     28  HD  A00 X   2      25.559  30.969  82.2590  0.00  0.00     0.000 HD
BRANCH 21 30
ATOM     28   N  A00 X   2      28.128  29.575  83.1400  0.00  0.00     0.000 N
ATOM     30  HD  A00 X   2      27.326  29.706  83.4400  0.00  0.00     0.000 HD
ATOM     30   O  A00 X   2      26.861  29.454  85.1000  0.00  0.00     0.000 OA
ATOM     31   S  A00 X   2      27.642  30.407  84.3940  0.00  0.00     0.000 S
ATOM     32   O  A00 X   2      28.860  30.787  85.0410  0.00  0.00     0.000 OA
ATOM     33   O  A00 X   2      26.960  31.564  83.8960  0.00  0.00     0.000 OA
ENDBRANCH 21 30
BRANCH 24 34
ATOM     34   C  A00 X   2      28.439  30.577  77.9310  0.00  0.00     0.000 C
ATOM     35   O  A00 X   2      31.920  31.578  77.5570  0.00  0.00     0.000 OA
ATOM     36   O  A00 X   2      29.715  31.202  78.1770  0.00  0.00     0.000 O
ATOM     37   O  A00 X   2      31.231  29.423  78.2460  0.00  0.00     0.000 OA
ATOM     38   S  A00 X   2      30.934  30.556  77.4230  0.00  0.00     0.000 S
ATOM     39   O  A00 X   2      30.496  30.306  76.0830  0.00  0.00     0.000 OA
ENDBRANCH 24 34
BRANCH 20 40
ATOM     40  O4  A00 X   3      27.782  27.614  80.5670  0.00  0.00     0.000 O
BRANCH 40 44
ATOM     41  C1  A00 X   3      27.499  25.572  77.5880  0.00  0.00     0.000 C
ATOM     42  C2  A00 X   3      26.710  25.337  78.8940  0.00  0.00     0.000 C
ATOM     43  C3  A00 X   3      27.659  25.311  80.1190  0.00  0.00     0.000 C
ATOM     44  C4  A00 X   3      28.616  26.493  80.2050  0.00  0.00     0.000 C
ATOM     45  C5  A00 X   3      29.375  26.661  78.8580  0.00  0.00     0.000 C
ATOM     46  O5  A00 X   3      28.442  26.671  77.7300  0.00  0.00     0.000 O
ATOM     47   O  A00 X   3      27.049  25.014  81.3740  0.00  0.00     0.000 O
ATOM     49  HD  A00 X   3      27.600  25.618  81.6580  0.00  0.00     0.000 HD
BRANCH 42 49
ATOM     49   O  A00 X   3      25.741  26.403  79.0000  0.00  0.00     0.000 O
ATOM     50   O  A00 X   3      24.077  27.081  80.5820  0.00  0.00     0.000 OA
ATOM     51   O  A00 X   3      24.318  24.780  80.0950  0.00  0.00     0.000 OA
ATOM     52   O  A00 X   3      23.476  26.207  78.4100  0.00  0.00     0.000 OA
ATOM     53   S  A00 X   3      24.315  26.117  79.5550  0.00  0.00     0.000 S
ENDBRANCH 42 49
BRANCH 45 54
ATOM     54   C  A00 X   3      30.496  25.627  78.7050  0.00  0.00     0.000 C
ATOM     55   O  A00 X   3      30.600  24.706  79.4900  0.00  0.00     0.000 OA
ATOM     56   O  A00 X   3      31.305  25.710  77.7940  0.00  0.00     0.000 OA
ENDBRANCH 45 54
BRANCH 41 57
ATOM     57  O4  A00 X   4      28.092  24.350  77.0950  0.00  0.00     0.000 O
BRANCH 57 61
ATOM     58  C1  A00 X   4      28.881  22.860  73.1200  0.00  0.00     0.000 C
ATOM     59  C2  A00 X   4      29.578  24.167  73.5740  0.00  0.00     0.000 C
ATOM     60  C3  A00 X   4      29.512  24.402  75.0970  0.00  0.00     0.000 C
ATOM     61  C4  A00 X   4      28.084  24.199  75.6470  0.00  0.00     0.000 C
ATOM     62  C5  A00 X   4      27.668  22.758  75.2600  0.00  0.00     0.000 C
ATOM     63  O5  A00 X   4      27.631  22.643  73.8150  0.00  0.00     0.000 O
BRANCH 59 66
ATOM     64   N  A00 X   4      28.919  25.338  72.9690  0.00  0.00     0.000 N
ATOM     66  HD  A00 X   4      28.079  25.267  72.7720  0.00  0.00     0.000 HD
ATOM     66   O  A00 X   4      30.213  24.915  70.9830  0.00  0.00     0.000 OA
ATOM     67   S  A00 X   4      29.587  25.998  71.6740  0.00  0.00     0.000 S
ATOM     68   O  A00 X   4      28.427  26.549  71.0370  0.00  0.00     0.000 OA
ATOM     69   O  A00 X   4      30.436  26.974  72.2970  0.00  0.00     0.000 OA
ENDBRANCH 59 66
BRANCH 62 70
ATOM     70   C  A00 X   4      26.294  22.323  75.8240  0.00  0.00     0.000 C
ATOM     71   O  A00 X   4      22.997  23.495  74.8960  0.00  0.00     0.000 OA
ATOM     72   O  A00 X   4      23.994  23.239  77.0130  0.00  0.00     0.000 OA
ATOM     73   O  A00 X   4      25.250  22.862  74.9970  0.00  0.00     0.000 O
ATOM     74   O  A00 X   4      24.640  25.114  75.5970  0.00  0.00     0.000 OA
ATOM     75   S  A00 X   4      24.169  23.769  75.6790  0.00  0.00     0.000 S
ENDBRANCH 62 70
ENDBRANCH 57 61
ENDBRANCH 41 57
ENDBRANCH 40 44
ENDBRANCH 20 40
ENDBRANCH 19 23
ENDBRANCH 1 19
TORSDOF 14
ENDMDL
MODEL 44
REMARK VINA RESULT:      -1.1     56.089     61.157
ROOT
ATOM      1  C1  A00 X   1      51.720  41.430  45.8510  0.00  0.00     0.000 C
ATOM      2  C2  A00 X   1      50.636  40.432  46.3380  0.00  0.00     0.000 C
ATOM      3  C3  A00 X   1      50.788  38.956  45.8420  0.00  0.00     0.000 C
ATOM      4  C4  A00 X   1      51.762  38.748  44.6540  0.00  0.00     0.000 C
ATOM      5  C5  A00 X   1      51.970  40.028  43.8460  0.00  0.00     0.000 C
ATOM      6  O5  A00 X   1      52.570  40.956  44.7770  0.00  0.00     0.000 O
ATOM      7   O  A00 X   1      49.514  38.486  45.4080  0.00  0.00     0.000 O
ATOM      9  HD  A00 X   1      50.099  38.202  44.8360  0.00  0.00     0.000 HD
ATOM      9   O  A00 X   1      53.023  38.245  45.0950  0.00  0.00     0.000 O
ATOM     11  HD  A00 X   1      53.608  37.961  44.5240  0.00  0.00     0.000 HD
ENDROOT
BRANCH 2 11
ATOM     11   O  A00 X   1      50.642  40.446  47.7780  0.00  0.00     0.000 O
ATOM     12   O  A00 X   1      49.356  38.882  49.0700  0.00  0.00     0.000 OA
ATOM     13   O  A00 X   1      48.204  40.482  47.6450  0.00  0.00     0.000 OA
ATOM     14   O  A00 X   1      49.374  41.217  49.5810  0.00  0.00     0.000 OA
ATOM     15   S  A00 X   1      49.294  40.223  48.5450  0.00  0.00     0.000 S
ENDBRANCH 2 11
BRANCH 5 16
ATOM     16   C  A00 X   1      50.713  40.574  43.1610  0.00  0.00     0.000 C
ATOM     17   O  A00 X   1      50.748  41.690  42.6850  0.00  0.00     0.000 OA
ATOM     18   O  A00 X   1      49.687  39.929  43.0720  0.00  0.00     0.000 OA
ENDBRANCH 5 16
BRANCH 1 19
ATOM     19  O4  A00 X   2      51.182  42.744  45.5580  0.00  0.00     0.000 O
BRANCH 19 23
ATOM     20  C1  A00 X   2      54.550  44.824  47.2010  0.00  0.00     0.000 C
ATOM     21  C2  A00 X   2      53.299  44.666  48.1000  0.00  0.00     0.000 C
ATOM     22  C3  A00 X   2      52.372  43.557  47.5610  0.00  0.00     0.000 C
ATOM     23  C4  A00 X   2      52.017  43.817  46.0800  0.00  0.00     0.000 C
ATOM     24  C5  A00 X   2      53.347  43.975  45.2940  0.00  0.00     0.000 C
ATOM     25  O5  A00 X   2      54.089  45.091  45.8500  0.00  0.00     0.000 O
ATOM     26   O  A00 X   2      51.264  43.402  48.4640  0.00  0.00     0.000 O
ATOM     28  HD  A00 X   2      51.089  44.250  48.4740  0.00  0.00     0.000 HD
BRANCH 21 30
ATOM     28   N  A00 X   2      53.592  45.983  48.6740  0.00  0.00     0.000 N
ATOM     30  HD  A00 X   2      53.027  45.598  49.2050  0.00  0.00     0.000 HD
ATOM     30   O  A00 X   2      52.875  45.983  50.8970  0.00  0.00     0.000 OA
ATOM     31   S  A00 X   2      52.548  46.624  49.6730  0.00  0.00     0.000 S
ATOM     32   O  A00 X   2      52.846  48.022  49.6240  0.00  0.00     0.000 OA
ATOM     33   O  A00 X   2      51.242  46.375  49.1380  0.00  0.00     0.000 OA
ENDBRANCH 21 30
BRANCH 24 34
ATOM     34   C  A00 X   2      53.277  44.015  43.7490  0.00  0.00     0.000 C
ATOM     35   O  A00 X   2      54.321  46.862  41.7320  0.00  0.00     0.000 OA
ATOM     36   O  A00 X   2      53.413  45.363  43.2550  0.00  0.00     0.000 O
ATOM     37   O  A00 X   2      55.716  45.768  43.2980  0.00  0.00     0.000 OA
ATOM     38   S  A00 X   2      54.665  45.618  42.3380  0.00  0.00     0.000 S
ATOM     39   O  A00 X   2      54.742  44.505  41.4390  0.00  0.00     0.000 OA
ENDBRANCH 24 34
BRANCH 20 40
ATOM     40  O4  A00 X   3      55.217  43.554  47.2390  0.00  0.00     0.000 O
BRANCH 40 44
ATOM     41  C1  A00 X   3      56.920  40.916  45.4320  0.00  0.00     0.000 C
ATOM     42  C2  A00 X   3      56.635  40.901  46.9490  0.00  0.00     0.000 C
ATOM     43  C3  A00 X   3      57.111  42.217  47.6170  0.00  0.00     0.000 C
ATOM     44  C4  A00 X   3      56.626  43.487  46.9300  0.00  0.00     0.000 C
ATOM     45  C5  A00 X   3      56.953  43.429  45.4110  0.00  0.00     0.000 C
ATOM     46  O5  A00 X   3      56.495  42.168  44.8260  0.00  0.00     0.000 O
ATOM     47   O  A00 X   3      56.977  42.280  49.0350  0.00  0.00     0.000 O
ATOM     49  HD  A00 X   3      56.751  43.098  48.8650  0.00  0.00     0.000 HD
BRANCH 42 49
ATOM     49   O  A00 X   3      55.212  40.713  47.1100  0.00  0.00     0.000 O
ATOM     50   O  A00 X   3      53.676  40.595  48.9430  0.00  0.00     0.000 OA
ATOM     51   O  A00 X   3      55.765  39.505  49.1330  0.00  0.00     0.000 OA
ATOM     52   O  A00 X   3      54.187  38.655  47.5930  0.00  0.00     0.000 OA
ATOM     53   S  A00 X   3      54.662  39.818  48.2600  0.00  0.00     0.000 S
ENDBRANCH 42 49
BRANCH 45 54
ATOM     54   C  A00 X   3      58.434  43.719  45.1380  0.00  0.00     0.000 C
ATOM     55   O  A00 X   3      58.837  43.862  44.0020  0.00  0.00     0.000 OA
ATOM     56   O  A00 X   3      59.233  43.809  46.0570  0.00  0.00     0.000 OA
ENDBRANCH 45 54
BRANCH 41 57
ATOM     57  O4  A00 X   4      58.290  40.559  45.1430  0.00  0.00     0.000 O
BRANCH 57 61
ATOM     58  C1  A00 X   4      60.147  38.423  41.8820  0.00  0.00     0.000 C
ATOM     59  C2  A00 X   4      59.400  39.745  41.5730  0.00  0.00     0.000 C
ATOM     60  C3  A00 X   4      59.098  40.588  42.8280  0.00  0.00     0.000 C
ATOM     61  C4  A00 X   4      58.478  39.736  43.9560  0.00  0.00     0.000 C
ATOM     62  C5  A00 X   4      59.487  38.598  44.2470  0.00  0.00     0.000 C
ATOM     63  O5  A00 X   4      59.628  37.771  43.0640  0.00  0.00     0.000 O
BRANCH 59 66
ATOM     64   N  A00 X   4      58.086  39.465  40.9660  0.00  0.00     0.000 N
ATOM     66  HD  A00 X   4      57.702  38.716  41.1700  0.00  0.00     0.000 HD
ATOM     66   O  A00 X   4      59.226  39.197  38.8620  0.00  0.00     0.000 OA
ATOM     67   S  A00 X   4      57.947  39.574  39.3760  0.00  0.00     0.000 S
ATOM     68   O  A00 X   4      56.887  38.637  39.1440  0.00  0.00     0.000 OA
ATOM     69   O  A00 X   4      57.554  40.949  39.2500  0.00  0.00     0.000 OA
ENDBRANCH 59 66
BRANCH 62 70
ATOM     70   C  A00 X   4      59.090  37.691  45.4360  0.00  0.00     0.000 C
ATOM     71   O  A00 X   4      56.385  35.294  45.6480  0.00  0.00     0.000 OA
ATOM     72   O  A00 X   4      57.028  37.015  47.1200  0.00  0.00     0.000 OA
ATOM     73   O  A00 X   4      58.119  36.728  44.9960  0.00  0.00     0.000 O
ATOM     74   O  A00 X   4      55.863  37.571  45.0540  0.00  0.00     0.000 OA
ATOM     75   S  A00 X   4      56.741  36.682  45.7430  0.00  0.00     0.000 S
ENDBRANCH 62 70
ENDBRANCH 57 61
ENDBRANCH 41 57
ENDBRANCH 40 44
ENDBRANCH 20 40
ENDBRANCH 19 23
ENDBRANCH 1 19
TORSDOF 14
ENDMDL
MODEL 45
REMARK VINA RESULT:      -1.1     69.670     75.073
ROOT
ATOM      1  C1  A00 X   1      62.003  45.119  55.6270  0.00  0.00     0.000 C
ATOM      2  C2  A00 X   1      60.738  44.788  54.7910  0.00  0.00     0.000 C
ATOM      3  C3  A00 X   1      59.368  44.920  55.5340  0.00  0.00     0.000 C
ATOM      4  C4  A00 X   1      59.452  45.001  57.0800  0.00  0.00     0.000 C
ATOM      5  C5  A00 X   1      60.751  44.404  57.6200  0.00  0.00     0.000 C
ATOM      6  O5  A00 X   1      61.796  45.229  57.0580  0.00  0.00     0.000 O
ATOM      7   O  A00 X   1      58.571  43.777  55.2320  0.00  0.00     0.000 O
ATOM      9  HD  A00 X   1      58.467  43.945  56.0750  0.00  0.00     0.000 HD
ATOM      9   O  A00 X   1      59.310  46.344  57.5410  0.00  0.00     0.000 O
ATOM     11  HD  A00 X   1      59.206  46.512  58.3840  0.00  0.00     0.000 HD
ENDROOT
BRANCH 2 11
ATOM     11   O  A00 X   1      60.733  45.656  53.6410  0.00  0.00     0.000 O
ATOM     12   O  A00 X   1      59.060  45.485  51.9270  0.00  0.00     0.000 OA
ATOM     13   O  A00 X   1      60.586  43.626  52.2900  0.00  0.00     0.000 OA
ATOM     14   O  A00 X   1      61.382  45.682  51.3980  0.00  0.00     0.000 OA
ATOM     15   S  A00 X   1      60.399  45.050  52.2350  0.00  0.00     0.000 S
ENDBRANCH 2 11
BRANCH 5 16
ATOM     16   C  A00 X   1      60.939  42.908  57.3490  0.00  0.00     0.000 C
ATOM     17   O  A00 X   1      62.023  42.409  57.5700  0.00  0.00     0.000 OA
ATOM     18   O  A00 X   1      60.042  42.204  56.9290  0.00  0.00     0.000 OA
ENDBRANCH 5 16
BRANCH 1 19
ATOM     19  O4  A00 X   2      63.121  44.250  55.3210  0.00  0.00     0.000 O
BRANCH 19 23
ATOM     20  C1  A00 X   2      66.043  47.356  55.7470  0.00  0.00     0.000 C
ATOM     21  C2  A00 X   2      65.567  47.014  54.3140  0.00  0.00     0.000 C
ATOM     22  C3  A00 X   2      64.245  46.220  54.3490  0.00  0.00     0.000 C
ATOM     23  C4  A00 X   2      64.385  44.971  55.2490  0.00  0.00     0.000 C
ATOM     24  C5  A00 X   2      64.882  45.444  56.6430  0.00  0.00     0.000 C
ATOM     25  O5  A00 X   2      66.162  46.108  56.4810  0.00  0.00     0.000 O
ATOM     26   O  A00 X   2      63.811  45.987  52.9980  0.00  0.00     0.000 O
ATOM     28  HD  A00 X   2      64.582  45.679  52.7510  0.00  0.00     0.000 HD
BRANCH 21 30
ATOM     28   N  A00 X   2      66.921  47.309  53.8350  0.00  0.00     0.000 N
ATOM     30  HD  A00 X   2      66.406  47.300  53.1400  0.00  0.00     0.000 HD
ATOM     30   O  A00 X   2      66.756  48.161  51.6660  0.00  0.00     0.000 OA
ATOM     31   S  A00 X   2      67.273  47.013  52.3230  0.00  0.00     0.000 S
ATOM     32   O  A00 X   2      68.699  46.906  52.3210  0.00  0.00     0.000 OA
ATOM     33   O  A00 X   2      66.679  45.752  51.9900  0.00  0.00     0.000 OA
ENDBRANCH 21 30
BRANCH 24 34
ATOM     34   C  A00 X   2      64.885  44.417  57.7990  0.00  0.00     0.000 C
ATOM     35   O  A00 X   2      67.879  43.352  59.5770  0.00  0.00     0.000 OA
ATOM     36   O  A00 X   2      66.216  43.931  58.0640  0.00  0.00     0.000 O
ATOM     37   O  A00 X   2      67.197  45.608  59.3680  0.00  0.00     0.000 OA
ATOM     38   S  A00 X   2      66.771  44.248  59.5010  0.00  0.00     0.000 S
ATOM     39   O  A00 X   2      65.705  43.974  60.4170  0.00  0.00     0.000 OA
ENDBRANCH 24 34
BRANCH 20 40
ATOM     40  O4  A00 X   3      64.998  48.153  56.3230  0.00  0.00     0.000 O
BRANCH 40 44
ATOM     41  C1  A00 X   3      62.913  48.892  59.1910  0.00  0.00     0.000 C
ATOM     42  C2  A00 X   3      62.821  49.611  57.8280  0.00  0.00     0.000 C
ATOM     43  C3  A00 X   3      64.216  50.107  57.3670  0.00  0.00     0.000 C
ATOM     44  C4  A00 X   3      65.311  49.048  57.4120  0.00  0.00     0.000 C
ATOM     45  C5  A00 X   3      65.343  48.375  58.8120  0.00  0.00     0.000 C
ATOM     46  O5  A00 X   3      64.005  47.932  59.2110  0.00  0.00     0.000 O
ATOM     47   O  A00 X   3      64.240  50.864  56.1590  0.00  0.00     0.000 O
ATOM     49  HD  A00 X   3      64.968  50.415  56.0250  0.00  0.00     0.000 HD
BRANCH 42 49
ATOM     49   O  A00 X   3      62.259  48.669  56.8890  0.00  0.00     0.000 O
ATOM     50   O  A00 X   3      61.741  48.651  54.5520  0.00  0.00     0.000 OA
ATOM     51   O  A00 X   3      61.252  50.589  55.8140  0.00  0.00     0.000 OA
ATOM     52   O  A00 X   3      60.004  48.626  56.2340  0.00  0.00     0.000 OA
ATOM     53   S  A00 X   3      61.255  49.147  55.8010  0.00  0.00     0.000 S
ENDBRANCH 42 49
BRANCH 45 54
ATOM     54   C  A00 X   3      66.019  49.271  59.8570  0.00  0.00     0.000 C
ATOM     55   O  A00 X   3      66.320  50.416  59.5890  0.00  0.00     0.000 OA
ATOM     56   O  A00 X   3      66.266  48.849  60.9770  0.00  0.00     0.000 OA
ENDBRANCH 45 54
BRANCH 41 57
ATOM     57  O4  A00 X   4      62.935  49.831  60.2900  0.00  0.00     0.000 O
BRANCH 57 61
ATOM     58  C1  A00 X   4      61.399  49.675  64.3220  0.00  0.00     0.000 C
ATOM     59  C2  A00 X   4      62.476  48.645  63.8990  0.00  0.00     0.000 C
ATOM     60  C3  A00 X   4      63.198  49.015  62.5870  0.00  0.00     0.000 C
ATOM     61  C4  A00 X   4      62.202  49.412  61.4760  0.00  0.00     0.000 C
ATOM     62  C5  A00 X   4      61.371  50.592  62.0370  0.00  0.00     0.000 C
ATOM     63  O5  A00 X   4      60.622  50.141  63.1940  0.00  0.00     0.000 O
BRANCH 59 66
ATOM     64   N  A00 X   4      61.862  47.329  63.6470  0.00  0.00     0.000 N
ATOM     66  HD  A00 X   4      61.036  47.316  63.3870  0.00  0.00     0.000 HD
ATOM     66   O  A00 X   4      61.924  46.958  66.0260  0.00  0.00     0.000 OA
ATOM     67   S  A00 X   4      61.944  46.223  64.8000  0.00  0.00     0.000 S
ATOM     68   O  A00 X   4      60.760  45.465  64.5160  0.00  0.00     0.000 OA
ATOM     69   O  A00 X   4      63.165  45.565  64.4330  0.00  0.00     0.000 OA
ENDBRANCH 59 66
BRANCH 62 70
ATOM     70   C  A00 X   4      60.381  51.208  61.0200  0.00  0.00     0.000 C
ATOM     71   O  A00 X   4      57.362  49.761  59.6430  0.00  0.00     0.000 OA
ATOM     72   O  A00 X   4      59.178  50.820  58.5820  0.00  0.00     0.000 OA
ATOM     73   O  A00 X   4      59.203  50.389  60.9480  0.00  0.00     0.000 O
ATOM     74   O  A00 X   4      59.431  48.544  59.4150  0.00  0.00     0.000 OA
ATOM     75   S  A00 X   4      58.793  49.814  59.5480  0.00  0.00     0.000 S
ENDBRANCH 62 70
ENDBRANCH 57 61
ENDBRANCH 41 57
ENDBRANCH 40 44
ENDBRANCH 20 40
ENDBRANCH 19 23
ENDBRANCH 1 19
TORSDOF 14
ENDMDL
MODEL 46
REMARK VINA RESULT:      -1.1     37.425     42.383
ROOT
ATOM      1  C1  A00 X   1      23.824  26.646  58.1190  0.00  0.00     0.000 C
ATOM      2  C2  A00 X   1      24.363  28.084  58.3430  0.00  0.00     0.000 C
ATOM      3  C3  A00 X   1      23.393  29.078  59.0630  0.00  0.00     0.000 C
ATOM      4  C4  A00 X   1      21.910  28.632  59.1310  0.00  0.00     0.000 C
ATOM      5  C5  A00 X   1      21.563  27.611  58.0480  0.00  0.00     0.000 C
ATOM      6  O5  A00 X   1      22.402  26.470  58.3370  0.00  0.00     0.000 O
ATOM      7   O  A00 X   1      23.410  30.320  58.3640  0.00  0.00     0.000 O
ATOM      9  HD  A00 X   1      22.586  30.159  58.5770  0.00  0.00     0.000 HD
ATOM      9   O  A00 X   1      21.583  28.102  60.4160  0.00  0.00     0.000 O
ATOM     11  HD  A00 X   1      20.760  27.940  60.6290  0.00  0.00     0.000 HD
ENDROOT
BRANCH 2 11
ATOM     11   O  A00 X   1      25.581  27.982  59.1060  0.00  0.00     0.000 O
ATOM     12   O  A00 X   1      26.925  29.905  59.6170  0.00  0.00     0.000 OA
ATOM     13   O  A00 X   1      26.649  29.227  57.2970  0.00  0.00     0.000 OA
ATOM     14   O  A00 X   1      27.894  27.876  58.8070  0.00  0.00     0.000 OA
ATOM     15   S  A00 X   1      26.825  28.827  58.6660  0.00  0.00     0.000 S
ENDBRANCH 2 11
BRANCH 5 16
ATOM     16   C  A00 X   1      21.697  28.121  56.6100  0.00  0.00     0.000 C
ATOM     17   O  A00 X   1      21.630  27.321  55.7000  0.00  0.00     0.000 OA
ATOM     18   O  A00 X   1      21.860  29.297  56.3480  0.00  0.00     0.000 OA
ENDBRANCH 5 16
BRANCH 1 19
ATOM     19  O4  A00 X   2      24.238  26.082  56.8510  0.00  0.00     0.000 O
BRANCH 19 23
ATOM     20  C1  A00 X   2      24.723  22.123  58.4180  0.00  0.00     0.000 C
ATOM     21  C2  A00 X   2      25.992  23.001  58.2880  0.00  0.00     0.000 C
ATOM     22  C3  A00 X   2      25.617  24.489  58.1340  0.00  0.00     0.000 C
ATOM     23  C4  A00 X   2      24.630  24.684  56.9620  0.00  0.00     0.000 C
ATOM     24  C5  A00 X   2      23.418  23.742  57.2000  0.00  0.00     0.000 C
ATOM     25  O5  A00 X   2      23.894  22.372  57.2520  0.00  0.00     0.000 O
ATOM     26   O  A00 X   2      26.826  25.267  58.0860  0.00  0.00     0.000 O
ATOM     28  HD  A00 X   2      27.182  24.768  57.4750  0.00  0.00     0.000 HD
BRANCH 21 30
ATOM     28   N  A00 X   2      26.751  21.787  57.9690  0.00  0.00     0.000 N
ATOM     30  HD  A00 X   2      27.330  22.400  58.1680  0.00  0.00     0.000 HD
ATOM     30   O  A00 X   2      28.928  22.060  58.7710  0.00  0.00     0.000 OA
ATOM     31   S  A00 X   2      28.261  21.933  57.5240  0.00  0.00     0.000 S
ATOM     32   O  A00 X   2      28.525  20.716  56.8190  0.00  0.00     0.000 OA
ATOM     33   O  A00 X   2      28.334  23.051  56.6320  0.00  0.00     0.000 OA
ENDBRANCH 21 30
BRANCH 24 34
ATOM     34   C  A00 X   2      22.178  23.910  56.2900  0.00  0.00     0.000 C
ATOM     35   O  A00 X   2      20.953  21.342  54.0180  0.00  0.00     0.000 OA
ATOM     36   O  A00 X   2      22.142  22.898  55.2640  0.00  0.00     0.000 O
ATOM     37   O  A00 X   2      21.271  21.011  56.3380  0.00  0.00     0.000 OA
ATOM     38   S  A00 X   2      20.898  21.937  55.3130  0.00  0.00     0.000 S
ATOM     39   O  A00 X   2      19.755  22.767  55.5510  0.00  0.00     0.000 OA
ENDBRANCH 24 34
BRANCH 20 40
ATOM     40  O4  A00 X   3      24.048  22.591  59.5950  0.00  0.00     0.000 O
BRANCH 40 44
ATOM     41  C1  A00 X   3      20.918  23.513  61.1690  0.00  0.00     0.000 C
ATOM     42  C2  A00 X   3      22.302  23.591  61.8490  0.00  0.00     0.000 C
ATOM     43  C3  A00 X   3      23.069  22.252  61.7040  0.00  0.00     0.000 C
ATOM     44  C4  A00 X   3      23.133  21.710  60.2810  0.00  0.00     0.000 C
ATOM     45  C5  A00 X   3      21.705  21.656  59.6680  0.00  0.00     0.000 C
ATOM     46  O5  A00 X   3      21.015  22.937  59.8370  0.00  0.00     0.000 O
ATOM     47   O  A00 X   3      24.328  22.179  62.3700  0.00  0.00     0.000 O
ATOM     49  HD  A00 X   3      24.555  21.748  61.6540  0.00  0.00     0.000 HD
BRANCH 42 49
ATOM     49   O  A00 X   3      23.018  24.680  61.2270  0.00  0.00     0.000 O
ATOM     50   O  A00 X   3      25.201  25.645  61.4070  0.00  0.00     0.000 OA
ATOM     51   O  A00 X   3      24.071  25.004  63.3820  0.00  0.00     0.000 OA
ATOM     52   O  A00 X   3      23.228  26.832  62.1440  0.00  0.00     0.000 OA
ATOM     53   S  A00 X   3      23.940  25.602  62.0770  0.00  0.00     0.000 S
ENDBRANCH 42 49
BRANCH 45 54
ATOM     54   C  A00 X   3      20.903  20.463  60.2010  0.00  0.00     0.000 C
ATOM     55   O  A00 X   3      19.832  20.168  59.7090  0.00  0.00     0.000 OA
ATOM     56   O  A00 X   3      21.324  19.791  61.1290  0.00  0.00     0.000 OA
ENDBRANCH 45 54
BRANCH 41 57
ATOM     57  O4  A00 X   4      19.942  22.868  62.0180  0.00  0.00     0.000 O
BRANCH 57 61
ATOM     58  C1  A00 X   4      15.695  23.427  62.5600  0.00  0.00     0.000 C
ATOM     59  C2  A00 X   4      16.215  23.003  61.1640  0.00  0.00     0.000 C
ATOM     60  C3  A00 X   4      17.669  22.491  61.1790  0.00  0.00     0.000 C
ATOM     61  C4  A00 X   4      18.603  23.437  61.9630  0.00  0.00     0.000 C
ATOM     62  C5  A00 X   4      18.010  23.551  63.3890  0.00  0.00     0.000 C
ATOM     63  O5  A00 X   4      16.693  24.155  63.3120  0.00  0.00     0.000 O
BRANCH 59 66
ATOM     64   N  A00 X   4      16.217  24.151  60.2390  0.00  0.00     0.000 N
ATOM     66  HD  A00 X   4      16.315  24.940  60.5810  0.00  0.00     0.000 HD
ATOM     66   O  A00 X   4      13.869  23.748  59.8910  0.00  0.00     0.000 OA
ATOM     67   S  A00 X   4      15.000  24.299  59.2120  0.00  0.00     0.000 S
ATOM     68   O  A00 X   4      14.981  25.722  59.0370  0.00  0.00     0.000 OA
ATOM     69   O  A00 X   4      15.525  23.575  58.0900  0.00  0.00     0.000 OA
ENDBRANCH 59 66
BRANCH 62 70
ATOM     70   C  A00 X   4      18.874  24.381  64.3690  0.00  0.00     0.000 C
ATOM     71   O  A00 X   4      19.508  27.945  64.3640  0.00  0.00     0.000 OA
ATOM     72   O  A00 X   4      20.991  26.124  64.5300  0.00  0.00     0.000 OA
ATOM     73   O  A00 X   4      18.643  25.780  64.1390  0.00  0.00     0.000 O
ATOM     74   O  A00 X   4      20.008  26.683  62.3710  0.00  0.00     0.000 OA
ATOM     75   S  A00 X   4      19.878  26.681  63.7930  0.00  0.00     0.000 S
ENDBRANCH 62 70
ENDBRANCH 57 61
ENDBRANCH 41 57
ENDBRANCH 40 44
ENDBRANCH 20 40
ENDBRANCH 19 23
ENDBRANCH 1 19
TORSDOF 14
ENDMDL
MODEL 47
REMARK VINA RESULT:      -1.1     56.805     61.854
ROOT
ATOM      1  C1  A00 X   1      56.355  23.255  57.2750  0.00  0.00     0.000 C
ATOM      2  C2  A00 X   1      56.690  23.230  58.7910  0.00  0.00     0.000 C
ATOM      3  C3  A00 X   1      57.943  22.390  59.2040  0.00  0.00     0.000 C
ATOM      4  C4  A00 X   1      58.470  21.403  58.1310  0.00  0.00     0.000 C
ATOM      5  C5  A00 X   1      57.394  21.032  57.1100  0.00  0.00     0.000 C
ATOM      6  O5  A00 X   1      57.055  22.279  56.4640  0.00  0.00     0.000 O
ATOM      7   O  A00 X   1      57.610  21.605  60.3470  0.00  0.00     0.000 O
ATOM      9  HD  A00 X   1      58.079  21.103  59.8200  0.00  0.00     0.000 HD
ATOM      9   O  A00 X   1      59.614  21.927  57.4570  0.00  0.00     0.000 O
ATOM     11  HD  A00 X   1      60.083  21.425  56.9300  0.00  0.00     0.000 HD
ENDROOT
BRANCH 2 11
ATOM     11   O  A00 X   1      56.876  24.593  59.2210  0.00  0.00     0.000 O
ATOM     12   O  A00 X   1      57.676  25.133  61.4200  0.00  0.00     0.000 OA
ATOM     13   O  A00 X   1      55.533  24.007  61.1750  0.00  0.00     0.000 OA
ATOM     14   O  A00 X   1      55.801  26.258  60.4540  0.00  0.00     0.000 OA
ATOM     15   S  A00 X   1      56.450  24.994  60.6750  0.00  0.00     0.000 S
ENDBRANCH 2 11
BRANCH 5 16
ATOM     16   C  A00 X   1      56.183  20.291  57.6860  0.00  0.00     0.000 C
ATOM     17   O  A00 X   1      55.200  20.154  56.9880  0.00  0.00     0.000 OA
ATOM     18   O  A00 X   1      56.174  19.831  58.8110  0.00  0.00     0.000 OA
ENDBRANCH 5 16
BRANCH 1 19
ATOM     19  O4  A00 X   2      54.930  23.233  57.0150  0.00  0.00     0.000 O
BRANCH 19 23
ATOM     20  C1  A00 X   2      55.169  26.008  53.7580  0.00  0.00     0.000 C
ATOM     21  C2  A00 X   2      54.780  26.569  55.1470  0.00  0.00     0.000 C
ATOM     22  C3  A00 X   2      55.152  25.573  56.2660  0.00  0.00     0.000 C
ATOM     23  C4  A00 X   2      54.536  24.184  55.9850  0.00  0.00     0.000 C
ATOM     24  C5  A00 X   2      54.983  23.744  54.5640  0.00  0.00     0.000 C
ATOM     25  O5  A00 X   2      54.510  24.723  53.6020  0.00  0.00     0.000 O
ATOM     26   O  A00 X   2      54.835  26.167  57.5360  0.00  0.00     0.000 O
ATOM     28  HD  A00 X   2      54.031  26.379  57.2930  0.00  0.00     0.000 HD
BRANCH 21 30
ATOM     28   N  A00 X   2      53.905  27.532  54.4720  0.00  0.00     0.000 N
ATOM     30  HD  A00 X   2      54.012  27.816  55.2830  0.00  0.00     0.000 HD
ATOM     30   O  A00 X   2      53.851  29.486  55.7510  0.00  0.00     0.000 OA
ATOM     31   S  A00 X   2      52.966  28.450  55.3520  0.00  0.00     0.000 S
ATOM     32   O  A00 X   2      51.937  28.852  54.4430  0.00  0.00     0.000 OA
ATOM     33   O  A00 X   2      52.420  27.627  56.3890  0.00  0.00     0.000 OA
ENDBRANCH 21 30
BRANCH 24 34
ATOM     34   C  A00 X   2      54.691  22.289  54.1290  0.00  0.00     0.000 C
ATOM     35   O  A00 X   2      51.361  20.820  54.0250  0.00  0.00     0.000 OA
ATOM     36   O  A00 X   2      53.364  21.883  54.5200  0.00  0.00     0.000 O
ATOM     37   O  A00 X   2      51.968  22.799  52.8820  0.00  0.00     0.000 OA
ATOM     38   S  A00 X   2      52.400  21.512  53.3350  0.00  0.00     0.000 S
ATOM     39   O  A00 X   2      53.164  20.711  52.4270  0.00  0.00     0.000 OA
ENDBRANCH 24 34
BRANCH 20 40
ATOM     40  O4  A00 X   3      56.590  25.816  53.8010  0.00  0.00     0.000 O
BRANCH 40 44
ATOM     41  C1  A00 X   3      59.381  23.630  53.0580  0.00  0.00     0.000 C
ATOM     42  C2  A00 X   3      59.499  25.000  53.7590  0.00  0.00     0.000 C
ATOM     43  C3  A00 X   3      58.763  26.101  52.9540  0.00  0.00     0.000 C
ATOM     44  C4  A00 X   3      57.332  25.751  52.5650  0.00  0.00     0.000 C
ATOM     45  C5  A00 X   3      57.296  24.365  51.8620  0.00  0.00     0.000 C
ATOM     46  O5  A00 X   3      58.011  23.360  52.6510  0.00  0.00     0.000 O
ATOM     47   O  A00 X   3      58.879  27.428  53.4630  0.00  0.00     0.000 O
ATOM     49  HD  A00 X   3      58.048  27.473  53.2220  0.00  0.00     0.000 HD
BRANCH 42 49
ATOM     49   O  A00 X   3      58.938  24.849  55.0820  0.00  0.00     0.000 O
ATOM     50   O  A00 X   3      58.514  26.274  56.9570  0.00  0.00     0.000 OA
ATOM     51   O  A00 X   3      60.549  26.515  55.7790  0.00  0.00     0.000 OA
ATOM     52   O  A00 X   3      60.202  24.545  57.0380  0.00  0.00     0.000 OA
ATOM     53   S  A00 X   3      59.577  25.585  56.2960  0.00  0.00     0.000 S
ENDBRANCH 42 49
BRANCH 45 54
ATOM     54   C  A00 X   3      57.784  24.451  50.4110  0.00  0.00     0.000 C
ATOM     55   O  A00 X   3      57.638  23.515  49.6520  0.00  0.00     0.000 OA
ATOM     56   O  A00 X   3      58.329  25.461  49.9930  0.00  0.00     0.000 OA
ENDBRANCH 45 54
BRANCH 41 57
ATOM     57  O4  A00 X   4      60.349  23.489  51.9940  0.00  0.00     0.000 O
BRANCH 57 61
ATOM     58  C1  A00 X   4      62.540  20.108  50.4430  0.00  0.00     0.000 C
ATOM     59  C2  A00 X   4      60.993  20.081  50.3790  0.00  0.00     0.000 C
ATOM     60  C3  A00 X   4      60.343  21.460  50.6190  0.00  0.00     0.000 C
ATOM     61  C4  A00 X   4      60.933  22.163  51.8600  0.00  0.00     0.000 C
ATOM     62  C5  A00 X   4      62.459  22.271  51.6160  0.00  0.00     0.000 C
ATOM     63  O5  A00 X   4      63.023  20.938  51.5250  0.00  0.00     0.000 O
BRANCH 59 66
ATOM     64   N  A00 X   4      60.452  19.205  51.4330  0.00  0.00     0.000 N
ATOM     66  HD  A00 X   4      60.922  19.110  52.1540  0.00  0.00     0.000 HD
ATOM     66   O  A00 X   4      60.900  17.342  49.9740  0.00  0.00     0.000 OA
ATOM     67   S  A00 X   4      60.016  17.719  51.0320  0.00  0.00     0.000 S
ATOM     68   O  A00 X   4      60.224  17.043  52.2800  0.00  0.00     0.000 OA
ATOM     69   O  A00 X   4      58.636  17.939  50.7060  0.00  0.00     0.000 OA
ENDBRANCH 59 66
BRANCH 62 70
ATOM     70   C  A00 X   4      63.220  23.053  52.7130  0.00  0.00     0.000 C
ATOM     71   O  A00 X   4      63.839  22.103  56.1510  0.00  0.00     0.000 OA
ATOM     72   O  A00 X   4      63.006  24.108  55.2390  0.00  0.00     0.000 OA
ATOM     73   O  A00 X   4      63.435  22.196  53.8450  0.00  0.00     0.000 O
ATOM     74   O  A00 X   4      61.562  22.149  55.3600  0.00  0.00     0.000 OA
ATOM     75   S  A00 X   4      62.886  22.667  55.2370  0.00  0.00     0.000 S
ENDBRANCH 62 70
ENDBRANCH 57 61
ENDBRANCH 41 57
ENDBRANCH 40 44
ENDBRANCH 20 40
ENDBRANCH 19 23
ENDBRANCH 1 19
TORSDOF 14
ENDMDL
MODEL 48
REMARK VINA RESULT:      -1.1     38.489     45.381
ROOT
ATOM      1  C1  A00 X   1      29.264  12.748  63.0660  0.00  0.00     0.000 C
ATOM      2  C2  A00 X   1      29.890  11.338  62.8900  0.00  0.00     0.000 C
ATOM      3  C3  A00 X   1      29.291  10.457  61.7450  0.00  0.00     0.000 C
ATOM      4  C4  A00 X   1      27.929  10.935  61.1780  0.00  0.00     0.000 C
ATOM      5  C5  A00 X   1      27.171  11.822  62.1650  0.00  0.00     0.000 C
ATOM      6  O5  A00 X   1      28.023  12.974  62.3520  0.00  0.00     0.000 O
ATOM      7   O  A00 X   1      29.081   9.139  62.2450  0.00  0.00     0.000 O
ATOM      9  HD  A00 X   1      28.393   9.340  61.7590  0.00  0.00     0.000 HD
ATOM      9   O  A00 X   1      28.093  11.623  59.9380  0.00  0.00     0.000 O
ATOM     11  HD  A00 X   1      27.405  11.825  59.4520  0.00  0.00     0.000 HD
ENDROOT
BRANCH 2 11
ATOM     11   O  A00 X   1      31.302  11.512  62.6590  0.00  0.00     0.000 O
ATOM     12   O  A00 X   1      32.727   9.672  62.0640  0.00  0.00     0.000 OA
ATOM     13   O  A00 X   1      31.639   9.681  64.2400  0.00  0.00     0.000 OA
ATOM     14   O  A00 X   1      33.353  11.253  63.7440  0.00  0.00     0.000 OA
ATOM     15   S  A00 X   1      32.298  10.435  63.2100  0.00  0.00     0.000 S
ENDBRANCH 2 11
BRANCH 5 16
ATOM     16   C  A00 X   1      26.770  11.136  63.4760  0.00  0.00     0.000 C
ATOM     17   O  A00 X   1      26.355  11.823  64.3870  0.00  0.00     0.000 OA
ATOM     18   O  A00 X   1      26.847   9.934  63.6330  0.00  0.00     0.000 OA
ENDBRANCH 5 16
BRANCH 1 19
ATOM     19  O4  A00 X   2      29.155  13.144  64.4550  0.00  0.00     0.000 O
BRANCH 19 23
ATOM     20  C1  A00 X   2      30.270  17.212  63.6970  0.00  0.00     0.000 C
ATOM     21  C2  A00 X   2      31.371  16.253  64.2080  0.00  0.00     0.000 C
ATOM     22  C3  A00 X   2      30.949  14.781  64.0200  0.00  0.00     0.000 C
ATOM     23  C4  A00 X   2      29.575  14.521  64.6770  0.00  0.00     0.000 C
ATOM     24  C5  A00 X   2      28.569  15.553  64.0970  0.00  0.00     0.000 C
ATOM     25  O5  A00 X   2      29.042  16.890  64.4030  0.00  0.00     0.000 O
ATOM     26   O  A00 X   2      32.030  13.933  64.4450  0.00  0.00     0.000 O
ATOM     28  HD  A00 X   2      32.119  14.342  65.2030  0.00  0.00     0.000 HD
BRANCH 21 30
ATOM     28   N  A00 X   2      31.955  17.378  64.9460  0.00  0.00     0.000 N
ATOM     30  HD  A00 X   2      32.559  16.757  64.9160  0.00  0.00     0.000 HD
ATOM     30   O  A00 X   2      34.269  17.065  65.0370  0.00  0.00     0.000 OA
ATOM     31   S  A00 X   2      33.163  17.096  65.9270  0.00  0.00     0.000 S
ATOM     32   O  A00 X   2      33.139  18.212  66.8220  0.00  0.00     0.000 OA
ATOM     33   O  A00 X   2      32.862  15.886  66.6320  0.00  0.00     0.000 OA
ENDBRANCH 21 30
BRANCH 24 34
ATOM     34   C  A00 X   2      27.068  15.363  64.4180  0.00  0.00     0.000 C
ATOM     35   O  A00 X   2      25.061  17.761  66.2840  0.00  0.00     0.000 OA
ATOM     36   O  A00 X   2      26.635  16.273  65.4490  0.00  0.00     0.000 O
ATOM     37   O  A00 X   2      26.280  18.295  64.3290  0.00  0.00     0.000 OA
ATOM     38   S  A00 X   2      25.521  17.296  65.0170  0.00  0.00     0.000 S
ATOM     39   O  A00 X   2      24.561  16.552  64.2570  0.00  0.00     0.000 OA
ENDBRANCH 24 34
BRANCH 20 40
ATOM     40  O4  A00 X   3      30.113  16.914  62.3020  0.00  0.00     0.000 O
BRANCH 40 44
ATOM     41  C1  A00 X   3      27.859  16.342  59.5240  0.00  0.00     0.000 C
ATOM     42  C2  A00 X   3      29.399  16.263  59.4390  0.00  0.00     0.000 C
ATOM     43  C3  A00 X   3      30.053  17.535  60.0370  0.00  0.00     0.000 C
ATOM     44  C4  A00 X   3      29.551  17.913  61.4240  0.00  0.00     0.000 C
ATOM     45  C5  A00 X   3      27.997  17.976  61.4290  0.00  0.00     0.000 C
ATOM     46  O5  A00 X   3      27.423  16.761  60.8460  0.00  0.00     0.000 O
ATOM     47   O  A00 X   3      31.474  17.612  59.9340  0.00  0.00     0.000 O
ATOM     49  HD  A00 X   3      31.401  17.948  60.7280  0.00  0.00     0.000 HD
BRANCH 42 49
ATOM     49   O  A00 X   3      29.802  15.075  60.1540  0.00  0.00     0.000 O
ATOM     50   O  A00 X   3      31.871  14.011  60.7190  0.00  0.00     0.000 OA
ATOM     51   O  A00 X   3      31.610  14.922  58.5530  0.00  0.00     0.000 OA
ATOM     52   O  A00 X   3      30.329  13.024  59.1390  0.00  0.00     0.000 OA
ATOM     53   S  A00 X   3      30.972  14.197  59.6230  0.00  0.00     0.000 S
ENDBRANCH 42 49
BRANCH 45 54
ATOM     54   C  A00 X   3      27.480  19.262  60.7730  0.00  0.00     0.000 C
ATOM     55   O  A00 X   3      26.299  19.543  60.8070  0.00  0.00     0.000 OA
ATOM     56   O  A00 X   3      28.245  20.026  60.2040  0.00  0.00     0.000 OA
ENDBRANCH 45 54
BRANCH 41 57
ATOM     57  O4  A00 X   4      27.304  17.127  58.4450  0.00  0.00     0.000 O
BRANCH 57 61
ATOM     58  C1  A00 X   4      23.619  16.863  56.2110  0.00  0.00     0.000 C
ATOM     59  C2  A00 X   4      23.544  17.110  57.7390  0.00  0.00     0.000 C
ATOM     60  C3  A00 X   4      24.889  17.540  58.3590  0.00  0.00     0.000 C
ATOM     61  C4  A00 X   4      26.049  16.630  57.9010  0.00  0.00     0.000 C
ATOM     62  C5  A00 X   4      26.071  16.699  56.3530  0.00  0.00     0.000 C
ATOM     63  O5  A00 X   4      24.827  16.163  55.8340  0.00  0.00     0.000 O
BRANCH 59 66
ATOM     64   N  A00 X   4      23.168  15.874  58.4480  0.00  0.00     0.000 N
ATOM     66  HD  A00 X   4      23.386  15.120  58.0820  0.00  0.00     0.000 HD
ATOM     66   O  A00 X   4      20.878  16.367  57.8870  0.00  0.00     0.000 OA
ATOM     67   S  A00 X   4      21.641  15.687  58.8870  0.00  0.00     0.000 S
ATOM     68   O  A00 X   4      21.541  14.257  58.8720  0.00  0.00     0.000 OA
ATOM     69   O  A00 X   4      21.683  16.261  60.2020  0.00  0.00     0.000 OA
ENDBRANCH 59 66
BRANCH 62 70
ATOM     70   C  A00 X   4      27.246  15.930  55.7040  0.00  0.00     0.000 C
ATOM     71   O  A00 X   4      27.786  12.354  55.5270  0.00  0.00     0.000 OA
ATOM     72   O  A00 X   4      29.231  14.093  56.1840  0.00  0.00     0.000 OA
ATOM     73   O  A00 X   4      26.927  14.530  55.6520  0.00  0.00     0.000 O
ATOM     74   O  A00 X   4      27.460  13.364  57.6920  0.00  0.00     0.000 OA
ATOM     75   S  A00 X   4      27.911  13.526  56.3470  0.00  0.00     0.000 S
ENDBRANCH 62 70
ENDBRANCH 57 61
ENDBRANCH 41 57
ENDBRANCH 40 44
ENDBRANCH 20 40
ENDBRANCH 19 23
ENDBRANCH 1 19
TORSDOF 14
ENDMDL
MODEL 49
REMARK VINA RESULT:      -1.1     38.479     42.963
ROOT
ATOM      1  C1  A00 X   1      15.463  11.086  62.9330  0.00  0.00     0.000 C
ATOM      2  C2  A00 X   1      15.683  11.751  61.5490  0.00  0.00     0.000 C
ATOM      3  C3  A00 X   1      15.920  10.777  60.3480  0.00  0.00     0.000 C
ATOM      4  C4  A00 X   1      16.269   9.316  60.7310  0.00  0.00     0.000 C
ATOM      5  C5  A00 X   1      16.845   9.212  62.1430  0.00  0.00     0.000 C
ATOM      6  O5  A00 X   1      15.784   9.675  63.0080  0.00  0.00     0.000 O
ATOM      7   O  A00 X   1      17.012  11.265  59.5720  0.00  0.00     0.000 O
ATOM      9  HD  A00 X   1      17.101  10.405  59.6270  0.00  0.00     0.000 HD
ATOM      9   O  A00 X   1      15.135   8.459  60.6080  0.00  0.00     0.000 O
ATOM     11  HD  A00 X   1      15.225   7.599  60.6640  0.00  0.00     0.000 HD
ENDROOT
BRANCH 2 11
ATOM     11   O  A00 X   1      14.532  12.571  61.2680  0.00  0.00     0.000 O
ATOM     12   O  A00 X   1      14.216  13.631  59.1370  0.00  0.00     0.000 OA
ATOM     13   O  A00 X   1      16.110  14.278  60.5190  0.00  0.00     0.000 OA
ATOM     14   O  A00 X   1      13.891  14.815  61.1870  0.00  0.00     0.000 OA
ATOM     15   S  A00 X   1      14.726  13.899  60.4580  0.00  0.00     0.000 S
ENDBRANCH 2 11
BRANCH 5 16
ATOM     16   C  A00 X   1      18.173   9.946  62.3570  0.00  0.00     0.000 C
ATOM     17   O  A00 X   1      18.583  10.088  63.4900  0.00  0.00     0.000 OA
ATOM     18   O  A00 X   1      18.832  10.383  61.4340  0.00  0.00     0.000 OA
ENDBRANCH 5 16
BRANCH 1 19
ATOM     19  O4  A00 X   2      16.079  11.826  64.0160  0.00  0.00     0.000 O
BRANCH 19 23
ATOM     20  C1  A00 X   2      12.835  11.152  66.7350  0.00  0.00     0.000 C
ATOM     21  C2  A00 X   2      12.860  12.498  65.9710  0.00  0.00     0.000 C
ATOM     22  C3  A00 X   2      13.800  12.421  64.7500  0.00  0.00     0.000 C
ATOM     23  C4  A00 X   2      15.208  11.947  65.1770  0.00  0.00     0.000 C
ATOM     24  C5  A00 X   2      15.045  10.606  65.9430  0.00  0.00     0.000 C
ATOM     25  O5  A00 X   2      14.203  10.830  67.1040  0.00  0.00     0.000 O
ATOM     26   O  A00 X   2      13.735  13.668  64.0380  0.00  0.00     0.000 O
ATOM     28  HD  A00 X   2      13.869  14.140  64.7520  0.00  0.00     0.000 HD
BRANCH 21 30
ATOM     28   N  A00 X   2      12.282  13.138  67.1570  0.00  0.00     0.000 N
ATOM     30  HD  A00 X   2      12.180  13.691  66.4990  0.00  0.00     0.000 HD
ATOM     30   O  A00 X   2      10.935  14.909  66.4450  0.00  0.00     0.000 OA
ATOM     31   S  A00 X   2      12.137  14.712  67.1760  0.00  0.00     0.000 S
ATOM     32   O  A00 X   2      12.056  15.028  68.5680  0.00  0.00     0.000 OA
ATOM     33   O  A00 X   2      13.337  15.254  66.6120  0.00  0.00     0.000 OA
ENDBRANCH 21 30
BRANCH 24 34
ATOM     34   C  A00 X   2      16.323   9.802  66.2800  0.00  0.00     0.000 C
ATOM     35   O  A00 X   2      17.440   9.069  69.6670  0.00  0.00     0.000 OA
ATOM     36   O  A00 X   2      16.699   9.972  67.6610  0.00  0.00     0.000 O
ATOM     37   O  A00 X   2      15.302   8.503  68.8290  0.00  0.00     0.000 OA
ATOM     38   S  A00 X   2      16.692   8.658  68.5240  0.00  0.00     0.000 S
ATOM     39   O  A00 X   2      17.313   7.645  67.7250  0.00  0.00     0.000 OA
ENDBRANCH 24 34
BRANCH 20 40
ATOM     40  O4  A00 X   3      12.351  10.182  65.7940  0.00  0.00     0.000 O
BRANCH 40 44
ATOM     41  C1  A00 X   3      12.647   6.873  64.3500  0.00  0.00     0.000 C
ATOM     42  C2  A00 X   3      11.611   7.933  63.9160  0.00  0.00     0.000 C
ATOM     43  C3  A00 X   3      10.848   8.498  65.1420  0.00  0.00     0.000 C
ATOM     44  C4  A00 X   3      11.742   8.968  66.2830  0.00  0.00     0.000 C
ATOM     45  C5  A00 X   3      12.750   7.847  66.6650  0.00  0.00     0.000 C
ATOM     46  O5  A00 X   3      13.439   7.337  65.4770  0.00  0.00     0.000 O
ATOM     47   O  A00 X   3       9.804   9.425  64.8520  0.00  0.00     0.000 O
ATOM     49  HD  A00 X   3      10.111   9.819  65.5600  0.00  0.00     0.000 HD
BRANCH 42 49
ATOM     49   O  A00 X   3      12.336   8.972  63.2200  0.00  0.00     0.000 O
ATOM     50   O  A00 X   3      11.805  11.080  62.2170  0.00  0.00     0.000 OA
ATOM     51   O  A00 X   3      10.328   9.261  61.8990  0.00  0.00     0.000 OA
ATOM     52   O  A00 X   3      12.461   9.172  60.8840  0.00  0.00     0.000 OA
ATOM     53   S  A00 X   3      11.707   9.673  61.9810  0.00  0.00     0.000 S
ENDBRANCH 42 49
BRANCH 45 54
ATOM     54   C  A00 X   3      12.085   6.744  67.4960  0.00  0.00     0.000 C
ATOM     55   O  A00 X   3      12.750   5.863  68.0000  0.00  0.00     0.000 OA
ATOM     56   O  A00 X   3      10.875   6.732  67.6650  0.00  0.00     0.000 OA
ENDBRANCH 45 54
BRANCH 41 57
ATOM     57  O4  A00 X   4      12.033   5.581  64.5550  0.00  0.00     0.000 O
BRANCH 57 61
ATOM     58  C1  A00 X   4      13.414   1.537  63.9390  0.00  0.00     0.000 C
ATOM     59  C2  A00 X   4      14.158   2.426  64.9670  0.00  0.00     0.000 C
ATOM     60  C3  A00 X   4      13.376   3.695  65.3620  0.00  0.00     0.000 C
ATOM     61  C4  A00 X   4      12.831   4.442  64.1260  0.00  0.00     0.000 C
ATOM     62  C5  A00 X   4      11.948   3.427  63.3580  0.00  0.00     0.000 C
ATOM     63  O5  A00 X   4      12.773   2.322  62.9080  0.00  0.00     0.000 O
BRANCH 59 66
ATOM     64   N  A00 X   4      15.430   2.913  64.4040  0.00  0.00     0.000 N
ATOM     66  HD  A00 X   4      15.478   3.006  63.5440  0.00  0.00     0.000 HD
ATOM     66   O  A00 X   4      16.393   0.789  65.0020  0.00  0.00     0.000 OA
ATOM     67   S  A00 X   4      16.778   2.151  64.8070  0.00  0.00     0.000 S
ATOM     68   O  A00 X   4      17.577   2.406  63.6440  0.00  0.00     0.000 OA
ATOM     69   O  A00 X   4      17.162   2.911  65.9620  0.00  0.00     0.000 OA
ENDBRANCH 59 66
BRANCH 62 70
ATOM     70   C  A00 X   4      11.218   4.026  62.1320  0.00  0.00     0.000 C
ATOM     71   O  A00 X   4      12.619   5.139  58.9850  0.00  0.00     0.000 OA
ATOM     72   O  A00 X   4      11.114   6.198  60.4540  0.00  0.00     0.000 OA
ATOM     73   O  A00 X   4      12.128   4.092  61.0220  0.00  0.00     0.000 O
ATOM     74   O  A00 X   4      13.479   6.086  61.0290  0.00  0.00     0.000 OA
ATOM     75   S  A00 X   4      12.371   5.490  60.3550  0.00  0.00     0.000 S
ENDBRANCH 62 70
ENDBRANCH 57 61
ENDBRANCH 41 57
ENDBRANCH 40 44
ENDBRANCH 20 40
ENDBRANCH 19 23
ENDBRANCH 1 19
TORSDOF 14
ENDMDL
MODEL 50
REMARK VINA RESULT:      -1.1     69.867     75.022
ROOT
ATOM      1  C1  A00 X   1      61.146  54.704  45.2320  0.00  0.00     0.000 C
ATOM      2  C2  A00 X   1      60.934  54.009  43.8610  0.00  0.00     0.000 C
ATOM      3  C3  A00 X   1      62.195  53.902  42.9410  0.00  0.00     0.000 C
ATOM      4  C4  A00 X   1      63.388  54.810  43.3360  0.00  0.00     0.000 C
ATOM      5  C5  A00 X   1      62.950  56.005  44.1820  0.00  0.00     0.000 C
ATOM      6  O5  A00 X   1      62.396  55.422  45.3830  0.00  0.00     0.000 O
ATOM      7   O  A00 X   1      61.826  54.273  41.6150  0.00  0.00     0.000 O
ATOM      9  HD  A00 X   1      62.600  54.628  41.7730  0.00  0.00     0.000 HD
ATOM      9   O  A00 X   1      64.397  54.074  44.0280  0.00  0.00     0.000 O
ATOM     11  HD  A00 X   1      65.170  54.429  44.1860  0.00  0.00     0.000 HD
ENDROOT
BRANCH 2 11
ATOM     11   O  A00 X   1      60.425  52.685  44.1150  0.00  0.00     0.000 O
ATOM     12   O  A00 X   1      60.174  51.063  42.3620  0.00  0.00     0.000 OA
ATOM     13   O  A00 X   1      58.846  53.100  42.2980  0.00  0.00     0.000 OA
ATOM     14   O  A00 X   1      58.447  51.453  43.9680  0.00  0.00     0.000 OA
ATOM     15   S  A00 X   1      59.420  52.050  43.0930  0.00  0.00     0.000 S
ENDBRANCH 2 11
BRANCH 5 16
ATOM     16   C  A00 X   1      62.000  56.981  43.4800  0.00  0.00     0.000 C
ATOM     17   O  A00 X   1      61.439  57.827  44.1460  0.00  0.00     0.000 OA
ATOM     18   O  A00 X   1      61.793  56.943  42.2830  0.00  0.00     0.000 OA
ENDBRANCH 5 16
BRANCH 1 19
ATOM     19  O4  A00 X   2      60.017  55.521  45.6280  0.00  0.00     0.000 O
BRANCH 19 23
ATOM     20  C1  A00 X   2      60.245  54.380  49.7520  0.00  0.00     0.000 C
ATOM     21  C2  A00 X   2      59.220  53.637  48.8610  0.00  0.00     0.000 C
ATOM     22  C3  A00 X   2      59.547  53.834  47.3660  0.00  0.00     0.000 C
ATOM     23  C4  A00 X   2      59.659  55.338  47.0270  0.00  0.00     0.000 C
ATOM     24  C5  A00 X   2      60.697  55.967  47.9960  0.00  0.00     0.000 C
ATOM     25  O5  A00 X   2      60.237  55.778  49.3600  0.00  0.00     0.000 O
ATOM     26   O  A00 X   2      58.612  53.072  46.5840  0.00  0.00     0.000 O
ATOM     28  HD  A00 X   2      57.924  53.395  47.0000  0.00  0.00     0.000 HD
BRANCH 21 30
ATOM     28   N  A00 X   2      58.325  53.559  50.0190  0.00  0.00     0.000 N
ATOM     30  HD  A00 X   2      58.029  52.992  49.4350  0.00  0.00     0.000 HD
ATOM     30   O  A00 X   2      57.080  51.590  49.8440  0.00  0.00     0.000 OA
ATOM     31   S  A00 X   2      56.864  52.993  49.8120  0.00  0.00     0.000 S
ATOM     32   O  A00 X   2      56.136  53.518  50.9260  0.00  0.00     0.000 OA
ATOM     33   O  A00 X   2      56.366  53.545  48.5880  0.00  0.00     0.000 OA
ENDBRANCH 21 30
BRANCH 24 34
ATOM     34   C  A00 X   2      61.164  57.416  47.7190  0.00  0.00     0.000 C
ATOM     35   O  A00 X   2      58.925  60.281  47.5350  0.00  0.00     0.000 OA
ATOM     36   O  A00 X   2      60.055  58.261  47.3550  0.00  0.00     0.000 O
ATOM     37   O  A00 X   2      59.059  58.826  49.3940  0.00  0.00     0.000 OA
ATOM     38   S  A00 X   2      59.777  59.462  48.3320  0.00  0.00     0.000 S
ATOM     39   O  A00 X   2      61.053  60.034  48.6430  0.00  0.00     0.000 OA
ENDBRANCH 24 34
BRANCH 20 40
ATOM     40  O4  A00 X   3      61.521  53.801  49.4400  0.00  0.00     0.000 O
BRANCH 40 44
ATOM     41  C1  A00 X   3      65.029  54.339  48.7150  0.00  0.00     0.000 C
ATOM     42  C2  A00 X   3      64.336  52.959  48.7350  0.00  0.00     0.000 C
ATOM     43  C3  A00 X   3      63.537  52.759  50.0480  0.00  0.00     0.000 C
ATOM     44  C4  A00 X   3      62.596  53.905  50.3980  0.00  0.00     0.000 C
ATOM     45  C5  A00 X   3      63.366  55.255  50.3620  0.00  0.00     0.000 C
ATOM     46  O5  A00 X   3      64.113  55.397  49.1110  0.00  0.00     0.000 O
ATOM     47   O  A00 X   3      62.924  51.482  50.2150  0.00  0.00     0.000 O
ATOM     49  HD  A00 X   3      62.283  51.958  50.5490  0.00  0.00     0.000 HD
BRANCH 42 49
ATOM     49   O  A00 X   3      63.473  52.903  47.5780  0.00  0.00     0.000 O
ATOM     50   O  A00 X   3      61.920  51.334  46.6500  0.00  0.00     0.000 OA
ATOM     51   O  A00 X   3      63.962  50.533  47.5320  0.00  0.00     0.000 OA
ATOM     52   O  A00 X   3      64.021  51.833  45.5600  0.00  0.00     0.000 OA
ATOM     53   S  A00 X   3      63.323  51.579  46.7730  0.00  0.00     0.000 S
ENDBRANCH 42 49
BRANCH 45 54
ATOM     54   C  A00 X   3      64.236  55.446  51.6100  0.00  0.00     0.000 C
ATOM     55   O  A00 X   3      64.765  56.514  51.8380  0.00  0.00     0.000 OA
ATOM     56   O  A00 X   3      64.414  54.527  52.3950  0.00  0.00     0.000 OA
ENDBRANCH 45 54
BRANCH 41 57
ATOM     57  O4  A00 X   4      66.267  54.325  49.4590  0.00  0.00     0.000 O
BRANCH 57 61
ATOM     58  C1  A00 X   4      70.021  56.399  48.9630  0.00  0.00     0.000 C
ATOM     59  C2  A00 X   4      68.744  57.232  49.2350  0.00  0.00     0.000 C
ATOM     60  C3  A00 X   4      67.558  56.390  49.7450  0.00  0.00     0.000 C
ATOM     61  C4  A00 X   4      67.341  55.125  48.8880  0.00  0.00     0.000 C
ATOM     62  C5  A00 X   4      68.675  54.338  48.9270  0.00  0.00     0.000 C
ATOM     63  O5  A00 X   4      69.720  55.140  48.3190  0.00  0.00     0.000 O
BRANCH 59 66
ATOM     64   N  A00 X   4      68.301  57.839  47.9660  0.00  0.00     0.000 N
ATOM     66  HD  A00 X   4      68.512  57.430  47.2320  0.00  0.00     0.000 HD
ATOM     66   O  A00 X   4      69.906  59.590  48.3590  0.00  0.00     0.000 OA
ATOM     67   S  A00 X   4      68.659  59.374  47.6950  0.00  0.00     0.000 S
ATOM     68   O  A00 X   4      68.714  59.377  46.2620  0.00  0.00     0.000 OA
ATOM     69   O  A00 X   4      67.491  60.006  48.2410  0.00  0.00     0.000 OA
ENDBRANCH 59 66
BRANCH 62 70
ATOM     70   C  A00 X   4      68.623  52.970  48.2070  0.00  0.00     0.000 C
ATOM     71   O  A00 X   4      68.369  52.288  44.6610  0.00  0.00     0.000 OA
ATOM     72   O  A00 X   4      67.148  51.426  46.4800  0.00  0.00     0.000 OA
ATOM     73   O  A00 X   4      68.773  53.171  46.7930  0.00  0.00     0.000 O
ATOM     74   O  A00 X   4      66.694  53.686  45.6890  0.00  0.00     0.000 OA
ATOM     75   S  A00 X   4      67.642  52.630  45.8510  0.00  0.00     0.000 S
ENDBRANCH 62 70
ENDBRANCH 57 61
ENDBRANCH 41 57
ENDBRANCH 40 44
ENDBRANCH 20 40
ENDBRANCH 19 23
ENDBRANCH 1 19
TORSDOF 14
ENDMDL
MODEL 51
REMARK VINA RESULT:      -1.1     47.182     51.544
ROOT
ATOM      1  C1  A00 X   1      11.883  52.940  50.0710  0.00  0.00     0.000 C
ATOM      2  C2  A00 X   1      11.749  53.781  48.7730  0.00  0.00     0.000 C
ATOM      3  C3  A00 X   1      10.937  55.112  48.8970  0.00  0.00     0.000 C
ATOM      4  C4  A00 X   1      10.067  55.248  50.1740  0.00  0.00     0.000 C
ATOM      5  C5  A00 X   1       9.732  53.890  50.7910  0.00  0.00     0.000 C
ATOM      6  O5  A00 X   1      11.012  53.329  51.1610  0.00  0.00     0.000 O
ATOM      7   O  A00 X   1      10.046  55.209  47.7890  0.00  0.00     0.000 O
ATOM      9  HD  A00 X   1       9.611  55.473  48.4900  0.00  0.00     0.000 HD
ATOM      9   O  A00 X   1      10.698  56.078  51.1490  0.00  0.00     0.000 O
ATOM     11  HD  A00 X   1      10.263  56.342  51.8500  0.00  0.00     0.000 HD
ENDROOT
BRANCH 2 11
ATOM     11   O  A00 X   1      13.079  54.085  48.3090  0.00  0.00     0.000 O
ATOM     12   O  A00 X   1      13.468  55.257  46.2490  0.00  0.00     0.000 OA
ATOM     13   O  A00 X   1      12.416  53.065  46.1910  0.00  0.00     0.000 OA
ATOM     14   O  A00 X   1      14.697  53.290  46.8250  0.00  0.00     0.000 OA
ATOM     15   S  A00 X   1      13.405  53.920  46.7840  0.00  0.00     0.000 S
ENDBRANCH 2 11
BRANCH 5 16
ATOM     16   C  A00 X   1       8.891  52.965  49.9050  0.00  0.00     0.000 C
ATOM     17   O  A00 X   1       8.754  51.806  50.2400  0.00  0.00     0.000 OA
ATOM     18   O  A00 X   1       8.352  53.351  48.8870  0.00  0.00     0.000 OA
ENDBRANCH 5 16
BRANCH 1 19
ATOM     19  O4  A00 X   2      11.817  51.514  49.8250  0.00  0.00     0.000 O
BRANCH 19 23
ATOM     20  C1  A00 X   2      14.769  50.558  52.7810  0.00  0.00     0.000 C
ATOM     21  C2  A00 X   2      15.235  50.645  51.3070  0.00  0.00     0.000 C
ATOM     22  C3  A00 X   2      14.202  51.402  50.4480  0.00  0.00     0.000 C
ATOM     23  C4  A00 X   2      12.801  50.768  50.5970  0.00  0.00     0.000 C
ATOM     24  C5  A00 X   2      12.460  50.722  52.1120  0.00  0.00     0.000 C
ATOM     25  O5  A00 X   2      13.463  49.923  52.7930  0.00  0.00     0.000 O
ATOM     26   O  A00 X   2      14.711  51.516  49.1080  0.00  0.00     0.000 O
ATOM     28  HD  A00 X   2      14.896  50.671  49.0530  0.00  0.00     0.000 HD
BRANCH 21 30
ATOM     28   N  A00 X   2      16.189  49.567  51.5850  0.00  0.00     0.000 N
ATOM     30  HD  A00 X   2      16.434  49.932  50.8390  0.00  0.00     0.000 HD
ATOM     30   O  A00 X   2      18.067  49.891  50.2340  0.00  0.00     0.000 OA
ATOM     31   S  A00 X   2      17.011  48.953  50.3830  0.00  0.00     0.000 S
ATOM     32   O  A00 X   2      17.409  47.667  50.8660  0.00  0.00     0.000 OA
ATOM     33   O  A00 X   2      16.108  48.812  49.2800  0.00  0.00     0.000 OA
ENDBRANCH 21 30
BRANCH 24 34
ATOM     34   C  A00 X   2      11.017  50.342  52.5200  0.00  0.00     0.000 C
ATOM     35   O  A00 X   2      10.158  47.391  54.4730  0.00  0.00     0.000 OA
ATOM     36   O  A00 X   2      10.943  48.973  52.9660  0.00  0.00     0.000 O
ATOM     37   O  A00 X   2      11.698  49.041  55.1790  0.00  0.00     0.000 OA
ATOM     38   S  A00 X   2      10.489  48.778  54.4590  0.00  0.00     0.000 S
ATOM     39   O  A00 X   2       9.386  49.668  54.6670  0.00  0.00     0.000 OA
ENDBRANCH 24 34
BRANCH 20 40
ATOM     40  O4  A00 X   3      14.647  51.916  53.2290  0.00  0.00     0.000 O
BRANCH 40 44
ATOM     41  C1  A00 X   3      12.711  54.375  55.0550  0.00  0.00     0.000 C
ATOM     42  C2  A00 X   3      14.029  54.671  54.3070  0.00  0.00     0.000 C
ATOM     43  C3  A00 X   3      15.138  53.667  54.7160  0.00  0.00     0.000 C
ATOM     44  C4  A00 X   3      14.725  52.203  54.6420  0.00  0.00     0.000 C
ATOM     45  C5  A00 X   3      13.397  51.984  55.4200  0.00  0.00     0.000 C
ATOM     46  O5  A00 X   3      12.384  52.959  55.0100  0.00  0.00     0.000 O
ATOM     47   O  A00 X   3      16.427  53.898  54.1520  0.00  0.00     0.000 O
ATOM     49  HD  A00 X   3      16.435  53.034  54.1000  0.00  0.00     0.000 HD
BRANCH 42 49
ATOM     49   O  A00 X   3      13.741  54.591  52.8940  0.00  0.00     0.000 O
ATOM     50   O  A00 X   3      14.987  54.773  50.8580  0.00  0.00     0.000 OA
ATOM     51   O  A00 X   3      15.445  56.286  52.6160  0.00  0.00     0.000 OA
ATOM     52   O  A00 X   3      13.366  56.447  51.5050  0.00  0.00     0.000 OA
ATOM     53   S  A00 X   3      14.419  55.575  51.8960  0.00  0.00     0.000 S
ENDBRANCH 42 49
BRANCH 45 54
ATOM     54   C  A00 X   3      13.626  51.954  56.9360  0.00  0.00     0.000 C
ATOM     55   O  A00 X   3      12.729  51.637  57.6910  0.00  0.00     0.000 OA
ATOM     56   O  A00 X   3      14.711  52.250  57.4110  0.00  0.00     0.000 OA
ENDBRANCH 45 54
BRANCH 41 57
ATOM     57  O4  A00 X   4      12.717  54.934  56.3870  0.00  0.00     0.000 O
BRANCH 57 61
ATOM     58  C1  A00 X   4       9.618  56.605  58.8860  0.00  0.00     0.000 C
ATOM     59  C2  A00 X   4       9.501  55.122  58.4520  0.00  0.00     0.000 C
ATOM     60  C3  A00 X   4      10.812  54.544  57.8810  0.00  0.00     0.000 C
ATOM     61  C4  A00 X   4      11.444  55.484  56.8320  0.00  0.00     0.000 C
ATOM     62  C5  A00 X   4      11.667  56.843  57.5430  0.00  0.00     0.000 C
ATOM     63  O5  A00 X   4      10.383  57.388  57.9420  0.00  0.00     0.000 O
BRANCH 59 66
ATOM     64   N  A00 X   4       8.509  54.973  57.3720  0.00  0.00     0.000 N
ATOM     66  HD  A00 X   4       8.382  55.651  56.8480  0.00  0.00     0.000 HD
ATOM     66   O  A00 X   4       6.804  54.988  59.0730  0.00  0.00     0.000 OA
ATOM     67   S  A00 X   4       7.038  54.477  57.7590  0.00  0.00     0.000 S
ATOM     68   O  A00 X   4       6.274  55.092  56.7130  0.00  0.00     0.000 OA
ATOM     69   O  A00 X   4       7.202  53.059  57.6120  0.00  0.00     0.000 OA
ENDBRANCH 59 66
BRANCH 62 70
ATOM     70   C  A00 X   4      12.400  57.895  56.6780  0.00  0.00     0.000 C
ATOM     71   O  A00 X   4      11.212  59.624  53.7270  0.00  0.00     0.000 OA
ATOM     72   O  A00 X   4      13.231  58.481  54.1270  0.00  0.00     0.000 OA
ATOM     73   O  A00 X   4      11.467  58.491  55.7620  0.00  0.00     0.000 O
ATOM     74   O  A00 X   4      11.187  57.213  53.7380  0.00  0.00     0.000 OA
ATOM     75   S  A00 X   4      11.791  58.410  54.2290  0.00  0.00     0.000 S
ENDBRANCH 62 70
ENDBRANCH 57 61
ENDBRANCH 41 57
ENDBRANCH 40 44
ENDBRANCH 20 40
ENDBRANCH 19 23
ENDBRANCH 1 19
TORSDOF 14
ENDMDL
MODEL 52
REMARK VINA RESULT:      -1.1     55.995     61.825
ROOT
ATOM      1  C1  A00 X   1      29.443  30.349  79.0310  0.00  0.00     0.000 C
ATOM      2  C2  A00 X   1      28.541  31.563  79.3800  0.00  0.00     0.000 C
ATOM      3  C3  A00 X   1      28.332  32.614  78.2400  0.00  0.00     0.000 C
ATOM      4  C4  A00 X   1      29.324  32.517  77.0520  0.00  0.00     0.000 C
ATOM      5  C5  A00 X   1      30.621  31.807  77.4390  0.00  0.00     0.000 C
ATOM      6  O5  A00 X   1      30.212  30.471  77.8090  0.00  0.00     0.000 O
ATOM      7   O  A00 X   1      28.485  33.921  78.7890  0.00  0.00     0.000 O
ATOM      9  HD  A00 X   1      28.883  33.919  78.0200  0.00  0.00     0.000 HD
ATOM      9   O  A00 X   1      28.732  31.863  75.9300  0.00  0.00     0.000 O
ATOM     11  HD  A00 X   1      29.130  31.861  75.1610  0.00  0.00     0.000 HD
ENDROOT
BRANCH 2 11
ATOM     11   O  A00 X   1      27.257  31.052  79.7870  0.00  0.00     0.000 O
ATOM     12   O  A00 X   1      25.380  32.498  80.1800  0.00  0.00     0.000 OA
ATOM     13   O  A00 X   1      27.345  32.683  81.6020  0.00  0.00     0.000 OA
ATOM     14   O  A00 X   1      25.960  30.752  81.7060  0.00  0.00     0.000 OA
ATOM     15   S  A00 X   1      26.445  31.826  80.8810  0.00  0.00     0.000 S
ENDBRANCH 2 11
BRANCH 5 16
ATOM     16   C  A00 X   1      31.450  32.514  78.5160  0.00  0.00     0.000 C
ATOM     17   O  A00 X   1      32.348  31.900  79.0540  0.00  0.00     0.000 OA
ATOM     18   O  A00 X   1      31.246  33.666  78.8440  0.00  0.00     0.000 OA
ENDBRANCH 5 16
BRANCH 1 19
ATOM     19  O4  A00 X   2      30.277  29.933  80.1400  0.00  0.00     0.000 O
BRANCH 19 23
ATOM     20  C1  A00 X   2      29.773  25.752  79.3480  0.00  0.00     0.000 C
ATOM     21  C2  A00 X   2      28.882  26.384  80.4460  0.00  0.00     0.000 C
ATOM     22  C3  A00 X   2      28.860  27.921  80.3170  0.00  0.00     0.000 C
ATOM     23  C4  A00 X   2      30.298  28.487  80.3120  0.00  0.00     0.000 C
ATOM     24  C5  A00 X   2      31.088  27.764  79.1870  0.00  0.00     0.000 C
ATOM     25  O5  A00 X   2      31.096  26.339  79.4630  0.00  0.00     0.000 O
ATOM     26   O  A00 X   2      27.969  28.455  81.3120  0.00  0.00     0.000 O
ATOM     28  HD  A00 X   2      28.335  28.004  81.9540  0.00  0.00     0.000 HD
BRANCH 21 30
ATOM     28   N  A00 X   2      28.959  25.119  81.1840  0.00  0.00     0.000 N
ATOM     30  HD  A00 X   2      28.304  25.571  81.5270  0.00  0.00     0.000 HD
ATOM     30   O  A00 X   2      26.959  24.841  82.3590  0.00  0.00     0.000 OA
ATOM     31   S  A00 X   2      28.336  25.049  82.6350  0.00  0.00     0.000 S
ATOM     32   O  A00 X   2      29.006  23.939  83.2380  0.00  0.00     0.000 OA
ATOM     33   O  A00 X   2      28.687  26.266  83.3060  0.00  0.00     0.000 OA
ENDBRANCH 21 30
BRANCH 24 34
ATOM     34   C  A00 X   2      32.489  28.308  78.8190  0.00  0.00     0.000 C
ATOM     35   O  A00 X   2      35.252  28.592  81.1740  0.00  0.00     0.000 OA
ATOM     36   O  A00 X   2      33.250  28.634  79.9990  0.00  0.00     0.000 O
ATOM     37   O  A00 X   2      34.090  26.579  80.7360  0.00  0.00     0.000 OA
ATOM     38   S  A00 X   2      34.576  27.811  80.1910  0.00  0.00     0.000 S
ATOM     39   O  A00 X   2      35.212  27.764  78.9090  0.00  0.00     0.000 OA
ENDBRANCH 24 34
BRANCH 20 40
ATOM     40  O4  A00 X   3      29.182  26.139  78.0990  0.00  0.00     0.000 O
BRANCH 40 44
ATOM     41  C1  A00 X   3      29.681  27.393  74.7370  0.00  0.00     0.000 C
ATOM     42  C2  A00 X   3      28.306  27.076  75.3630  0.00  0.00     0.000 C
ATOM     43  C3  A00 X   3      28.290  25.654  75.9800  0.00  0.00     0.000 C
ATOM     44  C4  A00 X   3      29.455  25.357  76.9160  0.00  0.00     0.000 C
ATOM     45  C5  A00 X   3      30.801  25.695  76.2150  0.00  0.00     0.000 C
ATOM     46  O5  A00 X   3      30.767  27.041  75.6390  0.00  0.00     0.000 O
ATOM     47   O  A00 X   3      27.041  25.220  76.5130  0.00  0.00     0.000 O
ATOM     49  HD  A00 X   3      27.548  24.879  77.1260  0.00  0.00     0.000 HD
BRANCH 42 49
ATOM     49   O  A00 X   3      28.053  28.088  76.3630  0.00  0.00     0.000 O
ATOM     50   O  A00 X   3      26.330  28.557  77.9570  0.00  0.00     0.000 OA
ATOM     51   O  A00 X   3      25.715  27.839  75.7900  0.00  0.00     0.000 OA
ATOM     52   O  A00 X   3      26.696  29.976  76.0330  0.00  0.00     0.000 OA
ATOM     53   S  A00 X   3      26.618  28.657  76.5600  0.00  0.00     0.000 S
ENDBRANCH 42 49
BRANCH 45 54
ATOM     54   C  A00 X   3      31.200  24.615  75.2020  0.00  0.00     0.000 C
ATOM     55   O  A00 X   3      30.420  23.737  74.8950  0.00  0.00     0.000 OA
ATOM     56   O  A00 X   3      32.308  24.618  74.6880  0.00  0.00     0.000 OA
ENDBRANCH 45 54
BRANCH 41 57
ATOM     57  O4  A00 X   4      29.809  26.824  73.4150  0.00  0.00     0.000 O
BRANCH 57 61
ATOM     58  C1  A00 X   4      31.929  28.078  69.8690  0.00  0.00     0.000 C
ATOM     59  C2  A00 X   4      32.744  27.767  71.1490  0.00  0.00     0.000 C
ATOM     60  C3  A00 X   4      31.942  26.997  72.2170  0.00  0.00     0.000 C
ATOM     61  C4  A00 X   4      30.557  27.633  72.4630  0.00  0.00     0.000 C
ATOM     62  C5  A00 X   4      29.836  27.652  71.0920  0.00  0.00     0.000 C
ATOM     63  O5  A00 X   4      30.578  28.494  70.1740  0.00  0.00     0.000 O
BRANCH 59 66
ATOM     64   N  A00 X   4      33.160  29.025  71.7960  0.00  0.00     0.000 N
ATOM     66  HD  A00 X   4      32.660  29.722  71.6740  0.00  0.00     0.000 HD
ATOM     66   O  A00 X   4      34.990  29.107  70.2340  0.00  0.00     0.000 OA
ATOM     67   S  A00 X   4      34.653  29.545  71.5520  0.00  0.00     0.000 S
ATOM     68   O  A00 X   4      34.462  30.958  71.7030  0.00  0.00     0.000 OA
ATOM     69   O  A00 X   4      35.322  28.920  72.6570  0.00  0.00     0.000 OA
ENDBRANCH 59 66
BRANCH 62 70
ATOM     70   C  A00 X   4      28.375  28.159  71.1530  0.00  0.00     0.000 C
ATOM     71   O  A00 X   4      27.168  31.503  71.8350  0.00  0.00     0.000 OA
ATOM     72   O  A00 X   4      26.531  29.427  72.7450  0.00  0.00     0.000 OA
ATOM     73   O  A00 X   4      28.373  29.594  71.2060  0.00  0.00     0.000 O
ATOM     74   O  A00 X   4      28.628  30.454  73.4430  0.00  0.00     0.000 OA
ATOM     75   S  A00 X   4      27.650  30.282  72.4170  0.00  0.00     0.000 S
ENDBRANCH 62 70
ENDBRANCH 57 61
ENDBRANCH 41 57
ENDBRANCH 40 44
ENDBRANCH 20 40
ENDBRANCH 19 23
ENDBRANCH 1 19
TORSDOF 14
ENDMDL
MODEL 53
REMARK VINA RESULT:      -1.1     55.999     60.248
ROOT
ATOM      1  C1  A00 X   1      68.082  10.430  13.7740  0.00  0.00     0.000 C
ATOM      2  C2  A00 X   1      68.453  10.094  12.3050  0.00  0.00     0.000 C
ATOM      3  C3  A00 X   1      68.091   8.653  11.8160  0.00  0.00     0.000 C
ATOM      4  C4  A00 X   1      67.752   7.634  12.9340  0.00  0.00     0.000 C
ATOM      5  C5  A00 X   1      68.346   8.039  14.2830  0.00  0.00     0.000 C
ATOM      6  O5  A00 X   1      67.712   9.298  14.6000  0.00  0.00     0.000 O
ATOM      7   O  A00 X   1      69.204   8.118  11.1040  0.00  0.00     0.000 O
ATOM      9  HD  A00 X   1      68.886   7.481  11.5970  0.00  0.00     0.000 HD
ATOM      9   O  A00 X   1      66.343   7.450  13.0630  0.00  0.00     0.000 O
ATOM     11  HD  A00 X   1      66.025   6.813  13.5560  0.00  0.00     0.000 HD
ENDROOT
BRANCH 2 11
ATOM     11   O  A00 X   1      67.798  11.057  11.4560  0.00  0.00     0.000 O
ATOM     12   O  A00 X   1      67.828  10.867   9.0620  0.00  0.00     0.000 OA
ATOM     13   O  A00 X   1      69.918  11.225  10.2540  0.00  0.00     0.000 OA
ATOM     14   O  A00 X   1      68.274  12.942  10.1630  0.00  0.00     0.000 OA
ATOM     15   S  A00 X   1      68.517  11.524  10.1440  0.00  0.00     0.000 S
ENDBRANCH 2 11
BRANCH 5 16
ATOM     16   C  A00 X   1      69.876   8.094  14.3270  0.00  0.00     0.000 C
ATOM     17   O  A00 X   1      70.411   8.634  15.2740  0.00  0.00     0.000 OA
ATOM     18   O  A00 X   1      70.571   7.613  13.4550  0.00  0.00     0.000 OA
ENDBRANCH 5 16
BRANCH 1 19
ATOM     19  O4  A00 X   2      69.073  11.260  14.4280  0.00  0.00     0.000 O
BRANCH 19 23
ATOM     20  C1  A00 X   2      66.168  13.629  16.5040  0.00  0.00     0.000 C
ATOM     21  C2  A00 X   2      66.753  14.204  15.1910  0.00  0.00     0.000 C
ATOM     22  C3  A00 X   2      67.425  13.094  14.3560  0.00  0.00     0.000 C
ATOM     23  C4  A00 X   2      68.476  12.339  15.2010  0.00  0.00     0.000 C
ATOM     24  C5  A00 X   2      67.773  11.831  16.4900  0.00  0.00     0.000 C
ATOM     25  O5  A00 X   2      67.250  12.973  17.2180  0.00  0.00     0.000 O
ATOM     26   O  A00 X   2      67.890  13.664  13.1210  0.00  0.00     0.000 O
ATOM     28  HD  A00 X   2      68.297  14.317  13.5170  0.00  0.00     0.000 HD
BRANCH 21 30
ATOM     28   N  A00 X   2      66.659  15.543  15.7810  0.00  0.00     0.000 N
ATOM     30  HD  A00 X   2      66.769  15.652  14.9290  0.00  0.00     0.000 HD
ATOM     30   O  A00 X   2      66.247  17.068  14.0600  0.00  0.00     0.000 OA
ATOM     31   S  A00 X   2      67.276  16.765  14.9900  0.00  0.00     0.000 S
ATOM     32   O  A00 X   2      67.485  17.753  16.0030  0.00  0.00     0.000 OA
ATOM     33   O  A00 X   2      68.531  16.331  14.4520  0.00  0.00     0.000 OA
ENDBRANCH 21 30
BRANCH 24 34
ATOM     34   C  A00 X   2      68.546  10.848  17.3990  0.00  0.00     0.000 C
ATOM     35   O  A00 X   2      69.521  11.577  20.8310  0.00  0.00     0.000 OA
ATOM     36   O  A00 X   2      69.095  11.521  18.5500  0.00  0.00     0.000 O
ATOM     37   O  A00 X   2      67.297  11.695  20.0350  0.00  0.00     0.000 OA
ATOM     38   S  A00 X   2      68.556  11.021  19.9400  0.00  0.00     0.000 S
ATOM     39   O  A00 X   2      68.539   9.591  19.8780  0.00  0.00     0.000 OA
ENDBRANCH 24 34
BRANCH 20 40
ATOM     40  O4  A00 X   3      65.197  12.652  16.1000  0.00  0.00     0.000 O
BRANCH 40 44
ATOM     41  C1  A00 X   3      63.782   9.350  16.5700  0.00  0.00     0.000 C
ATOM     42  C2  A00 X   3      63.324  10.359  15.4950  0.00  0.00     0.000 C
ATOM     43  C3  A00 X   3      63.030  11.745  16.1240  0.00  0.00     0.000 C
ATOM     44  C4  A00 X   3      64.142  12.285  17.0150  0.00  0.00     0.000 C
ATOM     45  C5  A00 X   3      64.544  11.217  18.0710  0.00  0.00     0.000 C
ATOM     46  O5  A00 X   3      64.802   9.924  17.4340  0.00  0.00     0.000 O
ATOM     47   O  A00 X   3      62.515  12.736  15.2370  0.00  0.00     0.000 O
ATOM     49  HD  A00 X   3      63.035  13.255  15.6950  0.00  0.00     0.000 HD
BRANCH 42 49
ATOM     49   O  A00 X   3      64.379  10.439  14.5120  0.00  0.00     0.000 O
ATOM     50   O  A00 X   3      64.782  11.670  12.4990  0.00  0.00     0.000 OA
ATOM     51   O  A00 X   3      62.619  10.801  12.8910  0.00  0.00     0.000 OA
ATOM     52   O  A00 X   3      64.383   9.286  12.4660  0.00  0.00     0.000 OA
ATOM     53   S  A00 X   3      64.036  10.559  12.9980  0.00  0.00     0.000 S
ENDBRANCH 42 49
BRANCH 45 54
ATOM     54   C  A00 X   3      63.523  11.135  19.2120  0.00  0.00     0.000 C
ATOM     55   O  A00 X   3      62.477  11.748  19.1520  0.00  0.00     0.000 OA
ATOM     56   O  A00 X   3      63.744  10.453  20.2010  0.00  0.00     0.000 OA
ENDBRANCH 45 54
BRANCH 41 57
ATOM     57  O4  A00 X   4      62.660   8.782  17.2820  0.00  0.00     0.000 O
BRANCH 57 61
ATOM     58  C1  A00 X   4      61.947   4.897  19.0240  0.00  0.00     0.000 C
ATOM     59  C2  A00 X   4      63.116   5.752  19.5730  0.00  0.00     0.000 C
ATOM     60  C3  A00 X   4      63.052   7.231  19.1400  0.00  0.00     0.000 C
ATOM     61  C4  A00 X   4      62.794   7.373  17.6240  0.00  0.00     0.000 C
ATOM     62  C5  A00 X   4      61.471   6.623  17.3350  0.00  0.00     0.000 C
ATOM     63  O5  A00 X   4      61.641   5.217  17.6470  0.00  0.00     0.000 O
BRANCH 59 66
ATOM     64   N  A00 X   4      64.399   5.244  19.0560  0.00  0.00     0.000 N
ATOM     66  HD  A00 X   4      64.390   4.839  18.2900  0.00  0.00     0.000 HD
ATOM     66   O  A00 X   4      64.332   3.587  20.8020  0.00  0.00     0.000 OA
ATOM     67   S  A00 X   4      65.278   4.302  20.0040  0.00  0.00     0.000 S
ATOM     68   O  A00 X   4      65.971   3.521  19.0210  0.00  0.00     0.000 OA
ATOM     69   O  A00 X   4      66.093   5.288  20.6550  0.00  0.00     0.000 OA
ENDBRANCH 59 66
BRANCH 62 70
ATOM     70   C  A00 X   4      60.982   6.745  15.8720  0.00  0.00     0.000 C
ATOM     71   O  A00 X   4      62.415   5.297  12.8790  0.00  0.00     0.000 OA
ATOM     72   O  A00 X   4      61.728   7.501  13.3390  0.00  0.00     0.000 OA
ATOM     73   O  A00 X   4      61.702   5.812  15.0510  0.00  0.00     0.000 O
ATOM     74   O  A00 X   4      63.817   6.671  14.2800  0.00  0.00     0.000 OA
ATOM     75   S  A00 X   4      62.497   6.376  13.8230  0.00  0.00     0.000 S
ENDBRANCH 62 70
ENDBRANCH 57 61
ENDBRANCH 41 57
ENDBRANCH 40 44
ENDBRANCH 20 40
ENDBRANCH 19 23
ENDBRANCH 1 19
TORSDOF 14
ENDMDL
MODEL 54
REMARK VINA RESULT:      -1.1     64.672     69.228
ROOT
ATOM      1  C1  A00 X   1      62.138  41.290  50.5290  0.00  0.00     0.000 C
ATOM      2  C2  A00 X   1      62.149  41.767  49.0530  0.00  0.00     0.000 C
ATOM      3  C3  A00 X   1      63.457  41.478  48.2460  0.00  0.00     0.000 C
ATOM      4  C4  A00 X   1      64.696  41.094  49.0960  0.00  0.00     0.000 C
ATOM      5  C5  A00 X   1      64.580  41.585  50.5390  0.00  0.00     0.000 C
ATOM      6  O5  A00 X   1      63.425  40.897  51.0690  0.00  0.00     0.000 O
ATOM      7   O  A00 X   1      63.814  42.650  47.5170  0.00  0.00     0.000 O
ATOM      9  HD  A00 X   1      64.546  42.318  47.8410  0.00  0.00     0.000 HD
ATOM      9   O  A00 X   1      64.921  39.684  49.0830  0.00  0.00     0.000 O
ATOM     11  HD  A00 X   1      65.653  39.352  49.4070  0.00  0.00     0.000 HD
ENDROOT
BRANCH 2 11
ATOM     11   O  A00 X   1      61.036  41.143  48.3820  0.00  0.00     0.000 O
ATOM     12   O  A00 X   1      60.750  41.278  46.0020  0.00  0.00     0.000 OA
ATOM     13   O  A00 X   1      60.639  43.312  47.3320  0.00  0.00     0.000 OA
ATOM     14   O  A00 X   1      58.934  41.663  47.5090  0.00  0.00     0.000 OA
ATOM     15   S  A00 X   1      60.321  41.915  47.2210  0.00  0.00     0.000 S
ENDBRANCH 2 11
BRANCH 5 16
ATOM     16   C  A00 X   1      64.515  43.107  50.7020  0.00  0.00     0.000 C
ATOM     17   O  A00 X   1      64.216  43.563  51.7860  0.00  0.00     0.000 OA
ATOM     18   O  A00 X   1      64.760  43.871  49.7900  0.00  0.00     0.000 OA
ENDBRANCH 5 16
BRANCH 1 19
ATOM     19  O4  A00 X   2      61.454  42.212  51.4120  0.00  0.00     0.000 O
BRANCH 19 23
ATOM     20  C1  A00 X   2      59.626  39.113  53.7400  0.00  0.00     0.000 C
ATOM     21  C2  A00 X   2      58.778  39.759  52.6180  0.00  0.00     0.000 C
ATOM     22  C3  A00 X   2      59.675  40.515  51.6160  0.00  0.00     0.000 C
ATOM     23  C4  A00 X   2      60.572  41.535  52.3530  0.00  0.00     0.000 C
ATOM     24  C5  A00 X   2      61.352  40.771  53.4580  0.00  0.00     0.000 C
ATOM     25  O5  A00 X   2      60.398  40.168  54.3710  0.00  0.00     0.000 O
ATOM     26   O  A00 X   2      58.851  41.037  50.5610  0.00  0.00     0.000 O
ATOM     28  HD  A00 X   2      58.287  41.398  51.1110  0.00  0.00     0.000 HD
BRANCH 21 30
ATOM     28   N  A00 X   2      57.595  39.588  53.4670  0.00  0.00     0.000 N
ATOM     30  HD  A00 X   2      57.307  39.746  52.6650  0.00  0.00     0.000 HD
ATOM     30   O  A00 X   2      55.749  39.234  52.0780  0.00  0.00     0.000 OA
ATOM     31   S  A00 X   2      56.223  40.213  52.9910  0.00  0.00     0.000 S
ATOM     32   O  A00 X   2      55.467  40.330  54.1990  0.00  0.00     0.000 OA
ATOM     33   O  A00 X   2      56.512  41.512  52.4580  0.00  0.00     0.000 OA
ENDBRANCH 21 30
BRANCH 24 34
ATOM     34   C  A00 X   2      62.491  41.517  54.1910  0.00  0.00     0.000 C
ATOM     35   O  A00 X   2      62.505  42.216  57.7640  0.00  0.00     0.000 OA
ATOM     36   O  A00 X   2      62.072  41.956  55.4990  0.00  0.00     0.000 O
ATOM     37   O  A00 X   2      62.270  40.051  56.8420  0.00  0.00     0.000 OA
ATOM     38   S  A00 X   2      62.876  41.340  56.7020  0.00  0.00     0.000 S
ATOM     39   O  A00 X   2      64.258  41.386  56.3320  0.00  0.00     0.000 OA
ENDBRANCH 24 34
BRANCH 20 40
ATOM     40  O4  A00 X   3      60.514  38.200  53.0780  0.00  0.00     0.000 O
BRANCH 40 44
ATOM     41  C1  A00 X   3      63.861  36.853  52.7470  0.00  0.00     0.000 C
ATOM     42  C2  A00 X   3      62.654  36.433  51.8810  0.00  0.00     0.000 C
ATOM     43  C3  A00 X   3      61.437  36.062  52.7670  0.00  0.00     0.000 C
ATOM     44  C4  A00 X   3      61.082  37.101  53.8230  0.00  0.00     0.000 C
ATOM     45  C5  A00 X   3      62.343  37.468  54.6550  0.00  0.00     0.000 C
ATOM     46  O5  A00 X   3      63.468  37.801  53.7790  0.00  0.00     0.000 O
ATOM     47   O  A00 X   3      60.289  35.574  52.0760  0.00  0.00     0.000 O
ATOM     49  HD  A00 X   3      59.871  36.050  52.6660  0.00  0.00     0.000 HD
BRANCH 42 49
ATOM     49   O  A00 X   3      62.352  37.544  51.0090  0.00  0.00     0.000 O
ATOM     50   O  A00 X   3      60.715  38.036  49.3330  0.00  0.00     0.000 OA
ATOM     51   O  A00 X   3      61.678  35.878  49.3880  0.00  0.00     0.000 OA
ATOM     52   O  A00 X   3      63.044  37.705  48.7700  0.00  0.00     0.000 OA
ATOM     53   S  A00 X   3      61.918  37.292  49.5350  0.00  0.00     0.000 S
ENDBRANCH 42 49
BRANCH 45 54
ATOM     54   C  A00 X   3      62.680  36.381  55.6830  0.00  0.00     0.000 C
ATOM     55   O  A00 X   3      62.114  35.308  55.6570  0.00  0.00     0.000 OA
ATOM     56   O  A00 X   3      63.522  36.577  56.5460  0.00  0.00     0.000 OA
ENDBRANCH 45 54
BRANCH 41 57
ATOM     57  O4  A00 X   4      64.583  35.706  53.2480  0.00  0.00     0.000 O
BRANCH 57 61
ATOM     58  C1  A00 X   4      68.748  35.029  54.1640  0.00  0.00     0.000 C
ATOM     59  C2  A00 X   4      67.986  36.129  54.9450  0.00  0.00     0.000 C
ATOM     60  C3  A00 X   4      66.454  36.038  54.7980  0.00  0.00     0.000 C
ATOM     61  C4  A00 X   4      66.028  35.871  53.3240  0.00  0.00     0.000 C
ATOM     62  C5  A00 X   4      66.740  34.596  52.8070  0.00  0.00     0.000 C
ATOM     63  O5  A00 X   4      68.176  34.798  52.8560  0.00  0.00     0.000 O
BRANCH 59 66
ATOM     64   N  A00 X   4      68.351  37.463  54.4350  0.00  0.00     0.000 N
ATOM     66  HD  A00 X   4      68.598  37.520  53.6070  0.00  0.00     0.000 HD
ATOM     66   O  A00 X   4      70.318  37.344  55.8180  0.00  0.00     0.000 OA
ATOM     67   S  A00 X   4      69.437  38.313  55.2450  0.00  0.00     0.000 S
ATOM     68   O  A00 X   4      69.993  39.100  54.1830  0.00  0.00     0.000 OA
ATOM     69   O  A00 X   4      68.577  39.044  56.1310  0.00  0.00     0.000 OA
ENDBRANCH 59 66
BRANCH 62 70
ATOM     70   C  A00 X   4      66.350  34.195  51.3640  0.00  0.00     0.000 C
ATOM     71   O  A00 X   4      67.109  35.897  48.2600  0.00  0.00     0.000 OA
ATOM     72   O  A00 X   4      65.072  35.057  49.0910  0.00  0.00     0.000 OA
ATOM     73   O  A00 X   4      67.069  35.018  50.4310  0.00  0.00     0.000 O
ATOM     74   O  A00 X   4      65.983  37.126  50.0020  0.00  0.00     0.000 OA
ATOM     75   S  A00 X   4      66.237  35.857  49.4000  0.00  0.00     0.000 S
ENDBRANCH 62 70
ENDBRANCH 57 61
ENDBRANCH 41 57
ENDBRANCH 40 44
ENDBRANCH 20 40
ENDBRANCH 19 23
ENDBRANCH 1 19
TORSDOF 14
ENDMDL
MODEL 55
REMARK VINA RESULT:      -1.1     36.062     41.047
ROOT
ATOM      1  C1  A00 X   1      15.011  34.071  53.0960  0.00  0.00     0.000 C
ATOM      2  C2  A00 X   1      14.370  34.237  51.6930  0.00  0.00     0.000 C
ATOM      3  C3  A00 X   1      12.961  33.586  51.5000  0.00  0.00     0.000 C
ATOM      4  C4  A00 X   1      12.544  32.561  52.5850  0.00  0.00     0.000 C
ATOM      5  C5  A00 X   1      13.750  31.972  53.3160  0.00  0.00     0.000 C
ATOM      6  O5  A00 X   1      14.374  33.102  53.9650  0.00  0.00     0.000 O
ATOM      7   O  A00 X   1      12.946  32.889  50.2560  0.00  0.00     0.000 O
ATOM      9  HD  A00 X   1      12.534  32.391  50.8330  0.00  0.00     0.000 HD
ATOM      9   O  A00 X   1      11.642  33.137  53.5290  0.00  0.00     0.000 O
ATOM     11  HD  A00 X   1      11.231  32.639  54.1060  0.00  0.00     0.000 HD
ENDROOT
BRANCH 2 11
ATOM     11   O  A00 X   1      14.277  35.648  51.4170  0.00  0.00     0.000 O
ATOM     12   O  A00 X   1      13.172  36.490  49.4580  0.00  0.00     0.000 OA
ATOM     13   O  A00 X   1      15.172  35.128  49.2050  0.00  0.00     0.000 OA
ATOM     14   O  A00 X   1      15.311  37.310  50.1430  0.00  0.00     0.000 OA
ATOM     15   S  A00 X   1      14.485  36.149  49.9470  0.00  0.00     0.000 S
ENDBRANCH 2 11
BRANCH 5 16
ATOM     16   C  A00 X   1      14.710  31.164  52.4370  0.00  0.00     0.000 C
ATOM     17   O  A00 X   1      15.793  30.856  52.8890  0.00  0.00     0.000 OA
ATOM     18   O  A00 X   1      14.423  30.815  51.3090  0.00  0.00     0.000 OA
ENDBRANCH 5 16
BRANCH 1 19
ATOM     19  O4  A00 X   2      16.444  33.866  53.0380  0.00  0.00     0.000 O
BRANCH 19 23
ATOM     20  C1  A00 X   2      17.243  36.318  56.4610  0.00  0.00     0.000 C
ATOM     21  C2  A00 X   2      17.418  36.962  55.0650  0.00  0.00     0.000 C
ATOM     22  C3  A00 X   2      16.697  36.132  53.9820  0.00  0.00     0.000 C
ATOM     23  C4  A00 X   2      17.163  34.659  54.0270  0.00  0.00     0.000 C
ATOM     24  C5  A00 X   2      16.954  34.138  55.4750  0.00  0.00     0.000 C
ATOM     25  O5  A00 X   2      17.739  34.955  56.3830  0.00  0.00     0.000 O
ATOM     26   O  A00 X   2      16.831  36.805  52.7190  0.00  0.00     0.000 O
ATOM     28  HD  A00 X   2      17.688  36.896  52.8010  0.00  0.00     0.000 HD
BRANCH 21 30
ATOM     28   N  A00 X   2      18.531  37.746  55.6090  0.00  0.00     0.000 N
ATOM     30  HD  A00 X   2      18.305  38.117  54.8600  0.00  0.00     0.000 HD
ATOM     30   O  A00 X   2      18.595  39.794  54.4870  0.00  0.00     0.000 OA
ATOM     31   S  A00 X   2      19.393  38.627  54.6200  0.00  0.00     0.000 S
ATOM     32   O  A00 X   2      20.626  38.815  55.3200  0.00  0.00     0.000 OA
ATOM     33   O  A00 X   2      19.607  37.849  53.4360  0.00  0.00     0.000 OA
ENDBRANCH 21 30
BRANCH 24 34
ATOM     34   C  A00 X   2      17.127  32.623  55.7340  0.00  0.00     0.000 C
ATOM     35   O  A00 X   2      20.174  30.765  55.0130  0.00  0.00     0.000 OA
ATOM     36   O  A00 X   2      18.277  32.102  55.0380  0.00  0.00     0.000 O
ATOM     37   O  A00 X   2      20.091  32.681  56.3960  0.00  0.00     0.000 OA
ATOM     38   S  A00 X   2      19.404  31.505  55.9580  0.00  0.00     0.000 S
ATOM     39   O  A00 X   2      18.740  30.715  56.9510  0.00  0.00     0.000 OA
ENDBRANCH 24 34
BRANCH 20 40
ATOM     40  O4  A00 X   3      15.829  36.301  56.7060  0.00  0.00     0.000 O
BRANCH 40 44
ATOM     41  C1  A00 X   3      12.937  34.476  57.9020  0.00  0.00     0.000 C
ATOM     42  C2  A00 X   3      12.896  35.904  57.3150  0.00  0.00     0.000 C
ATOM     43  C3  A00 X   3      13.941  36.818  58.0050  0.00  0.00     0.000 C
ATOM     44  C4  A00 X   3      15.348  36.237  58.0660  0.00  0.00     0.000 C
ATOM     45  C5  A00 X   3      15.308  34.805  58.6700  0.00  0.00     0.000 C
ATOM     46  O5  A00 X   3      14.301  33.982  57.9960  0.00  0.00     0.000 O
ATOM     47   O  A00 X   3      13.935  38.186  57.6030  0.00  0.00     0.000 O
ATOM     49  HD  A00 X   3      14.793  38.092  57.6670  0.00  0.00     0.000 HD
BRANCH 42 49
ATOM     49   O  A00 X   3      13.151  35.787  55.8980  0.00  0.00     0.000 O
ATOM     50   O  A00 X   3      13.393  37.291  54.0510  0.00  0.00     0.000 OA
ATOM     51   O  A00 X   3      11.694  37.703  55.6430  0.00  0.00     0.000 OA
ATOM     52   O  A00 X   3      11.488  35.812  54.2400  0.00  0.00     0.000 OA
ATOM     53   S  A00 X   3      12.396  36.697  54.8860  0.00  0.00     0.000 S
ENDBRANCH 42 49
BRANCH 45 54
ATOM     54   C  A00 X   3      15.139  34.837  60.1940  0.00  0.00     0.000 C
ATOM     55   O  A00 X   3      14.929  35.884  60.7720  0.00  0.00     0.000 OA
ATOM     56   O  A00 X   3      15.215  33.811  60.8530  0.00  0.00     0.000 OA
ENDBRANCH 45 54
BRANCH 41 57
ATOM     57  O4  A00 X   4      12.192  34.385  59.1370  0.00  0.00     0.000 O
BRANCH 57 61
ATOM     58  C1  A00 X   4       9.918  31.207  60.9720  0.00  0.00     0.000 C
ATOM     59  C2  A00 X   4      11.435  30.995  60.7400  0.00  0.00     0.000 C
ATOM     60  C3  A00 X   4      12.197  32.298  60.4230  0.00  0.00     0.000 C
ATOM     61  C4  A00 X   4      11.481  33.131  59.3380  0.00  0.00     0.000 C
ATOM     62  C5  A00 X   4      10.052  33.405  59.8710  0.00  0.00     0.000 C
ATOM     63  O5  A00 X   4       9.352  32.144  60.0280  0.00  0.00     0.000 O
BRANCH 59 66
ATOM     64   N  A00 X   4      11.640  30.119  59.5720  0.00  0.00     0.000 N
ATOM     66  HD  A00 X   4      11.028  30.120  58.9590  0.00  0.00     0.000 HD
ATOM     66   O  A00 X   4      11.256  28.245  61.0360  0.00  0.00     0.000 OA
ATOM     67   S  A00 X   4      11.954  28.572  59.8310  0.00  0.00     0.000 S
ATOM     68   O  A00 X   4      11.418  27.995  58.6330  0.00  0.00     0.000 OA
ATOM     69   O  A00 X   4      13.388  28.609  59.8770  0.00  0.00     0.000 OA
ENDBRANCH 59 66
BRANCH 62 70
ATOM     70   C  A00 X   4       9.205  34.329  58.9640  0.00  0.00     0.000 C
ATOM     71   O  A00 X   4       7.865  33.652  55.6700  0.00  0.00     0.000 OA
ATOM     72   O  A00 X   4       9.086  35.495  56.4810  0.00  0.00     0.000 OA
ATOM     73   O  A00 X   4       8.688  33.567  57.8620  0.00  0.00     0.000 O
ATOM     74   O  A00 X   4      10.237  33.396  56.0240  0.00  0.00     0.000 OA
ATOM     75   S  A00 X   4       9.029  34.052  56.4100  0.00  0.00     0.000 S
ENDBRANCH 62 70
ENDBRANCH 57 61
ENDBRANCH 41 57
ENDBRANCH 40 44
ENDBRANCH 20 40
ENDBRANCH 19 23
ENDBRANCH 1 19
TORSDOF 14
ENDMDL
MODEL 56
REMARK VINA RESULT:      -1.1     56.796     61.638
ROOT
ATOM      1  C1  A00 X   1      44.706  54.701  44.4490  0.00  0.00     0.000 C
ATOM      2  C2  A00 X   1      45.645  54.296  45.6170  0.00  0.00     0.000 C
ATOM      3  C3  A00 X   1      46.978  53.584  45.2130  0.00  0.00     0.000 C
ATOM      4  C4  A00 X   1      47.034  53.045  43.7600  0.00  0.00     0.000 C
ATOM      5  C5  A00 X   1      45.640  52.815  43.1760  0.00  0.00     0.000 C
ATOM      6  O5  A00 X   1      45.029  54.125  43.1590  0.00  0.00     0.000 O
ATOM      7   O  A00 X   1      47.175  52.462  46.0690  0.00  0.00     0.000 O
ATOM      9  HD  A00 X   1      47.394  52.214  45.2690  0.00  0.00     0.000 HD
ATOM      9   O  A00 X   1      47.776  53.917  42.9080  0.00  0.00     0.000 O
ATOM     11  HD  A00 X   1      47.995  53.669  42.1080  0.00  0.00     0.000 HD
ENDROOT
BRANCH 2 11
ATOM     11   O  A00 X   1      45.957  55.489  46.3620  0.00  0.00     0.000 O
ATOM     12   O  A00 X   1      47.599  55.499  48.1140  0.00  0.00     0.000 OA
ATOM     13   O  A00 X   1      45.588  54.155  48.3750  0.00  0.00     0.000 OA
ATOM     14   O  A00 X   1      45.461  56.530  48.3920  0.00  0.00     0.000 OA
ATOM     15   S  A00 X   1      46.178  55.381  47.9100  0.00  0.00     0.000 S
ENDBRANCH 2 11
BRANCH 5 16
ATOM     16   C  A00 X   1      44.801  51.756  43.8980  0.00  0.00     0.000 C
ATOM     17   O  A00 X   1      43.620  51.669  43.6310  0.00  0.00     0.000 OA
ATOM     18   O  A00 X   1      45.275  51.000  44.7220  0.00  0.00     0.000 OA
ENDBRANCH 5 16
BRANCH 1 19
ATOM     19  O4  A00 X   2      43.304  54.527  44.7690  0.00  0.00     0.000 O
BRANCH 19 23
ATOM     20  C1  A00 X   2      42.089  58.126  42.7860  0.00  0.00     0.000 C
ATOM     21  C2  A00 X   2      42.289  58.188  44.3190  0.00  0.00     0.000 C
ATOM     22  C3  A00 X   2      43.121  56.987  44.8140  0.00  0.00     0.000 C
ATOM     23  C4  A00 X   2      42.490  55.657  44.3440  0.00  0.00     0.000 C
ATOM     24  C5  A00 X   2      42.326  55.728  42.8010  0.00  0.00     0.000 C
ATOM     25  O5  A00 X   2      41.467  56.851  42.4740  0.00  0.00     0.000 O
ATOM     26   O  A00 X   2      43.336  57.126  46.2290  0.00  0.00     0.000 O
ATOM     28  HD  A00 X   2      42.498  57.265  46.3940  0.00  0.00     0.000 HD
BRANCH 21 30
ATOM     28   N  A00 X   2      41.183  59.148  44.3870  0.00  0.00     0.000 N
ATOM     30  HD  A00 X   2      41.605  59.198  45.1420  0.00  0.00     0.000 HD
ATOM     30   O  A00 X   2      41.596  60.611  46.1610  0.00  0.00     0.000 OA
ATOM     31   S  A00 X   2      40.660  59.604  45.8070  0.00  0.00     0.000 S
ATOM     32   O  A00 X   2      39.335  60.076  45.5450  0.00  0.00     0.000 OA
ATOM     33   O  A00 X   2      40.616  58.437  46.6370  0.00  0.00     0.000 OA
ENDBRANCH 21 30
BRANCH 24 34
ATOM     34   C  A00 X   2      41.929  54.434  42.0530  0.00  0.00     0.000 C
ATOM     35   O  A00 X   2      38.901  52.530  42.7380  0.00  0.00     0.000 OA
ATOM     36   O  A00 X   2      40.895  53.719  42.7590  0.00  0.00     0.000 O
ATOM     37   O  A00 X   2      38.919  54.827  42.1770  0.00  0.00     0.000 OA
ATOM     38   S  A00 X   2      39.540  53.554  41.9780  0.00  0.00     0.000 S
ATOM     39   O  A00 X   2      39.888  53.187  40.6380  0.00  0.00     0.000 OA
ENDBRANCH 24 34
BRANCH 20 40
ATOM     40  O4  A00 X   3      43.408  58.168  42.2210  0.00  0.00     0.000 O
BRANCH 40 44
ATOM     41  C1  A00 X   3      45.741  56.841  39.7880  0.00  0.00     0.000 C
ATOM     42  C2  A00 X   3      46.076  57.938  40.8220  0.00  0.00     0.000 C
ATOM     43  C3  A00 X   3      45.026  59.078  40.7810  0.00  0.00     0.000 C
ATOM     44  C4  A00 X   3      43.579  58.608  40.8570  0.00  0.00     0.000 C
ATOM     45  C5  A00 X   3      43.319  57.511  39.7860  0.00  0.00     0.000 C
ATOM     46  O5  A00 X   3      44.339  56.463  39.8540  0.00  0.00     0.000 O
ATOM     47   O  A00 X   3      45.282  60.191  41.6350  0.00  0.00     0.000 O
ATOM     49  HD  A00 X   3      44.424  60.156  41.7510  0.00  0.00     0.000 HD
BRANCH 42 49
ATOM     49   O  A00 X   3      46.115  57.302  42.1180  0.00  0.00     0.000 O
ATOM     50   O  A00 X   3      46.470  57.998  44.3800  0.00  0.00     0.000 OA
ATOM     51   O  A00 X   3      47.831  58.914  42.6780  0.00  0.00     0.000 OA
ATOM     52   O  A00 X   3      48.080  56.625  43.2100  0.00  0.00     0.000 OA
ATOM     53   S  A00 X   3      47.180  57.725  43.1700  0.00  0.00     0.000 S
ENDBRANCH 42 49
BRANCH 45 54
ATOM     54   C  A00 X   3      43.163  58.112  38.3840  0.00  0.00     0.000 C
ATOM     55   O  A00 X   3      42.696  57.454  37.4770  0.00  0.00     0.000 OA
ATOM     56   O  A00 X   3      43.507  59.261  38.1550  0.00  0.00     0.000 OA
ENDBRANCH 45 54
BRANCH 41 57
ATOM     57  O4  A00 X   4      46.191  57.201  38.4630  0.00  0.00     0.000 O
BRANCH 57 61
ATOM     58  C1  A00 X   4      47.626  54.882  35.1160  0.00  0.00     0.000 C
ATOM     59  C2  A00 X   4      46.182  54.639  35.6210  0.00  0.00     0.000 C
ATOM     60  C3  A00 X   4      45.664  55.749  36.5590  0.00  0.00     0.000 C
ATOM     61  C4  A00 X   4      46.691  56.095  37.6580  0.00  0.00     0.000 C
ATOM     62  C5  A00 X   4      47.991  56.510  36.9250  0.00  0.00     0.000 C
ATOM     63  O5  A00 X   4      48.489  55.381  36.1620  0.00  0.00     0.000 O
BRANCH 59 66
ATOM     64   N  A00 X   4      46.118  53.397  36.4110  0.00  0.00     0.000 N
ATOM     66  HD  A00 X   4      46.838  53.148  36.8230  0.00  0.00     0.000 HD
ATOM     66   O  A00 X   4      45.970  52.198  34.3280  0.00  0.00     0.000 OA
ATOM     67   S  A00 X   4      45.578  52.072  35.6960  0.00  0.00     0.000 S
ATOM     68   O  A00 X   4      46.275  51.070  36.4490  0.00  0.00     0.000 OA
ATOM     69   O  A00 X   4      44.179  52.170  36.0040  0.00  0.00     0.000 OA
ENDBRANCH 59 66
BRANCH 62 70
ATOM     70   C  A00 X   4      49.117  57.003  37.8660  0.00  0.00     0.000 C
ATOM     71   O  A00 X   4      51.070  55.100  40.2470  0.00  0.00     0.000 OA
ATOM     72   O  A00 X   4      49.915  57.137  40.4900  0.00  0.00     0.000 OA
ATOM     73   O  A00 X   4      49.777  55.869  38.4510  0.00  0.00     0.000 O
ATOM     74   O  A00 X   4      48.666  55.046  40.4240  0.00  0.00     0.000 OA
ATOM     75   S  A00 X   4      49.824  55.774  40.0150  0.00  0.00     0.000 S
ENDBRANCH 62 70
ENDBRANCH 57 61
ENDBRANCH 41 57
ENDBRANCH 40 44
ENDBRANCH 20 40
ENDBRANCH 19 23
ENDBRANCH 1 19
TORSDOF 14
ENDMDL
MODEL 57
REMARK VINA RESULT:      -1.1     78.451     85.992
ROOT
ATOM      1  C1  A00 X   1      76.268  30.699  73.4890  0.00  0.00     0.000 C
ATOM      2  C2  A00 X   1      76.520  30.418  74.9940  0.00  0.00     0.000 C
ATOM      3  C3  A00 X   1      75.358  29.710  75.7650  0.00  0.00     0.000 C
ATOM      4  C4  A00 X   1      73.983  29.708  75.0480  0.00  0.00     0.000 C
ATOM      5  C5  A00 X   1      73.869  30.830  74.0150  0.00  0.00     0.000 C
ATOM      6  O5  A00 X   1      74.899  30.540  73.0430  0.00  0.00     0.000 O
ATOM      7   O  A00 X   1      75.163  30.375  77.0110  0.00  0.00     0.000 O
ATOM      9  HD  A00 X   1      74.378  30.197  76.6910  0.00  0.00     0.000 HD
ATOM      9   O  A00 X   1      73.722  28.451  74.4240  0.00  0.00     0.000 O
ATOM     11  HD  A00 X   1      72.937  28.273  74.1050  0.00  0.00     0.000 HD
ENDROOT
BRANCH 2 11
ATOM     11   O  A00 X   1      77.710  29.613  75.0970  0.00  0.00     0.000 O
ATOM     12   O  A00 X   1      78.423  28.659  77.1830  0.00  0.00     0.000 OA
ATOM     13   O  A00 X   1      78.369  31.079  76.9370  0.00  0.00     0.000 OA
ATOM     14   O  A00 X   1      79.952  29.780  75.7270  0.00  0.00     0.000 OA
ATOM     15   S  A00 X   1      78.650  29.804  76.3370  0.00  0.00     0.000 S
ENDBRANCH 2 11
BRANCH 5 16
ATOM     16   C  A00 X   1      73.950  32.248  74.5890  0.00  0.00     0.000 C
ATOM     17   O  A00 X   1      74.080  33.179  73.8210  0.00  0.00     0.000 OA
ATOM     18   O  A00 X   1      73.882  32.474  75.7810  0.00  0.00     0.000 OA
ENDBRANCH 5 16
BRANCH 1 19
ATOM     19  O4  A00 X   2      76.821  31.966  73.0540  0.00  0.00     0.000 O
BRANCH 19 23
ATOM     20  C1  A00 X   2      78.144  30.442  69.2740  0.00  0.00     0.000 C
ATOM     21  C2  A00 X   2      79.187  30.530  70.4130  0.00  0.00     0.000 C
ATOM     22  C3  A00 X   2      78.493  30.671  71.7840  0.00  0.00     0.000 C
ATOM     23  C4  A00 X   2      77.512  31.865  71.7760  0.00  0.00     0.000 C
ATOM     24  C5  A00 X   2      76.536  31.669  70.5840  0.00  0.00     0.000 C
ATOM     25  O5  A00 X   2      77.304  31.625  69.3540  0.00  0.00     0.000 O
ATOM     26   O  A00 X   2      79.499  30.680  72.8120  0.00  0.00     0.000 O
ATOM     28  HD  A00 X   2      79.970  31.289  72.4160  0.00  0.00     0.000 HD
BRANCH 21 30
ATOM     28   N  A00 X   2      80.204  30.847  69.4060  0.00  0.00     0.000 N
ATOM     30  HD  A00 X   2      80.627  30.625  70.1280  0.00  0.00     0.000 HD
ATOM     30   O  A00 X   2      82.249  29.989  70.1400  0.00  0.00     0.000 OA
ATOM     31   S  A00 X   2      81.653  31.253  69.8910  0.00  0.00     0.000 S
ATOM     32   O  A00 X   2      82.195  31.968  68.7770  0.00  0.00     0.000 OA
ATOM     33   O  A00 X   2      81.493  32.128  71.0140  0.00  0.00     0.000 OA
ENDBRANCH 21 30
BRANCH 24 34
ATOM     34   C  A00 X   2      75.309  32.606  70.4890  0.00  0.00     0.000 C
ATOM     35   O  A00 X   2      74.738  34.950  67.7620  0.00  0.00     0.000 OA
ATOM     36   O  A00 X   2      75.522  33.649  69.5170  0.00  0.00     0.000 O
ATOM     37   O  A00 X   2      75.075  32.628  67.4600  0.00  0.00     0.000 OA
ATOM     38   S  A00 X   2      74.525  33.647  68.3010  0.00  0.00     0.000 S
ATOM     39   O  A00 X   2      73.220  33.423  68.8480  0.00  0.00     0.000 OA
ENDBRANCH 24 34
BRANCH 20 40
ATOM     40  O4  A00 X   3      77.357  29.275  69.5570  0.00  0.00     0.000 O
BRANCH 40 44
ATOM     41  C1  A00 X   3      74.074  27.755  69.7400  0.00  0.00     0.000 C
ATOM     42  C2  A00 X   3      75.396  27.043  70.1010  0.00  0.00     0.000 C
ATOM     43  C3  A00 X   3      76.438  27.196  68.9640  0.00  0.00     0.000 C
ATOM     44  C4  A00 X   3      76.644  28.627  68.4830  0.00  0.00     0.000 C
ATOM     45  C5  A00 X   3      75.273  29.273  68.1350  0.00  0.00     0.000 C
ATOM     46  O5  A00 X   3      74.318  29.095  69.2300  0.00  0.00     0.000 O
ATOM     47   O  A00 X   3      77.671  26.503  69.1510  0.00  0.00     0.000 O
ATOM     49  HD  A00 X   3      77.999  27.222  68.7970  0.00  0.00     0.000 HD
BRANCH 42 49
ATOM     49   O  A00 X   3      75.869  27.628  71.3340  0.00  0.00     0.000 O
ATOM     50   O  A00 X   3      77.784  27.378  72.7480  0.00  0.00     0.000 OA
ATOM     51   O  A00 X   3      76.782  25.443  71.8310  0.00  0.00     0.000 OA
ATOM     52   O  A00 X   3      75.585  26.669  73.4590  0.00  0.00     0.000 OA
ATOM     53   S  A00 X   3      76.549  26.740  72.4160  0.00  0.00     0.000 S
ENDBRANCH 42 49
BRANCH 45 54
ATOM     54   C  A00 X   3      74.740  28.781  66.7840  0.00  0.00     0.000 C
ATOM     55   O  A00 X   3      75.296  27.879  66.1910  0.00  0.00     0.000 OA
ATOM     56   O  A00 X   3      73.749  29.287  66.2800  0.00  0.00     0.000 OA
ENDBRANCH 45 54
BRANCH 41 57
ATOM     57  O4  A00 X   4      73.247  26.941  68.8790  0.00  0.00     0.000 O
BRANCH 57 61
ATOM     58  C1  A00 X   4      68.972  26.465  68.5040  0.00  0.00     0.000 C
ATOM     59  C2  A00 X   4      69.590  27.857  68.2240  0.00  0.00     0.000 C
ATOM     60  C3  A00 X   4      71.121  27.824  68.0360  0.00  0.00     0.000 C
ATOM     61  C4  A00 X   4      71.818  27.012  69.1490  0.00  0.00     0.000 C
ATOM     62  C5  A00 X   4      71.194  25.595  69.1100  0.00  0.00     0.000 C
ATOM     63  O5  A00 X   4      69.779  25.688  69.4180  0.00  0.00     0.000 O
BRANCH 59 66
ATOM     64   N  A00 X   4      69.357  28.762  69.3640  0.00  0.00     0.000 N
ATOM     66  HD  A00 X   4      69.274  28.404  70.1480  0.00  0.00     0.000 HD
ATOM     66   O  A00 X   4      67.158  29.161  68.4660  0.00  0.00     0.000 OA
ATOM     67   S  A00 X   4      68.151  29.809  69.2650  0.00  0.00     0.000 S
ATOM     68   O  A00 X   4      67.825  29.960  70.6530  0.00  0.00     0.000 OA
ATOM     69   O  A00 X   4      68.839  30.934  68.6960  0.00  0.00     0.000 OA
ENDBRANCH 59 66
BRANCH 62 70
ATOM     70   C  A00 X   4      71.845  24.590  70.0900  0.00  0.00     0.000 C
ATOM     71   O  A00 X   4      71.680  24.528  73.7060  0.00  0.00     0.000 OA
ATOM     72   O  A00 X   4      73.525  24.372  72.2520  0.00  0.00     0.000 OA
ATOM     73   O  A00 X   4      71.314  24.800  71.4080  0.00  0.00     0.000 O
ATOM     74   O  A00 X   4      72.463  26.534  72.6230  0.00  0.00     0.000 OA
ATOM     75   S  A00 X   4      72.324  25.115  72.5650  0.00  0.00     0.000 S
ENDBRANCH 62 70
ENDBRANCH 57 61
ENDBRANCH 41 57
ENDBRANCH 40 44
ENDBRANCH 20 40
ENDBRANCH 19 23
ENDBRANCH 1 19
TORSDOF 14
ENDMDL
MODEL 58
REMARK VINA RESULT:      -1.1     43.102     48.993
ROOT
ATOM      1  C1  A00 X   1      25.703  39.099  58.0840  0.00  0.00     0.000 C
ATOM      2  C2  A00 X   1      24.856  38.628  59.2970  0.00  0.00     0.000 C
ATOM      3  C3  A00 X   1      24.376  39.749  60.2770  0.00  0.00     0.000 C
ATOM      4  C4  A00 X   1      25.095  41.115  60.1330  0.00  0.00     0.000 C
ATOM      5  C5  A00 X   1      26.467  40.979  59.4730  0.00  0.00     0.000 C
ATOM      6  O5  A00 X   1      26.189  40.462  58.1520  0.00  0.00     0.000 O
ATOM      7   O  A00 X   1      24.600  39.313  61.6150  0.00  0.00     0.000 O
ATOM      9  HD  A00 X   1      24.825  40.148  61.5780  0.00  0.00     0.000 HD
ATOM      9   O  A00 X   1      24.300  42.049  59.4040  0.00  0.00     0.000 O
ATOM     11  HD  A00 X   1      24.525  42.885  59.3670  0.00  0.00     0.000 HD
ENDROOT
BRANCH 2 11
ATOM     11   O  A00 X   1      23.705  37.930  58.7830  0.00  0.00     0.000 O
ATOM     12   O  A00 X   1      22.114  36.865  60.2330  0.00  0.00     0.000 OA
ATOM     13   O  A00 X   1      24.405  36.050  60.1770  0.00  0.00     0.000 OA
ATOM     14   O  A00 X   1      22.978  35.765  58.2950  0.00  0.00     0.000 OA
ATOM     15   S  A00 X   1      23.284  36.573  59.4450  0.00  0.00     0.000 S
ENDBRANCH 2 11
BRANCH 5 16
ATOM     16   C  A00 X   1      27.483  40.142  60.2570  0.00  0.00     0.000 C
ATOM     17   O  A00 X   1      28.519  39.823  59.7100  0.00  0.00     0.000 OA
ATOM     18   O  A00 X   1      27.293  39.793  61.4050  0.00  0.00     0.000 OA
ENDBRANCH 5 16
BRANCH 1 19
ATOM     19  O4  A00 X   2      26.766  38.174  57.7490  0.00  0.00     0.000 O
BRANCH 19 23
ATOM     20  C1  A00 X   2      26.352  38.755  53.5240  0.00  0.00     0.000 C
ATOM     21  C2  A00 X   2      25.674  37.509  54.1440  0.00  0.00     0.000 C
ATOM     22  C3  A00 X   2      25.537  37.662  55.6730  0.00  0.00     0.000 C
ATOM     23  C4  A00 X   2      26.907  37.981  56.3130  0.00  0.00     0.000 C
ATOM     24  C5  A00 X   2      27.486  39.231  55.5960  0.00  0.00     0.000 C
ATOM     25  O5  A00 X   2      27.634  38.933  54.1830  0.00  0.00     0.000 O
ATOM     26   O  A00 X   2      24.843  36.514  56.1910  0.00  0.00     0.000 O
ATOM     28  HD  A00 X   2      25.361  35.953  55.7810  0.00  0.00     0.000 HD
BRANCH 21 30
ATOM     28   N  A00 X   2      25.976  36.777  52.9090  0.00  0.00     0.000 N
ATOM     30  HD  A00 X   2      25.382  36.314  53.3370  0.00  0.00     0.000 HD
ATOM     30   O  A00 X   2      24.285  35.202  52.5650  0.00  0.00     0.000 OA
ATOM     31   S  A00 X   2      25.675  35.226  52.8540  0.00  0.00     0.000 S
ATOM     32   O  A00 X   2      26.518  34.755  51.8000  0.00  0.00     0.000 OA
ATOM     33   O  A00 X   2      26.087  34.670  54.1080  0.00  0.00     0.000 OA
ENDBRANCH 21 30
BRANCH 24 34
ATOM     34   C  A00 X   2      28.745  39.896  56.2000  0.00  0.00     0.000 C
ATOM     35   O  A00 X   2      31.915  38.179  56.7100  0.00  0.00     0.000 OA
ATOM     36   O  A00 X   2      29.714  38.909  56.6060  0.00  0.00     0.000 O
ATOM     37   O  A00 X   2      30.808  38.319  54.6250  0.00  0.00     0.000 OA
ATOM     38   S  A00 X   2      31.097  38.980  55.8600  0.00  0.00     0.000 S
ATOM     39   O  A00 X   2      31.455  40.366  55.8040  0.00  0.00     0.000 OA
ENDBRANCH 24 34
BRANCH 20 40
ATOM     40  O4  A00 X   3      25.492  39.860  53.8390  0.00  0.00     0.000 O
BRANCH 40 44
ATOM     41  C1  A00 X   3      25.228  43.283  54.9950  0.00  0.00     0.000 C
ATOM     42  C2  A00 X   3      24.028  42.377  54.6450  0.00  0.00     0.000 C
ATOM     43  C3  A00 X   3      24.206  41.735  53.2460  0.00  0.00     0.000 C
ATOM     44  C4  A00 X   3      25.551  41.054  53.0280  0.00  0.00     0.000 C
ATOM     45  C5  A00 X   3      26.706  42.028  53.3950  0.00  0.00     0.000 C
ATOM     46  O5  A00 X   3      26.492  42.618  54.7180  0.00  0.00     0.000 O
ATOM     47   O  A00 X   3      23.115  40.943  52.7800  0.00  0.00     0.000 O
ATOM     49  HD  A00 X   3      23.753  40.441  52.4810  0.00  0.00     0.000 HD
BRANCH 42 49
ATOM     49   O  A00 X   3      23.940  41.373  55.6800  0.00  0.00     0.000 O
ATOM     50   O  A00 X   3      22.572  39.461  56.1270  0.00  0.00     0.000 OA
ATOM     51   O  A00 X   3      21.550  41.428  55.3050  0.00  0.00     0.000 OA
ATOM     52   O  A00 X   3      22.447  41.454  57.4910  0.00  0.00     0.000 OA
ATOM     53   S  A00 X   3      22.552  40.888  56.1900  0.00  0.00     0.000 S
ENDBRANCH 42 49
BRANCH 45 54
ATOM     54   C  A00 X   3      26.937  43.074  52.2980  0.00  0.00     0.000 C
ATOM     55   O  A00 X   3      26.134  43.214  51.3990  0.00  0.00     0.000 OA
ATOM     56   O  A00 X   3      27.932  43.782  52.3080  0.00  0.00     0.000 OA
ENDBRANCH 45 54
BRANCH 41 57
ATOM     57  O4  A00 X   4      25.106  44.589  54.3860  0.00  0.00     0.000 O
BRANCH 57 61
ATOM     58  C1  A00 X   4      26.320  48.538  55.6390  0.00  0.00     0.000 C
ATOM     59  C2  A00 X   4      27.411  47.457  55.4330  0.00  0.00     0.000 C
ATOM     60  C3  A00 X   4      26.914  46.223  54.6540  0.00  0.00     0.000 C
ATOM     61  C4  A00 X   4      25.572  45.698  55.2060  0.00  0.00     0.000 C
ATOM     62  C5  A00 X   4      24.575  46.881  55.1230  0.00  0.00     0.000 C
ATOM     63  O5  A00 X   4      25.040  47.958  55.9760  0.00  0.00     0.000 O
BRANCH 59 66
ATOM     64   N  A00 X   4      27.876  46.937  56.7320  0.00  0.00     0.000 N
ATOM     66  HD  A00 X   4      27.317  46.954  57.3930  0.00  0.00     0.000 HD
ATOM     66   O  A00 X   4      29.305  48.869  56.8820  0.00  0.00     0.000 OA
ATOM     67   S  A00 X   4      29.239  47.515  57.3360  0.00  0.00     0.000 S
ATOM     68   O  A00 X   4      28.994  47.345  58.7380  0.00  0.00     0.000 OA
ATOM     69   O  A00 X   4      30.177  46.578  56.7850  0.00  0.00     0.000 OA
ENDBRANCH 59 66
BRANCH 62 70
ATOM     70   C  A00 X   4      23.128  46.518  55.5340  0.00  0.00     0.000 C
ATOM     71   O  A00 X   4      21.847  45.708  58.8220  0.00  0.00     0.000 OA
ATOM     72   O  A00 X   4      21.583  44.605  56.7580  0.00  0.00     0.000 OA
ATOM     73   O  A00 X   4      23.027  46.517  56.9670  0.00  0.00     0.000 O
ATOM     74   O  A00 X   4      23.697  44.425  57.9580  0.00  0.00     0.000 OA
ATOM     75   S  A00 X   4      22.535  45.203  57.6680  0.00  0.00     0.000 S
ENDBRANCH 62 70
ENDBRANCH 57 61
ENDBRANCH 41 57
ENDBRANCH 40 44
ENDBRANCH 20 40
ENDBRANCH 19 23
ENDBRANCH 1 19
TORSDOF 14
ENDMDL
MODEL 59
REMARK VINA RESULT:      -1.1     52.619     59.288
ROOT
ATOM      1  C1  A00 X   1      55.994  33.187  52.3970  0.00  0.00     0.000 C
ATOM      2  C2  A00 X   1      57.187  34.179  52.3820  0.00  0.00     0.000 C
ATOM      3  C3  A00 X   1      57.395  34.984  51.0570  0.00  0.00     0.000 C
ATOM      4  C4  A00 X   1      56.636  34.441  49.8190  0.00  0.00     0.000 C
ATOM      5  C5  A00 X   1      56.276  32.962  49.9640  0.00  0.00     0.000 C
ATOM      6  O5  A00 X   1      55.393  32.910  51.1070  0.00  0.00     0.000 O
ATOM      7   O  A00 X   1      58.781  34.964  50.7220  0.00  0.00     0.000 O
ATOM      9  HD  A00 X   1      58.339  34.850  49.9860  0.00  0.00     0.000 HD
ATOM      9   O  A00 X   1      55.456  35.200  49.5560  0.00  0.00     0.000 O
ATOM     11  HD  A00 X   1      55.014  35.087  48.8200  0.00  0.00     0.000 HD
ENDROOT
BRANCH 2 11
ATOM     11   O  A00 X   1      57.001  35.105  53.4700  0.00  0.00     0.000 O
ATOM     12   O  A00 X   1      58.646  36.767  54.0180  0.00  0.00     0.000 OA
ATOM     13   O  A00 X   1      59.211  34.412  54.2470  0.00  0.00     0.000 OA
ATOM     14   O  A00 X   1      57.617  35.416  55.7000  0.00  0.00     0.000 OA
ATOM     15   S  A00 X   1      58.221  35.443  54.3950  0.00  0.00     0.000 S
ENDBRANCH 2 11
BRANCH 5 16
ATOM     16   C  A00 X   1      57.474  32.012  50.0710  0.00  0.00     0.000 C
ATOM     17   O  A00 X   1      57.272  30.856  50.3810  0.00  0.00     0.000 OA
ATOM     18   O  A00 X   1      58.613  32.372  49.8490  0.00  0.00     0.000 OA
ENDBRANCH 5 16
BRANCH 1 19
ATOM     19  O4  A00 X   2      56.290  31.964  53.1150  0.00  0.00     0.000 O
BRANCH 19 23
ATOM     20  C1  A00 X   2      52.344  31.609  54.7490  0.00  0.00     0.000 C
ATOM     21  C2  A00 X   2      53.436  32.233  55.6500  0.00  0.00     0.000 C
ATOM     22  C3  A00 X   2      54.648  32.687  54.8100  0.00  0.00     0.000 C
ATOM     23  C4  A00 X   2      55.178  31.520  53.9450  0.00  0.00     0.000 C
ATOM     24  C5  A00 X   2      53.989  30.973  53.1080  0.00  0.00     0.000 C
ATOM     25  O5  A00 X   2      52.952  30.514  54.0130  0.00  0.00     0.000 O
ATOM     26   O  A00 X   2      55.602  33.320  55.6800  0.00  0.00     0.000 O
ATOM     28  HD  A00 X   2      55.594  32.665  56.2470  0.00  0.00     0.000 HD
BRANCH 21 30
ATOM     28   N  A00 X   2      52.787  31.606  56.8050  0.00  0.00     0.000 N
ATOM     30  HD  A00 X   2      53.326  32.208  57.1170  0.00  0.00     0.000 HD
ATOM     30   O  A00 X   2      53.119  32.985  58.6620  0.00  0.00     0.000 OA
ATOM     31   S  A00 X   2      53.499  31.692  58.2140  0.00  0.00     0.000 S
ATOM     32   O  A00 X   2      52.927  30.606  58.9490  0.00  0.00     0.000 OA
ATOM     33   O  A00 X   2      54.896  31.465  57.9970  0.00  0.00     0.000 OA
ENDBRANCH 21 30
BRANCH 24 34
ATOM     34   C  A00 X   2      54.300  29.951  51.9890  0.00  0.00     0.000 C
ATOM     35   O  A00 X   2      53.073  26.523  51.9580  0.00  0.00     0.000 OA
ATOM     36   O  A00 X   2      53.991  28.607  52.4080  0.00  0.00     0.000 O
ATOM     37   O  A00 X   2      51.677  28.425  52.1220  0.00  0.00     0.000 OA
ATOM     38   S  A00 X   2      52.879  27.881  51.5670  0.00  0.00     0.000 S
ATOM     39   O  A00 X   2      53.162  28.163  50.1920  0.00  0.00     0.000 OA
ENDBRANCH 24 34
BRANCH 20 40
ATOM     40  O4  A00 X   3      51.956  32.645  53.8350  0.00  0.00     0.000 O
BRANCH 40 44
ATOM     41  C1  A00 X   3      51.131  33.596  50.4380  0.00  0.00     0.000 C
ATOM     42  C2  A00 X   3      51.183  34.569  51.6360  0.00  0.00     0.000 C
ATOM     43  C3  A00 X   3      50.348  34.028  52.8260  0.00  0.00     0.000 C
ATOM     44  C4  A00 X   3      50.655  32.587  53.2120  0.00  0.00     0.000 C
ATOM     45  C5  A00 X   3      50.578  31.672  51.9580  0.00  0.00     0.000 C
ATOM     46  O5  A00 X   3      51.371  32.225  50.8580  0.00  0.00     0.000 O
ATOM     47   O  A00 X   3      50.252  34.887  53.9610  0.00  0.00     0.000 O
ATOM     49  HD  A00 X   3      50.325  34.139  54.3910  0.00  0.00     0.000 HD
BRANCH 42 49
ATOM     49   O  A00 X   3      52.573  34.724  51.9950  0.00  0.00     0.000 O
ATOM     50   O  A00 X   3      53.806  35.885  53.6870  0.00  0.00     0.000 OA
ATOM     51   O  A00 X   3      51.982  36.977  52.6530  0.00  0.00     0.000 OA
ATOM     52   O  A00 X   3      53.915  36.545  51.3630  0.00  0.00     0.000 OA
ATOM     53   S  A00 X   3      53.116  36.108  52.4560  0.00  0.00     0.000 S
ENDBRANCH 42 49
BRANCH 45 54
ATOM     54   C  A00 X   3      49.127  31.370  51.5630  0.00  0.00     0.000 C
ATOM     55   O  A00 X   3      48.207  31.962  52.0900  0.00  0.00     0.000 OA
ATOM     56   O  A00 X   3      48.872  30.531  50.7140  0.00  0.00     0.000 OA
ENDBRANCH 45 54
BRANCH 41 57
ATOM     57  O4  A00 X   4      49.924  33.770  49.6620  0.00  0.00     0.000 O
BRANCH 57 61
ATOM     58  C1  A00 X   4      49.064  33.402  45.4470  0.00  0.00     0.000 C
ATOM     59  C2  A00 X   4      49.565  32.152  46.2130  0.00  0.00     0.000 C
ATOM     60  C3  A00 X   4      49.493  32.301  47.7460  0.00  0.00     0.000 C
ATOM     61  C4  A00 X   4      50.092  33.642  48.2210  0.00  0.00     0.000 C
ATOM     62  C5  A00 X   4      49.303  34.756  47.4890  0.00  0.00     0.000 C
ATOM     63  O5  A00 X   4      49.517  34.631  46.0590  0.00  0.00     0.000 O
BRANCH 59 66
ATOM     64   N  A00 X   4      50.986  31.904  45.9100  0.00  0.00     0.000 N
ATOM     66  HD  A00 X   4      51.474  32.587  45.6950  0.00  0.00     0.000 HD
ATOM     66   O  A00 X   4      50.261  30.812  43.8900  0.00  0.00     0.000 OA
ATOM     67   S  A00 X   4      51.345  30.788  44.8210  0.00  0.00     0.000 S
ATOM     68   O  A00 X   4      52.592  31.297  44.3300  0.00  0.00     0.000 OA
ATOM     69   O  A00 X   4      51.472  29.638  45.6710  0.00  0.00     0.000 OA
ENDBRANCH 59 66
BRANCH 62 70
ATOM     70   C  A00 X   4      49.688  36.191  47.9200  0.00  0.00     0.000 C
ATOM     71   O  A00 X   4      52.763  37.995  47.2860  0.00  0.00     0.000 OA
ATOM     72   O  A00 X   4      51.557  37.672  49.2820  0.00  0.00     0.000 OA
ATOM     73   O  A00 X   4      50.894  36.583  47.2430  0.00  0.00     0.000 O
ATOM     74   O  A00 X   4      52.890  35.846  48.3730  0.00  0.00     0.000 OA
ATOM     75   S  A00 X   4      52.118  37.020  48.1200  0.00  0.00     0.000 S
ENDBRANCH 62 70
ENDBRANCH 57 61
ENDBRANCH 41 57
ENDBRANCH 40 44
ENDBRANCH 20 40
ENDBRANCH 19 23
ENDBRANCH 1 19
TORSDOF 14
ENDMDL
MODEL 60
REMARK VINA RESULT:      -1.1     44.589     48.158
ROOT
ATOM      1  C1  A00 X   1      24.928  38.792  57.3120  0.00  0.00     0.000 C
ATOM      2  C2  A00 X   1      25.007  37.246  57.4280  0.00  0.00     0.000 C
ATOM      3  C3  A00 X   1      23.839  36.555  58.2070  0.00  0.00     0.000 C
ATOM      4  C4  A00 X   1      22.961  37.498  59.0700  0.00  0.00     0.000 C
ATOM      5  C5  A00 X   1      23.691  38.791  59.4370  0.00  0.00     0.000 C
ATOM      6  O5  A00 X   1      23.954  39.435  58.1700  0.00  0.00     0.000 O
ATOM      7   O  A00 X   1      24.393  35.590  59.0990  0.00  0.00     0.000 O
ATOM      9  HD  A00 X   1      23.758  35.997  59.5250  0.00  0.00     0.000 HD
ATOM      9   O  A00 X   1      21.730  37.807  58.4170  0.00  0.00     0.000 O
ATOM     11  HD  A00 X   1      21.096  38.214  58.8430  0.00  0.00     0.000 HD
ENDROOT
BRANCH 2 11
ATOM     11   O  A00 X   1      25.062  36.708  56.0920  0.00  0.00     0.000 O
ATOM     12   O  A00 X   1      25.351  34.360  55.6800  0.00  0.00     0.000 OA
ATOM     13   O  A00 X   1      27.130  35.603  56.7790  0.00  0.00     0.000 OA
ATOM     14   O  A00 X   1      26.612  36.007  54.4930  0.00  0.00     0.000 OA
ATOM     15   S  A00 X   1      26.106  35.584  55.7710  0.00  0.00     0.000 S
ENDBRANCH 2 11
BRANCH 5 16
ATOM     16   C  A00 X   1      24.941  38.606  60.3030  0.00  0.00     0.000 C
ATOM     17   O  A00 X   1      25.678  39.555  60.4690  0.00  0.00     0.000 OA
ATOM     18   O  A00 X   1      25.216  37.548  60.8330  0.00  0.00     0.000 OA
ENDBRANCH 5 16
BRANCH 1 19
ATOM     19  O4  A00 X   2      26.225  39.429  57.4130  0.00  0.00     0.000 O
BRANCH 19 23
ATOM     20  C1  A00 X   2      25.315  42.431  54.4940  0.00  0.00     0.000 C
ATOM     21  C2  A00 X   2      26.131  41.202  54.0250  0.00  0.00     0.000 C
ATOM     22  C3  A00 X   2      26.006  40.042  55.0340  0.00  0.00     0.000 C
ATOM     23  C4  A00 X   2      26.392  40.512  56.4540  0.00  0.00     0.000 C
ATOM     24  C5  A00 X   2      25.522  41.752  56.7970  0.00  0.00     0.000 C
ATOM     25  O5  A00 X   2      25.786  42.792  55.8200  0.00  0.00     0.000 O
ATOM     26   O  A00 X   2      26.723  38.906  54.5210  0.00  0.00     0.000 O
ATOM     28  HD  A00 X   2      27.439  39.365  54.3630  0.00  0.00     0.000 HD
BRANCH 21 30
ATOM     28   N  A00 X   2      26.855  42.085  53.1040  0.00  0.00     0.000 N
ATOM     30  HD  A00 X   2      27.012  41.272  52.8480  0.00  0.00     0.000 HD
ATOM     30   O  A00 X   2      27.447  40.839  51.2180  0.00  0.00     0.000 OA
ATOM     31   S  A00 X   2      28.085  41.499  52.3020  0.00  0.00     0.000 S
ATOM     32   O  A00 X   2      28.838  42.661  51.9430  0.00  0.00     0.000 OA
ATOM     33   O  A00 X   2      28.833  40.683  53.2100  0.00  0.00     0.000 OA
ENDBRANCH 21 30
BRANCH 24 34
ATOM     34   C  A00 X   2      25.549  42.278  58.2510  0.00  0.00     0.000 C
ATOM     35   O  A00 X   2      28.566  43.376  59.9680  0.00  0.00     0.000 OA
ATOM     36   O  A00 X   2      26.892  42.299  58.7740  0.00  0.00     0.000 O
ATOM     37   O  A00 X   2      27.826  44.258  57.9020  0.00  0.00     0.000 OA
ATOM     38   S  A00 X   2      27.436  43.721  59.1700  0.00  0.00     0.000 S
ATOM     39   O  A00 X   2      26.375  44.379  59.8720  0.00  0.00     0.000 OA
ENDBRANCH 24 34
BRANCH 20 40
ATOM     40  O4  A00 X   3      23.954  41.985  54.5730  0.00  0.00     0.000 O
BRANCH 40 44
ATOM     41  C1  A00 X   3      20.855  41.957  56.4500  0.00  0.00     0.000 C
ATOM     42  C2  A00 X   3      21.085  41.207  55.1200  0.00  0.00     0.000 C
ATOM     43  C3  A00 X   3      21.671  42.156  54.0430  0.00  0.00     0.000 C
ATOM     44  C4  A00 X   3      22.887  42.955  54.4960  0.00  0.00     0.000 C
ATOM     45  C5  A00 X   3      22.576  43.682  55.8340  0.00  0.00     0.000 C
ATOM     46  O5  A00 X   3      22.016  42.753  56.8170  0.00  0.00     0.000 O
ATOM     47   O  A00 X   3      21.845  41.591  52.7440  0.00  0.00     0.000 O
ATOM     49  HD  A00 X   3      22.571  42.062  52.7600  0.00  0.00     0.000 HD
BRANCH 42 49
ATOM     49   O  A00 X   3      21.981  40.110  55.4020  0.00  0.00     0.000 O
ATOM     50   O  A00 X   3      23.056  38.383  54.1410  0.00  0.00     0.000 OA
ATOM     51   O  A00 X   3      20.803  38.913  53.6610  0.00  0.00     0.000 OA
ATOM     52   O  A00 X   3      21.302  37.887  55.7300  0.00  0.00     0.000 OA
ATOM     53   S  A00 X   3      21.788  38.736  54.6980  0.00  0.00     0.000 S
ENDBRANCH 42 49
BRANCH 45 54
ATOM     54   C  A00 X   3      21.706  44.926  55.6150  0.00  0.00     0.000 C
ATOM     55   O  A00 X   3      21.230  45.164  54.5240  0.00  0.00     0.000 OA
ATOM     56   O  A00 X   3      21.478  45.699  56.5330  0.00  0.00     0.000 OA
ENDBRANCH 45 54
BRANCH 41 57
ATOM     57  O4  A00 X   4      19.615  42.699  56.4370  0.00  0.00     0.000 O
BRANCH 57 61
ATOM     58  C1  A00 X   4      16.728  43.651  59.5020  0.00  0.00     0.000 C
ATOM     59  C2  A00 X   4      18.177  44.173  59.6620  0.00  0.00     0.000 C
ATOM     60  C3  A00 X   4      19.008  44.086  58.3660  0.00  0.00     0.000 C
ATOM     61  C4  A00 X   4      18.882  42.701  57.6950  0.00  0.00     0.000 C
ATOM     62  C5  A00 X   4      17.372  42.478  57.4360  0.00  0.00     0.000 C
ATOM     63  O5  A00 X   4      16.670  42.446  58.7050  0.00  0.00     0.000 O
BRANCH 59 66
ATOM     64   N  A00 X   4      18.910  43.360  60.6500  0.00  0.00     0.000 N
ATOM     66  HD  A00 X   4      18.666  42.535  60.7500  0.00  0.00     0.000 HD
ATOM     66   O  A00 X   4      17.863  44.685  62.3670  0.00  0.00     0.000 OA
ATOM     67   S  A00 X   4      19.053  43.926  62.1390  0.00  0.00     0.000 S
ATOM     68   O  A00 X   4      19.152  42.699  62.8740  0.00  0.00     0.000 OA
ATOM     69   O  A00 X   4      20.291  44.642  62.0200  0.00  0.00     0.000 OA
ENDBRANCH 59 66
BRANCH 62 70
ATOM     70   C  A00 X   4      17.048  41.178  56.6620  0.00  0.00     0.000 C
ATOM     71   O  A00 X   4      17.337  37.748  57.7850  0.00  0.00     0.000 OA
ATOM     72   O  A00 X   4      18.093  38.785  55.8110  0.00  0.00     0.000 OA
ATOM     73   O  A00 X   4      17.072  40.066  57.5720  0.00  0.00     0.000 O
ATOM     74   O  A00 X   4      19.283  39.167  57.9030  0.00  0.00     0.000 OA
ATOM     75   S  A00 X   4      18.045  38.878  57.2530  0.00  0.00     0.000 S
ENDBRANCH 62 70
ENDBRANCH 57 61
ENDBRANCH 41 57
ENDBRANCH 40 44
ENDBRANCH 20 40
ENDBRANCH 19 23
ENDBRANCH 1 19
TORSDOF 14
ENDMDL
MODEL 61
REMARK VINA RESULT:      -1.1     83.785     88.541
ROOT
ATOM      1  C1  A00 X   1      74.651  60.727  44.2690  0.00  0.00     0.000 C
ATOM      2  C2  A00 X   1      74.438  59.710  45.4210  0.00  0.00     0.000 C
ATOM      3  C3  A00 X   1      75.301  58.407  45.3570  0.00  0.00     0.000 C
ATOM      4  C4  A00 X   1      75.977  58.119  43.9920  0.00  0.00     0.000 C
ATOM      5  C5  A00 X   1      75.268  58.825  42.8370  0.00  0.00     0.000 C
ATOM      6  O5  A00 X   1      75.400  60.234  43.1300  0.00  0.00     0.000 O
ATOM      7   O  A00 X   1      74.462  57.288  45.6370  0.00  0.00     0.000 O
ATOM      9  HD  A00 X   1      74.985  57.059  44.9860  0.00  0.00     0.000 HD
ATOM      9   O  A00 X   1      77.357  58.485  44.0060  0.00  0.00     0.000 O
ATOM     11  HD  A00 X   1      77.880  58.256  43.3550  0.00  0.00     0.000 HD
ENDROOT
BRANCH 2 11
ATOM     11   O  A00 X   1      74.707  60.390  46.6620  0.00  0.00     0.000 O
ATOM     12   O  A00 X   1      74.790  59.223  48.7590  0.00  0.00     0.000 OA
ATOM     13   O  A00 X   1      72.695  59.306  47.5260  0.00  0.00     0.000 OA
ATOM     14   O  A00 X   1      73.592  61.276  48.5130  0.00  0.00     0.000 OA
ATOM     15   S  A00 X   1      73.889  59.992  47.9390  0.00  0.00     0.000 S
ENDBRANCH 2 11
BRANCH 5 16
ATOM     16   C  A00 X   1      73.821  58.382  42.5980  0.00  0.00     0.000 C
ATOM     17   O  A00 X   1      73.126  59.043  41.8540  0.00  0.00     0.000 OA
ATOM     18   O  A00 X   1      73.348  57.392  43.1200  0.00  0.00     0.000 OA
ENDBRANCH 5 16
BRANCH 1 19
ATOM     19  O4  A00 X   2      73.422  61.371  43.8540  0.00  0.00     0.000 O
BRANCH 19 23
ATOM     20  C1  A00 X   2      75.258  65.205  43.3090  0.00  0.00     0.000 C
ATOM     21  C2  A00 X   2      74.510  64.954  44.6410  0.00  0.00     0.000 C
ATOM     22  C3  A00 X   2      74.292  63.444  44.8720  0.00  0.00     0.000 C
ATOM     23  C4  A00 X   2      73.583  62.805  43.6560  0.00  0.00     0.000 C
ATOM     24  C5  A00 X   2      74.415  63.144  42.3890  0.00  0.00     0.000 C
ATOM     25  O5  A00 X   2      74.484  64.586  42.2470  0.00  0.00     0.000 O
ATOM     26   O  A00 X   2      73.658  63.259  46.1490  0.00  0.00     0.000 O
ATOM     28  HD  A00 X   2      73.039  63.842  45.9830  0.00  0.00     0.000 HD
BRANCH 21 30
ATOM     28   N  A00 X   2      74.107  66.363  44.6380  0.00  0.00     0.000 N
ATOM     30  HD  A00 X   2      73.971  66.065  45.4400  0.00  0.00     0.000 HD
ATOM     30   O  A00 X   2      73.946  67.079  46.8560  0.00  0.00     0.000 OA
ATOM     31   S  A00 X   2      73.092  66.864  45.7420  0.00  0.00     0.000 S
ATOM     32   O  A00 X   2      72.531  68.050  45.1740  0.00  0.00     0.000 OA
ATOM     33   O  A00 X   2      72.085  65.855  45.8820  0.00  0.00     0.000 OA
ENDBRANCH 21 30
BRANCH 24 34
ATOM     34   C  A00 X   2      74.047  62.430  41.0670  0.00  0.00     0.000 C
ATOM     35   O  A00 X   2      70.763  62.595  39.5050  0.00  0.00     0.000 OA
ATOM     36   O  A00 X   2      72.619  62.378  40.8820  0.00  0.00     0.000 O
ATOM     37   O  A00 X   2      72.061  64.494  40.0550  0.00  0.00     0.000 OA
ATOM     38   S  A00 X   2      72.079  63.133  39.6120  0.00  0.00     0.000 S
ATOM     39   O  A00 X   2      72.962  62.798  38.5360  0.00  0.00     0.000 OA
ENDBRANCH 24 34
BRANCH 20 40
ATOM     40  O4  A00 X   3      76.519  64.533  43.4390  0.00  0.00     0.000 O
BRANCH 40 44
ATOM     41  C1  A00 X   3      79.013  62.393  41.9160  0.00  0.00     0.000 C
ATOM     42  C2  A00 X   3      79.090  62.948  43.3550  0.00  0.00     0.000 C
ATOM     43  C3  A00 X   3      78.867  64.482  43.3710  0.00  0.00     0.000 C
ATOM     44  C4  A00 X   3      77.629  64.950  42.6160  0.00  0.00     0.000 C
ATOM     45  C5  A00 X   3      77.627  64.356  41.1790  0.00  0.00     0.000 C
ATOM     46  O5  A00 X   3      77.851  62.909  41.2110  0.00  0.00     0.000 O
ATOM     47   O  A00 X   3      79.001  65.117  44.6410  0.00  0.00     0.000 O
ATOM     49  HD  A00 X   3      78.327  65.580  44.3550  0.00  0.00     0.000 HD
BRANCH 42 49
ATOM     49   O  A00 X   3      78.082  62.259  44.1270  0.00  0.00     0.000 O
ATOM     50   O  A00 X   3      77.268  62.342  46.3770  0.00  0.00     0.000 OA
ATOM     51   O  A00 X   3      79.597  62.486  46.0010  0.00  0.00     0.000 OA
ATOM     52   O  A00 X   3      78.507  60.438  45.5480  0.00  0.00     0.000 OA
ATOM     53   S  A00 X   3      78.365  61.852  45.6030  0.00  0.00     0.000 S
ENDBRANCH 42 49
BRANCH 45 54
ATOM     54   C  A00 X   3      78.602  65.097  40.2570  0.00  0.00     0.000 C
ATOM     55   O  A00 X   3      78.619  64.871  39.0640  0.00  0.00     0.000 OA
ATOM     56   O  A00 X   3      79.378  65.927  40.7050  0.00  0.00     0.000 OA
ENDBRANCH 45 54
BRANCH 41 57
ATOM     57  O4  A00 X   4      80.259  62.576  41.2060  0.00  0.00     0.000 O
BRANCH 57 61
ATOM     58  C1  A00 X   4      82.305  60.236  38.2100  0.00  0.00     0.000 C
ATOM     59  C2  A00 X   4      80.900  60.798  37.8800  0.00  0.00     0.000 C
ATOM     60  C3  A00 X   4      80.431  61.894  38.8570  0.00  0.00     0.000 C
ATOM     61  C4  A00 X   4      80.638  61.477  40.3290  0.00  0.00     0.000 C
ATOM     62  C5  A00 X   4      82.147  61.163  40.4850  0.00  0.00     0.000 C
ATOM     63  O5  A00 X   4      82.492  60.043  39.6310  0.00  0.00     0.000 O
BRANCH 59 66
ATOM     64   N  A00 X   4      79.889  59.729  37.9750  0.00  0.00     0.000 N
ATOM     66  HD  A00 X   4      80.050  59.073  38.5180  0.00  0.00     0.000 HD
ATOM     66   O  A00 X   4      80.532  59.061  35.7520  0.00  0.00     0.000 OA
ATOM     67   S  A00 X   4      79.399  59.028  36.6230  0.00  0.00     0.000 S
ATOM     68   O  A00 X   4      79.041  57.731  37.1200  0.00  0.00     0.000 OA
ATOM     69   O  A00 X   4      78.279  59.863  36.2960  0.00  0.00     0.000 OA
ENDBRANCH 59 66
BRANCH 62 70
ATOM     70   C  A00 X   4      82.577  60.828  41.9330  0.00  0.00     0.000 C
ATOM     71   O  A00 X   4      81.790  57.895  43.9040  0.00  0.00     0.000 OA
ATOM     72   O  A00 X   4      81.639  60.185  44.4330  0.00  0.00     0.000 OA
ATOM     73   O  A00 X   4      82.247  59.460  42.2220  0.00  0.00     0.000 O
ATOM     74   O  A00 X   4      79.974  59.176  42.9680  0.00  0.00     0.000 OA
ATOM     75   S  A00 X   4      81.317  59.173  43.4510  0.00  0.00     0.000 S
ENDBRANCH 62 70
ENDBRANCH 57 61
ENDBRANCH 41 57
ENDBRANCH 40 44
ENDBRANCH 20 40
ENDBRANCH 19 23
ENDBRANCH 1 19
TORSDOF 14
ENDMDL
MODEL 62
REMARK VINA RESULT:      -1.1     85.380     90.134
ROOT
ATOM      1  C1  A00 X   1      75.070  62.971  44.2360  0.00  0.00     0.000 C
ATOM      2  C2  A00 X   1      74.856  61.954  45.3890  0.00  0.00     0.000 C
ATOM      3  C3  A00 X   1      75.720  60.651  45.3250  0.00  0.00     0.000 C
ATOM      4  C4  A00 X   1      76.396  60.364  43.9600  0.00  0.00     0.000 C
ATOM      5  C5  A00 X   1      75.686  61.069  42.8040  0.00  0.00     0.000 C
ATOM      6  O5  A00 X   1      75.819  62.478  43.0970  0.00  0.00     0.000 O
ATOM      7   O  A00 X   1      74.881  59.532  45.6050  0.00  0.00     0.000 O
ATOM      9  HD  A00 X   1      75.404  59.303  44.9530  0.00  0.00     0.000 HD
ATOM      9   O  A00 X   1      77.776  60.729  43.9730  0.00  0.00     0.000 O
ATOM     11  HD  A00 X   1      78.299  60.500  43.3220  0.00  0.00     0.000 HD
ENDROOT
BRANCH 2 11
ATOM     11   O  A00 X   1      75.125  62.634  46.6300  0.00  0.00     0.000 O
ATOM     12   O  A00 X   1      75.209  61.467  48.7270  0.00  0.00     0.000 OA
ATOM     13   O  A00 X   1      73.114  61.550  47.4930  0.00  0.00     0.000 OA
ATOM     14   O  A00 X   1      74.010  63.520  48.4800  0.00  0.00     0.000 OA
ATOM     15   S  A00 X   1      74.308  62.236  47.9060  0.00  0.00     0.000 S
ENDBRANCH 2 11
BRANCH 5 16
ATOM     16   C  A00 X   1      74.239  60.626  42.5650  0.00  0.00     0.000 C
ATOM     17   O  A00 X   1      73.544  61.287  41.8210  0.00  0.00     0.000 OA
ATOM     18   O  A00 X   1      73.766  59.636  43.0870  0.00  0.00     0.000 OA
ENDBRANCH 5 16
BRANCH 1 19
ATOM     19  O4  A00 X   2      73.841  63.615  43.8220  0.00  0.00     0.000 O
BRANCH 19 23
ATOM     20  C1  A00 X   2      75.676  67.449  43.2770  0.00  0.00     0.000 C
ATOM     21  C2  A00 X   2      74.929  67.198  44.6090  0.00  0.00     0.000 C
ATOM     22  C3  A00 X   2      74.710  65.688  44.8390  0.00  0.00     0.000 C
ATOM     23  C4  A00 X   2      74.001  65.049  43.6240  0.00  0.00     0.000 C
ATOM     24  C5  A00 X   2      74.834  65.388  42.3570  0.00  0.00     0.000 C
ATOM     25  O5  A00 X   2      74.903  66.830  42.2140  0.00  0.00     0.000 O
ATOM     26   O  A00 X   2      74.077  65.503  46.1170  0.00  0.00     0.000 O
ATOM     28  HD  A00 X   2      73.458  66.086  45.9500  0.00  0.00     0.000 HD
BRANCH 21 30
ATOM     28   N  A00 X   2      74.525  68.607  44.6060  0.00  0.00     0.000 N
ATOM     30  HD  A00 X   2      74.389  68.309  45.4070  0.00  0.00     0.000 HD
ATOM     30   O  A00 X   2      74.365  69.323  46.8240  0.00  0.00     0.000 OA
ATOM     31   S  A00 X   2      73.511  69.108  45.7100  0.00  0.00     0.000 S
ATOM     32   O  A00 X   2      72.950  70.294  45.1410  0.00  0.00     0.000 OA
ATOM     33   O  A00 X   2      72.504  68.099  45.8490  0.00  0.00     0.000 OA
ENDBRANCH 21 30
BRANCH 24 34
ATOM     34   C  A00 X   2      74.466  64.674  41.0350  0.00  0.00     0.000 C
ATOM     35   O  A00 X   2      71.182  64.840  39.4720  0.00  0.00     0.000 OA
ATOM     36   O  A00 X   2      73.038  64.622  40.8490  0.00  0.00     0.000 O
ATOM     37   O  A00 X   2      72.480  66.738  40.0230  0.00  0.00     0.000 OA
ATOM     38   S  A00 X   2      72.498  65.377  39.5800  0.00  0.00     0.000 S
ATOM     39   O  A00 X   2      73.381  65.042  38.5030  0.00  0.00     0.000 OA
ENDBRANCH 24 34
BRANCH 20 40
ATOM     40  O4  A00 X   3      76.938  66.777  43.4070  0.00  0.00     0.000 O
BRANCH 40 44
ATOM     41  C1  A00 X   3      79.432  64.637  41.8830  0.00  0.00     0.000 C
ATOM     42  C2  A00 X   3      79.509  65.192  43.3220  0.00  0.00     0.000 C
ATOM     43  C3  A00 X   3      79.285  66.726  43.3380  0.00  0.00     0.000 C
ATOM     44  C4  A00 X   3      78.048  67.194  42.5830  0.00  0.00     0.000 C
ATOM     45  C5  A00 X   3      78.045  66.600  41.1460  0.00  0.00     0.000 C
ATOM     46  O5  A00 X   3      78.269  65.153  41.1780  0.00  0.00     0.000 O
ATOM     47   O  A00 X   3      79.420  67.362  44.6080  0.00  0.00     0.000 O
ATOM     49  HD  A00 X   3      78.746  67.824  44.3220  0.00  0.00     0.000 HD
BRANCH 42 49
ATOM     49   O  A00 X   3      78.501  64.503  44.0950  0.00  0.00     0.000 O
ATOM     50   O  A00 X   3      77.686  64.586  46.3440  0.00  0.00     0.000 OA
ATOM     51   O  A00 X   3      80.016  64.730  45.9690  0.00  0.00     0.000 OA
ATOM     52   O  A00 X   3      78.926  62.683  45.5150  0.00  0.00     0.000 OA
ATOM     53   S  A00 X   3      78.784  64.097  45.5700  0.00  0.00     0.000 S
ENDBRANCH 42 49
BRANCH 45 54
ATOM     54   C  A00 X   3      79.021  67.341  40.2240  0.00  0.00     0.000 C
ATOM     55   O  A00 X   3      79.038  67.115  39.0310  0.00  0.00     0.000 OA
ATOM     56   O  A00 X   3      79.797  68.171  40.6720  0.00  0.00     0.000 OA
ENDBRANCH 45 54
BRANCH 41 57
ATOM     57  O4  A00 X   4      80.678  64.820  41.1740  0.00  0.00     0.000 O
BRANCH 57 61
ATOM     58  C1  A00 X   4      82.724  62.480  38.1770  0.00  0.00     0.000 C
ATOM     59  C2  A00 X   4      81.319  63.042  37.8470  0.00  0.00     0.000 C
ATOM     60  C3  A00 X   4      80.850  64.138  38.8250  0.00  0.00     0.000 C
ATOM     61  C4  A00 X   4      81.057  63.721  40.2970  0.00  0.00     0.000 C
ATOM     62  C5  A00 X   4      82.566  63.407  40.4520  0.00  0.00     0.000 C
ATOM     63  O5  A00 X   4      82.910  62.287  39.5980  0.00  0.00     0.000 O
BRANCH 59 66
ATOM     64   N  A00 X   4      80.308  61.973  37.9420  0.00  0.00     0.000 N
ATOM     66  HD  A00 X   4      80.469  61.317  38.4850  0.00  0.00     0.000 HD
ATOM     66   O  A00 X   4      80.951  61.305  35.7200  0.00  0.00     0.000 OA
ATOM     67   S  A00 X   4      79.818  61.272  36.5910  0.00  0.00     0.000 S
ATOM     68   O  A00 X   4      79.459  59.975  37.0870  0.00  0.00     0.000 OA
ATOM     69   O  A00 X   4      78.697  62.107  36.2640  0.00  0.00     0.000 OA
ENDBRANCH 59 66
BRANCH 62 70
ATOM     70   C  A00 X   4      82.996  63.072  41.9000  0.00  0.00     0.000 C
ATOM     71   O  A00 X   4      82.208  60.140  43.8720  0.00  0.00     0.000 OA
ATOM     72   O  A00 X   4      82.058  62.429  44.4000  0.00  0.00     0.000 OA
ATOM     73   O  A00 X   4      82.666  61.704  42.1890  0.00  0.00     0.000 O
ATOM     74   O  A00 X   4      80.392  61.420  42.9350  0.00  0.00     0.000 OA
ATOM     75   S  A00 X   4      81.736  61.417  43.4190  0.00  0.00     0.000 S
ENDBRANCH 62 70
ENDBRANCH 57 61
ENDBRANCH 41 57
ENDBRANCH 40 44
ENDBRANCH 20 40
ENDBRANCH 19 23
ENDBRANCH 1 19
TORSDOF 14
ENDMDL
MODEL 63
REMARK VINA RESULT:      -1.1     84.642     89.258
ROOT
ATOM      1  C1  A00 X   1      75.444  67.718   7.1650  0.00  0.00     0.000 C
ATOM      2  C2  A00 X   1      76.862  67.860   6.5500  0.00  0.00     0.000 C
ATOM      3  C3  A00 X   1      76.949  68.642   5.1980  0.00  0.00     0.000 C
ATOM      4  C4  A00 X   1      75.602  68.854   4.4600  0.00  0.00     0.000 C
ATOM      5  C5  A00 X   1      74.547  67.830   4.8780  0.00  0.00     0.000 C
ATOM      6  O5  A00 X   1      74.344  68.067   6.2890  0.00  0.00     0.000 O
ATOM      7   O  A00 X   1      77.790  67.916   4.3040  0.00  0.00     0.000 O
ATOM      9  HD  A00 X   1      77.117  68.207   3.8420  0.00  0.00     0.000 HD
ATOM      9   O  A00 X   1      75.099  70.175   4.6620  0.00  0.00     0.000 O
ATOM     11  HD  A00 X   1      74.426  70.465   4.2010  0.00  0.00     0.000 HD
ENDROOT
BRANCH 2 11
ATOM     11   O  A00 X   1      77.699  68.513   7.5240  0.00  0.00     0.000 O
ATOM     12   O  A00 X   1      79.925  69.245   6.9990  0.00  0.00     0.000 OA
ATOM     13   O  A00 X   1      79.409  66.868   6.9430  0.00  0.00     0.000 OA
ATOM     14   O  A00 X   1      79.439  68.046   9.0090  0.00  0.00     0.000 OA
ATOM     15   S  A00 X   1      79.219  68.137   7.5910  0.00  0.00     0.000 S
ENDBRANCH 2 11
BRANCH 5 16
ATOM     16   C  A00 X   1      74.890  66.374   4.5440  0.00  0.00     0.000 C
ATOM     17   O  A00 X   1      74.213  65.492   5.0290  0.00  0.00     0.000 OA
ATOM     18   O  A00 X   1      75.809  66.073   3.8090  0.00  0.00     0.000 OA
ENDBRANCH 5 16
BRANCH 1 19
ATOM     19  O4  A00 X   2      75.231  66.431   7.7930  0.00  0.00     0.000 O
BRANCH 19 23
ATOM     20  C1  A00 X   2      73.007  68.055  11.0770  0.00  0.00     0.000 C
ATOM     21  C2  A00 X   2      74.511  67.770  11.3040  0.00  0.00     0.000 C
ATOM     22  C3  A00 X   2      75.250  67.612   9.9590  0.00  0.00     0.000 C
ATOM     23  C4  A00 X   2      74.562  66.542   9.0820  0.00  0.00     0.000 C
ATOM     24  C5  A00 X   2      73.064  66.930   8.9460  0.00  0.00     0.000 C
ATOM     25  O5  A00 X   2      72.471  66.972  10.2700  0.00  0.00     0.000 O
ATOM     26   O  A00 X   2      76.650  67.419  10.2210  0.00  0.00     0.000 O
ATOM     28  HD  A00 X   2      76.506  66.788  10.7980  0.00  0.00     0.000 HD
BRANCH 21 30
ATOM     28   N  A00 X   2      74.194  67.410  12.6900  0.00  0.00     0.000 N
ATOM     30  HD  A00 X   2      75.051  67.532  12.6520  0.00  0.00     0.000 HD
ATOM     30   O  A00 X   2      76.025  67.978  14.0250  0.00  0.00     0.000 OA
ATOM     31   S  A00 X   2      75.340  66.810  13.5990  0.00  0.00     0.000 S
ATOM     32   O  A00 X   2      74.628  66.117  14.6280  0.00  0.00     0.000 OA
ATOM     33   O  A00 X   2      76.077  65.882  12.7930  0.00  0.00     0.000 OA
ENDBRANCH 21 30
BRANCH 24 34
ATOM     34   C  A00 X   2      72.201  66.147   7.9290  0.00  0.00     0.000 C
ATOM     35   O  A00 X   2      69.347  64.078   8.8420  0.00  0.00     0.000 OA
ATOM     36   O  A00 X   2      71.387  65.156   8.5880  0.00  0.00     0.000 O
ATOM     37   O  A00 X   2      69.562  66.361   9.4190  0.00  0.00     0.000 OA
ATOM     38   S  A00 X   2      69.835  65.356   8.4380  0.00  0.00     0.000 S
ATOM     39   O  A00 X   2      69.601  65.688   7.0640  0.00  0.00     0.000 OA
ENDBRANCH 24 34
BRANCH 20 40
ATOM     40  O4  A00 X   3      72.953  69.280  10.3320  0.00  0.00     0.000 O
BRANCH 40 44
ATOM     41  C1  A00 X   3      71.490  71.156   7.6000  0.00  0.00     0.000 C
ATOM     42  C2  A00 X   3      72.602  71.682   8.5330  0.00  0.00     0.000 C
ATOM     43  C3  A00 X   3      72.214  71.489  10.0220  0.00  0.00     0.000 C
ATOM     44  C4  A00 X   3      71.752  70.082  10.3780  0.00  0.00     0.000 C
ATOM     45  C5  A00 X   3      70.633  69.625   9.4000  0.00  0.00     0.000 C
ATOM     46  O5  A00 X   3      71.037  69.835   8.0080  0.00  0.00     0.000 O
ATOM     47   O  A00 X   3      73.131  72.019  10.9780  0.00  0.00     0.000 O
ATOM     49  HD  A00 X   3      72.929  71.293  11.4060  0.00  0.00     0.000 HD
BRANCH 42 49
ATOM     49   O  A00 X   3      73.809  70.960   8.2030  0.00  0.00     0.000 O
ATOM     50   O  A00 X   3      76.060  70.888   9.0140  0.00  0.00     0.000 OA
ATOM     51   O  A00 X   3      74.990  72.985   8.8040  0.00  0.00     0.000 OA
ATOM     52   O  A00 X   3      75.526  71.793   6.8360  0.00  0.00     0.000 OA
ATOM     53   S  A00 X   3      75.186  71.685   8.2120  0.00  0.00     0.000 S
ENDBRANCH 42 49
BRANCH 45 54
ATOM     54   C  A00 X   3      69.284  70.270   9.7410  0.00  0.00     0.000 C
ATOM     55   O  A00 X   3      68.264  69.892   9.2020  0.00  0.00     0.000 OA
ATOM     56   O  A00 X   3      69.213  71.176  10.5580  0.00  0.00     0.000 OA
ENDBRANCH 45 54
BRANCH 41 57
ATOM     57  O4  A00 X   4      70.425  72.119   7.4410  0.00  0.00     0.000 O
BRANCH 57 61
ATOM     58  C1  A00 X   4      67.804  73.089   4.1510  0.00  0.00     0.000 C
ATOM     59  C2  A00 X   4      67.747  71.661   4.7480  0.00  0.00     0.000 C
ATOM     60  C3  A00 X   4      68.444  71.539   6.1180  0.00  0.00     0.000 C
ATOM     61  C4  A00 X   4      69.846  72.187   6.1070  0.00  0.00     0.000 C
ATOM     62  C5  A00 X   4      69.640  73.663   5.6860  0.00  0.00     0.000 C
ATOM     63  O5  A00 X   4      69.098  73.705   4.3410  0.00  0.00     0.000 O
BRANCH 59 66
ATOM     64   N  A00 X   4      68.327  70.512   4.0300  0.00  0.00     0.000 N
ATOM     66  HD  A00 X   4      69.049  70.649   3.5720  0.00  0.00     0.000 HD
ATOM     66   O  A00 X   4      66.440  70.618   2.5380  0.00  0.00     0.000 OA
ATOM     67   S  A00 X   4      67.379  69.672   3.0530  0.00  0.00     0.000 S
ATOM     68   O  A00 X   4      68.345  69.186   2.1110  0.00  0.00     0.000 OA
ATOM     69   O  A00 X   4      66.895  68.675   3.9650  0.00  0.00     0.000 OA
ENDBRANCH 59 66
BRANCH 62 70
ATOM     70   C  A00 X   4      70.930  74.516   5.7230  0.00  0.00     0.000 C
ATOM     71   O  A00 X   4      73.832  74.322   3.5670  0.00  0.00     0.000 OA
ATOM     72   O  A00 X   4      73.667  74.392   5.9150  0.00  0.00     0.000 OA
ATOM     73   O  A00 X   4      71.700  74.264   4.5370  0.00  0.00     0.000 O
ATOM     74   O  A00 X   4      73.126  72.332   4.7320  0.00  0.00     0.000 OA
ATOM     75   S  A00 X   4      73.174  73.759   4.7120  0.00  0.00     0.000 S
ENDBRANCH 62 70
ENDBRANCH 57 61
ENDBRANCH 41 57
ENDBRANCH 40 44
ENDBRANCH 20 40
ENDBRANCH 19 23
ENDBRANCH 1 19
TORSDOF 14
ENDMDL
MODEL 64
REMARK VINA RESULT:      -1.1     47.600     51.750
ROOT
ATOM      1  C1  A00 X   1      39.666  41.435  52.5850  0.00  0.00     0.000 C
ATOM      2  C2  A00 X   1      41.189  41.428  52.8820  0.00  0.00     0.000 C
ATOM      3  C3  A00 X   1      41.599  41.151  54.3660  0.00  0.00     0.000 C
ATOM      4  C4  A00 X   1      40.459  41.282  55.4100  0.00  0.00     0.000 C
ATOM      5  C5  A00 X   1      39.315  42.163  54.9070  0.00  0.00     0.000 C
ATOM      6  O5  A00 X   1      38.801  41.471  53.7470  0.00  0.00     0.000 O
ATOM      7   O  A00 X   1      42.605  42.087  54.7460  0.00  0.00     0.000 O
ATOM      9  HD  A00 X   1      42.061  42.011  55.4150  0.00  0.00     0.000 HD
ATOM      9   O  A00 X   1      39.952  40.004  55.7920  0.00  0.00     0.000 O
ATOM     11  HD  A00 X   1      39.408  39.929  56.4620  0.00  0.00     0.000 HD
ENDROOT
BRANCH 2 11
ATOM     11   O  A00 X   1      41.797  40.434  52.0340  0.00  0.00     0.000 O
ATOM     12   O  A00 X   1      44.172  40.082  51.9910  0.00  0.00     0.000 OA
ATOM     13   O  A00 X   1      43.271  42.216  51.2480  0.00  0.00     0.000 OA
ATOM     14   O  A00 X   1      42.890  40.240  49.9800  0.00  0.00     0.000 OA
ATOM     15   S  A00 X   1      43.130  40.787  51.2880  0.00  0.00     0.000 S
ENDBRANCH 2 11
BRANCH 5 16
ATOM     16   C  A00 X   1      39.694  43.622  54.6330  0.00  0.00     0.000 C
ATOM     17   O  A00 X   1      38.898  44.329  54.0480  0.00  0.00     0.000 OA
ATOM     18   O  A00 X   1      40.755  44.097  54.9850  0.00  0.00     0.000 OA
ENDBRANCH 5 16
BRANCH 1 19
ATOM     19  O4  A00 X   2      39.288  42.441  51.6140  0.00  0.00     0.000 O
BRANCH 19 23
ATOM     20  C1  A00 X   2      36.309  39.979  49.7630  0.00  0.00     0.000 C
ATOM     21  C2  A00 X   2      37.701  40.044  49.0900  0.00  0.00     0.000 C
ATOM     22  C3  A00 X   2      38.760  40.592  50.0690  0.00  0.00     0.000 C
ATOM     23  C4  A00 X   2      38.311  41.951  50.6520  0.00  0.00     0.000 C
ATOM     24  C5  A00 X   2      36.903  41.757  51.2780  0.00  0.00     0.000 C
ATOM     25  O5  A00 X   2      35.988  41.313  50.2420  0.00  0.00     0.000 O
ATOM     26   O  A00 X   2      40.043  40.568  49.4210  0.00  0.00     0.000 O
ATOM     28  HD  A00 X   2      39.750  40.972  48.7140  0.00  0.00     0.000 HD
BRANCH 21 30
ATOM     28   N  A00 X   2      37.026  39.914  47.7950  0.00  0.00     0.000 N
ATOM     30  HD  A00 X   2      37.866  39.757  47.6560  0.00  0.00     0.000 HD
ATOM     30   O  A00 X   2      38.464  38.792  46.3350  0.00  0.00     0.000 OA
ATOM     31   S  A00 X   2      37.880  40.079  46.4750  0.00  0.00     0.000 S
ATOM     32   O  A00 X   2      36.906  40.411  45.4810  0.00  0.00     0.000 OA
ATOM     33   O  A00 X   2      38.773  41.179  46.6830  0.00  0.00     0.000 OA
ENDBRANCH 21 30
BRANCH 24 34
ATOM     34   C  A00 X   2      36.323  42.909  52.1320  0.00  0.00     0.000 C
ATOM     35   O  A00 X   2      33.264  44.710  51.3220  0.00  0.00     0.000 OA
ATOM     36   O  A00 X   2      35.329  43.654  51.3990  0.00  0.00     0.000 O
ATOM     37   O  A00 X   2      33.387  42.362  51.5760  0.00  0.00     0.000 OA
ATOM     38   S  A00 X   2      33.883  43.630  52.0170  0.00  0.00     0.000 S
ATOM     39   O  A00 X   2      34.042  43.826  53.4270  0.00  0.00     0.000 OA
ENDBRANCH 24 34
BRANCH 20 40
ATOM     40  O4  A00 X   3      36.460  39.092  50.8810  0.00  0.00     0.000 O
BRANCH 40 44
ATOM     41  C1  A00 X   3      35.760  38.367  54.3610  0.00  0.00     0.000 C
ATOM     42  C2  A00 X   3      36.608  37.474  53.4290  0.00  0.00     0.000 C
ATOM     43  C3  A00 X   3      35.855  37.180  52.1060  0.00  0.00     0.000 C
ATOM     44  C4  A00 X   3      35.298  38.414  51.4070  0.00  0.00     0.000 C
ATOM     45  C5  A00 X   3      34.455  39.256  52.4050  0.00  0.00     0.000 C
ATOM     46  O5  A00 X   3      35.200  39.500  53.6420  0.00  0.00     0.000 O
ATOM     47   O  A00 X   3      36.508  36.291  51.2010  0.00  0.00     0.000 O
ATOM     49  HD  A00 X   3      36.195  36.842  50.6110  0.00  0.00     0.000 HD
BRANCH 42 49
ATOM     49   O  A00 X   3      37.848  38.173  53.1860  0.00  0.00     0.000 O
ATOM     50   O  A00 X   3      39.822  37.799  51.8830  0.00  0.00     0.000 OA
ATOM     51   O  A00 X   3      38.868  35.982  53.0570  0.00  0.00     0.000 OA
ATOM     52   O  A00 X   3      39.867  37.727  54.3000  0.00  0.00     0.000 OA
ATOM     53   S  A00 X   3      39.189  37.387  53.0970  0.00  0.00     0.000 S
ENDBRANCH 42 49
BRANCH 45 54
ATOM     54   C  A00 X   3      33.073  38.637  52.6450  0.00  0.00     0.000 C
ATOM     55   O  A00 X   3      32.231  39.232  53.2840  0.00  0.00     0.000 OA
ATOM     56   O  A00 X   3      32.797  37.533  52.2000  0.00  0.00     0.000 OA
ENDBRANCH 45 54
BRANCH 41 57
ATOM     57  O4  A00 X   4      34.783  37.596  55.0950  0.00  0.00     0.000 O
BRANCH 57 61
ATOM     58  C1  A00 X   4      33.101  37.984  59.0520  0.00  0.00     0.000 C
ATOM     59  C2  A00 X   4      32.866  39.125  58.0320  0.00  0.00     0.000 C
ATOM     60  C3  A00 X   4      33.191  38.726  56.5780  0.00  0.00     0.000 C
ATOM     61  C4  A00 X   4      34.562  38.025  56.4680  0.00  0.00     0.000 C
ATOM     62  C5  A00 X   4      34.500  36.797  57.4100  0.00  0.00     0.000 C
ATOM     63  O5  A00 X   4      34.317  37.252  58.7760  0.00  0.00     0.000 O
BRANCH 59 66
ATOM     64   N  A00 X   4      33.749  40.267  58.3330  0.00  0.00     0.000 N
ATOM     66  HD  A00 X   4      34.500  40.097  58.7290  0.00  0.00     0.000 HD
ATOM     66   O  A00 X   4      32.141  40.943  59.9930  0.00  0.00     0.000 OA
ATOM     67   S  A00 X   4      33.135  41.507  59.1350  0.00  0.00     0.000 S
ATOM     68   O  A00 X   4      34.312  41.997  59.7930  0.00  0.00     0.000 OA
ATOM     69   O  A00 X   4      32.691  42.322  58.0400  0.00  0.00     0.000 OA
ENDBRANCH 59 66
BRANCH 62 70
ATOM     70   C  A00 X   4      35.755  35.895  57.3560  0.00  0.00     0.000 C
ATOM     71   O  A00 X   4      39.106  36.610  58.5250  0.00  0.00     0.000 OA
ATOM     72   O  A00 X   4      38.350  35.755  56.4660  0.00  0.00     0.000 OA
ATOM     73   O  A00 X   4      36.797  36.482  58.1530  0.00  0.00     0.000 O
ATOM     74   O  A00 X   4      38.086  38.127  56.9540  0.00  0.00     0.000 OA
ATOM     75   S  A00 X   4      38.167  36.793  57.4550  0.00  0.00     0.000 S
ENDBRANCH 62 70
ENDBRANCH 57 61
ENDBRANCH 41 57
ENDBRANCH 40 44
ENDBRANCH 20 40
ENDBRANCH 19 23
ENDBRANCH 1 19
TORSDOF 14
ENDMDL
MODEL 65
REMARK VINA RESULT:      -1.1     65.325     69.828
ROOT
ATOM      1  C1  A00 X   1      62.119  39.659  52.3980  0.00  0.00     0.000 C
ATOM      2  C2  A00 X   1      61.722  40.389  51.0870  0.00  0.00     0.000 C
ATOM      3  C3  A00 X   1      62.869  40.605  50.0460  0.00  0.00     0.000 C
ATOM      4  C4  A00 X   1      64.309  40.404  50.5850  0.00  0.00     0.000 C
ATOM      5  C5  A00 X   1      64.385  40.570  52.1030  0.00  0.00     0.000 C
ATOM      6  O5  A00 X   1      63.543  39.520  52.6300  0.00  0.00     0.000 O
ATOM      7   O  A00 X   1      62.802  41.944  49.5610  0.00  0.00     0.000 O
ATOM      9  HD  A00 X   1      63.639  41.759  49.6840  0.00  0.00     0.000 HD
ATOM      9   O  A00 X   1      64.832  39.129  50.2130  0.00  0.00     0.000 O
ATOM     11  HD  A00 X   1      65.669  38.944  50.3360  0.00  0.00     0.000 HD
ENDROOT
BRANCH 2 11
ATOM     11   O  A00 X   1      60.662  39.634  50.4690  0.00  0.00     0.000 O
ATOM     12   O  A00 X   1      59.566  40.387  48.4690  0.00  0.00     0.000 OA
ATOM     13   O  A00 X   1      59.364  41.703  50.5050  0.00  0.00     0.000 OA
ATOM     14   O  A00 X   1      58.332  39.566  50.3440  0.00  0.00     0.000 OA
ATOM     15   S  A00 X   1      59.417  40.400  49.9020  0.00  0.00     0.000 S
ENDBRANCH 2 11
BRANCH 5 16
ATOM     16   C  A00 X   1      64.020  41.966  52.6200  0.00  0.00     0.000 C
ATOM     17   O  A00 X   1      63.857  42.118  53.8130  0.00  0.00     0.000 OA
ATOM     18   O  A00 X   1      63.897  42.923  51.8820  0.00  0.00     0.000 OA
ENDBRANCH 5 16
BRANCH 1 19
ATOM     19  O4  A00 X   2      61.444  40.192  53.5640  0.00  0.00     0.000 O
BRANCH 19 23
ATOM     20  C1  A00 X   2      60.972  36.357  55.4190  0.00  0.00     0.000 C
ATOM     21  C2  A00 X   2      59.764  36.926  54.6360  0.00  0.00     0.000 C
ATOM     22  C3  A00 X   2      60.207  38.060  53.6890  0.00  0.00     0.000 C
ATOM     23  C4  A00 X   2      60.982  39.147  54.4680  0.00  0.00     0.000 C
ATOM     24  C5  A00 X   2      62.149  38.450  55.2200  0.00  0.00     0.000 C
ATOM     25  O5  A00 X   2      61.596  37.461  56.1270  0.00  0.00     0.000 O
ATOM     26   O  A00 X   2      59.066  38.507  52.9370  0.00  0.00     0.000 O
ATOM     28  HD  A00 X   2      58.573  38.599  53.6430  0.00  0.00     0.000 HD
BRANCH 21 30
ATOM     28   N  A00 X   2      58.873  36.302  55.6190  0.00  0.00     0.000 N
ATOM     30  HD  A00 X   2      58.386  36.503  54.9320  0.00  0.00     0.000 HD
ATOM     30   O  A00 X   2      56.901  35.686  54.5280  0.00  0.00     0.000 OA
ATOM     31   S  A00 X   2      57.322  36.597  55.5330  0.00  0.00     0.000 S
ATOM     32   O  A00 X   2      56.848  36.305  56.8500  0.00  0.00     0.000 OA
ATOM     33   O  A00 X   2      57.172  37.993  55.2480  0.00  0.00     0.000 OA
ENDBRANCH 21 30
BRANCH 24 34
ATOM     34   C  A00 X   2      63.217  39.346  55.8920  0.00  0.00     0.000 C
ATOM     35   O  A00 X   2      62.481  41.825  58.4540  0.00  0.00     0.000 OA
ATOM     36   O  A00 X   2      62.608  40.452  56.5870  0.00  0.00     0.000 O
ATOM     37   O  A00 X   2      61.895  39.540  58.6200  0.00  0.00     0.000 OA
ATOM     38   S  A00 X   2      62.855  40.486  58.1400  0.00  0.00     0.000 S
ATOM     39   O  A00 X   2      64.241  40.182  58.3360  0.00  0.00     0.000 OA
ENDBRANCH 24 34
BRANCH 20 40
ATOM     40  O4  A00 X   3      61.875  35.852  54.4250  0.00  0.00     0.000 O
BRANCH 40 44
ATOM     41  C1  A00 X   3      65.289  35.593  53.2410  0.00  0.00     0.000 C
ATOM     42  C2  A00 X   3      64.060  35.001  52.5190  0.00  0.00     0.000 C
ATOM     43  C3  A00 X   3      63.200  34.152  53.4900  0.00  0.00     0.000 C
ATOM     44  C4  A00 X   3      62.846  34.850  54.7970  0.00  0.00     0.000 C
ATOM     45  C5  A00 X   3      64.131  35.413  55.4660  0.00  0.00     0.000 C
ATOM     46  O5  A00 X   3      64.916  36.198  54.5110  0.00  0.00     0.000 O
ATOM     47   O  A00 X   3      62.082  33.484  52.9100  0.00  0.00     0.000 O
ATOM     49  HD  A00 X   3      61.702  33.712  53.6540  0.00  0.00     0.000 HD
BRANCH 42 49
ATOM     49   O  A00 X   3      63.309  36.113  51.9820  0.00  0.00     0.000 O
ATOM     50   O  A00 X   3      61.275  36.396  50.7520  0.00  0.00     0.000 OA
ATOM     51   O  A00 X   3      62.730  34.631  50.1590  0.00  0.00     0.000 OA
ATOM     52   O  A00 X   3      63.431  36.852  49.7570  0.00  0.00     0.000 OA
ATOM     53   S  A00 X   3      62.639  36.006  50.5810  0.00  0.00     0.000 S
ENDBRANCH 42 49
BRANCH 45 54
ATOM     54   C  A00 X   3      64.945  34.308  56.1510  0.00  0.00     0.000 C
ATOM     55   O  A00 X   3      65.887  34.586  56.8640  0.00  0.00     0.000 OA
ATOM     56   O  A00 X   3      64.660  33.131  55.9910  0.00  0.00     0.000 OA
ENDBRANCH 45 54
BRANCH 41 57
ATOM     57  O4  A00 X   4      66.363  34.632  53.3420  0.00  0.00     0.000 O
BRANCH 57 61
ATOM     58  C1  A00 X   4      70.663  35.022  53.3270  0.00  0.00     0.000 C
ATOM     59  C2  A00 X   4      69.858  35.731  54.4440  0.00  0.00     0.000 C
ATOM     60  C3  A00 X   4      68.402  35.237  54.5620  0.00  0.00     0.000 C
ATOM     61  C4  A00 X   4      67.702  35.182  53.1870  0.00  0.00     0.000 C
ATOM     62  C5  A00 X   4      68.564  34.253  52.2960  0.00  0.00     0.000 C
ATOM     63  O5  A00 X   4      69.879  34.841  52.1260  0.00  0.00     0.000 O
BRANCH 59 66
ATOM     64   N  A00 X   4      69.764  37.174  54.1560  0.00  0.00     0.000 N
ATOM     66  HD  A00 X   4      69.797  37.419  53.3260  0.00  0.00     0.000 HD
ATOM     66   O  A00 X   4      71.962  37.407  55.1130  0.00  0.00     0.000 OA
ATOM     67   S  A00 X   4      70.766  38.165  54.9130  0.00  0.00     0.000 S
ATOM     68   O  A00 X   4      70.861  39.223  53.9500  0.00  0.00     0.000 OA
ATOM     69   O  A00 X   4      69.977  38.489  56.0680  0.00  0.00     0.000 OA
ENDBRANCH 59 66
BRANCH 62 70
ATOM     70   C  A00 X   4      67.961  33.983  50.8970  0.00  0.00     0.000 C
ATOM     71   O  A00 X   4      67.599  36.266  48.1100  0.00  0.00     0.000 OA
ATOM     72   O  A00 X   4      66.045  34.806  49.1100  0.00  0.00     0.000 OA
ATOM     73   O  A00 X   4      68.247  35.095  50.0330  0.00  0.00     0.000 O
ATOM     74   O  A00 X   4      66.644  36.882  50.2360  0.00  0.00     0.000 OA
ATOM     75   S  A00 X   4      67.037  35.829  49.3570  0.00  0.00     0.000 S
ENDBRANCH 62 70
ENDBRANCH 57 61
ENDBRANCH 41 57
ENDBRANCH 40 44
ENDBRANCH 20 40
ENDBRANCH 19 23
ENDBRANCH 1 19
TORSDOF 14
ENDMDL
MODEL 66
REMARK VINA RESULT:      -1.1     63.059     67.538
ROOT
ATOM      1  C1  A00 X   1      60.113  37.472  52.0440  0.00  0.00     0.000 C
ATOM      2  C2  A00 X   1      59.798  37.869  50.5770  0.00  0.00     0.000 C
ATOM      3  C3  A00 X   1      61.006  37.840  49.5830  0.00  0.00     0.000 C
ATOM      4  C4  A00 X   1      62.410  37.782  50.2390  0.00  0.00     0.000 C
ATOM      5  C5  A00 X   1      62.397  38.304  51.6760  0.00  0.00     0.000 C
ATOM      6  O5  A00 X   1      61.519  37.402  52.3860  0.00  0.00     0.000 O
ATOM      7   O  A00 X   1      60.977  39.026  48.7930  0.00  0.00     0.000 O
ATOM      9  HD  A00 X   1      61.804  38.881  49.0050  0.00  0.00     0.000 HD
ATOM      9   O  A00 X   1      62.946  36.460  50.2110  0.00  0.00     0.000 O
ATOM     11  HD  A00 X   1      63.773  36.315  50.4230  0.00  0.00     0.000 HD
ENDROOT
BRANCH 2 11
ATOM     11   O  A00 X   1      58.771  36.981  50.0930  0.00  0.00     0.000 O
ATOM     12   O  A00 X   1      57.801  37.231  47.9110  0.00  0.00     0.000 OA
ATOM     13   O  A00 X   1      57.487  38.990  49.5620  0.00  0.00     0.000 OA
ATOM     14   O  A00 X   1      56.452  36.868  49.8510  0.00  0.00     0.000 OA
ATOM     15   S  A00 X   1      57.567  37.581  49.2890  0.00  0.00     0.000 S
ENDBRANCH 2 11
BRANCH 5 16
ATOM     16   C  A00 X   1      62.013  39.779  51.8270  0.00  0.00     0.000 C
ATOM     17   O  A00 X   1      61.780  40.209  52.9380  0.00  0.00     0.000 OA
ATOM     18   O  A00 X   1      61.940  40.534  50.8770  0.00  0.00     0.000 OA
ENDBRANCH 5 16
BRANCH 1 19
ATOM     19  O4  A00 X   2      59.373  38.260  53.0090  0.00  0.00     0.000 O
BRANCH 19 23
ATOM     20  C1  A00 X   2      58.766  34.970  55.6870  0.00  0.00     0.000 C
ATOM     21  C2  A00 X   2      57.610  35.328  54.7220  0.00  0.00     0.000 C
ATOM     22  C3  A00 X   2      58.117  36.210  53.5610  0.00  0.00     0.000 C
ATOM     23  C4  A00 X   2      58.852  37.455  54.1060  0.00  0.00     0.000 C
ATOM     24  C5  A00 X   2      59.967  36.965  55.0690  0.00  0.00     0.000 C
ATOM     25  O5  A00 X   2      59.355  36.214  56.1490  0.00  0.00     0.000 O
ATOM     26   O  A00 X   2      57.025  36.457  52.6590  0.00  0.00     0.000 O
ATOM     28  HD  A00 X   2      56.492  36.710  53.2930  0.00  0.00     0.000 HD
BRANCH 21 30
ATOM     28   N  A00 X   2      56.659  34.949  55.7710  0.00  0.00     0.000 N
ATOM     30  HD  A00 X   2      56.214  34.978  55.0280  0.00  0.00     0.000 HD
ATOM     30   O  A00 X   2      54.750  34.077  54.7420  0.00  0.00     0.000 OA
ATOM     31   S  A00 X   2      55.118  35.203  55.5260  0.00  0.00     0.000 S
ATOM     32   O  A00 X   2      54.564  35.227  56.8450  0.00  0.00     0.000 OA
ATOM     33   O  A00 X   2      54.994  36.491  54.9110  0.00  0.00     0.000 OA
ENDBRANCH 21 30
BRANCH 24 34
ATOM     34   C  A00 X   2      61.000  38.001  55.5720  0.00  0.00     0.000 C
ATOM     35   O  A00 X   2      60.131  41.011  57.4270  0.00  0.00     0.000 OA
ATOM     36   O  A00 X   2      60.359  39.236  55.9490  0.00  0.00     0.000 O
ATOM     37   O  A00 X   2      59.520  38.826  58.0930  0.00  0.00     0.000 OA
ATOM     38   S  A00 X   2      60.514  39.638  57.4610  0.00  0.00     0.000 S
ATOM     39   O  A00 X   2      61.884  39.399  57.8050  0.00  0.00     0.000 OA
ENDBRANCH 24 34
BRANCH 20 40
ATOM     40  O4  A00 X   3      59.723  34.250  54.8960  0.00  0.00     0.000 O
BRANCH 40 44
ATOM     41  C1  A00 X   3      63.199  33.744  54.0110  0.00  0.00     0.000 C
ATOM     42  C2  A00 X   3      62.010  32.989  53.3770  0.00  0.00     0.000 C
ATOM     43  C3  A00 X   3      61.089  32.387  54.4690  0.00  0.00     0.000 C
ATOM     44  C4  A00 X   3      60.663  33.372  55.5510  0.00  0.00     0.000 C
ATOM     45  C5  A00 X   3      61.911  34.086  56.1420  0.00  0.00     0.000 C
ATOM     46  O5  A00 X   3      62.756  34.629  55.0770  0.00  0.00     0.000 O
ATOM     47   O  A00 X   3      60.002  31.592  53.9990  0.00  0.00     0.000 O
ATOM     49  HD  A00 X   3      59.581  31.987  54.6450  0.00  0.00     0.000 HD
BRANCH 42 49
ATOM     49   O  A00 X   3      61.300  33.936  52.5500  0.00  0.00     0.000 O
ATOM     50   O  A00 X   3      59.344  33.906  51.1700  0.00  0.00     0.000 OA
ATOM     51   O  A00 X   3      60.820  32.061  51.0980  0.00  0.00     0.000 OA
ATOM     52   O  A00 X   3      61.558  34.129  50.2240  0.00  0.00     0.000 OA
ATOM     53   S  A00 X   3      60.713  33.497  51.1770  0.00  0.00     0.000 S
ENDBRANCH 42 49
BRANCH 45 54
ATOM     54   C  A00 X   3      62.674  33.181  57.1160  0.00  0.00     0.000 C
ATOM     55   O  A00 X   3      63.575  33.626  57.7980  0.00  0.00     0.000 OA
ATOM     56   O  A00 X   3      62.392  31.998  57.2220  0.00  0.00     0.000 OA
ENDBRANCH 45 54
BRANCH 41 57
ATOM     57  O4  A00 X   4      64.258  32.841  54.3990  0.00  0.00     0.000 O
BRANCH 57 61
ATOM     58  C1  A00 X   4      68.554  33.248  54.5460  0.00  0.00     0.000 C
ATOM     59  C2  A00 X   4      67.690  34.196  55.4140  0.00  0.00     0.000 C
ATOM     60  C3  A00 X   4      66.226  33.732  55.5590  0.00  0.00     0.000 C
ATOM     61  C4  A00 X   4      65.608  33.349  54.1980  0.00  0.00     0.000 C
ATOM     62  C5  A00 X   4      66.514  32.242  53.6040  0.00  0.00     0.000 C
ATOM     63  O5  A00 X   4      67.841  32.783  53.3770  0.00  0.00     0.000 O
BRANCH 59 66
ATOM     64   N  A00 X   4      67.623  35.528  54.7880  0.00  0.00     0.000 N
ATOM     66  HD  A00 X   4      67.706  35.570  53.9270  0.00  0.00     0.000 HD
ATOM     66   O  A00 X   4      69.761  35.997  55.7910  0.00  0.00     0.000 OA
ATOM     67   S  A00 X   4      68.585  36.677  55.3470  0.00  0.00     0.000 S
ATOM     68   O  A00 X   4      68.744  37.478  54.1680  0.00  0.00     0.000 OA
ATOM     69   O  A00 X   4      67.732  37.259  56.3440  0.00  0.00     0.000 OA
ENDBRANCH 59 66
BRANCH 62 70
ATOM     70   C  A00 X   4      65.993  31.644  52.2750  0.00  0.00     0.000 C
ATOM     71   O  A00 X   4      65.812  33.200  49.0120  0.00  0.00     0.000 OA
ATOM     72   O  A00 X   4      64.192  32.007  50.2340  0.00  0.00     0.000 OA
ATOM     73   O  A00 X   4      66.337  32.522  51.1920  0.00  0.00     0.000 O
ATOM     74   O  A00 X   4      64.737  34.295  50.8720  0.00  0.00     0.000 OA
ATOM     75   S  A00 X   4      65.175  33.067  50.2910  0.00  0.00     0.000 S
ENDBRANCH 62 70
ENDBRANCH 57 61
ENDBRANCH 41 57
ENDBRANCH 40 44
ENDBRANCH 20 40
ENDBRANCH 19 23
ENDBRANCH 1 19
TORSDOF 14
ENDMDL
MODEL 67
REMARK VINA RESULT:      -1.1     51.466     56.549
ROOT
ATOM      1  C1  A00 X   1      50.040  35.911  50.9920  0.00  0.00     0.000 C
ATOM      2  C2  A00 X   1      51.185  34.993  51.4970  0.00  0.00     0.000 C
ATOM      3  C3  A00 X   1      51.612  35.185  52.9900  0.00  0.00     0.000 C
ATOM      4  C4  A00 X   1      51.112  36.488  53.6660  0.00  0.00     0.000 C
ATOM      5  C5  A00 X   1      50.777  37.575  52.6460  0.00  0.00     0.000 C
ATOM      6  O5  A00 X   1      49.699  37.021  51.8600  0.00  0.00     0.000 O
ATOM      7   O  A00 X   1      53.035  35.213  53.0590  0.00  0.00     0.000 O
ATOM      9  HD  A00 X   1      52.742  35.826  53.5950  0.00  0.00     0.000 HD
ATOM      9   O  A00 X   1      49.980  36.242  54.5000  0.00  0.00     0.000 O
ATOM     11  HD  A00 X   1      49.686  36.856  55.0360  0.00  0.00     0.000 HD
ENDROOT
BRANCH 2 11
ATOM     11   O  A00 X   1      50.772  33.627  51.2990  0.00  0.00     0.000 O
ATOM     12   O  A00 X   1      52.224  31.778  51.7850  0.00  0.00     0.000 OA
ATOM     13   O  A00 X   1      52.836  33.341  50.0240  0.00  0.00     0.000 OA
ATOM     14   O  A00 X   1      50.971  31.889  49.7530  0.00  0.00     0.000 OA
ATOM     15   S  A00 X   1      51.794  32.607  50.6880  0.00  0.00     0.000 S
ENDBRANCH 2 11
BRANCH 5 16
ATOM     16   C  A00 X   1      51.961  38.062  51.8050  0.00  0.00     0.000 C
ATOM     17   O  A00 X   1      51.740  38.773  50.8470  0.00  0.00     0.000 OA
ATOM     18   O  A00 X   1      53.111  37.769  52.0670  0.00  0.00     0.000 OA
ENDBRANCH 5 16
BRANCH 1 19
ATOM     19  O4  A00 X   2      50.233  36.349  49.6250  0.00  0.00     0.000 O
BRANCH 19 23
ATOM     20  C1  A00 X   2      46.069  36.112  48.6410  0.00  0.00     0.000 C
ATOM     21  C2  A00 X   2      46.970  34.925  48.2240  0.00  0.00     0.000 C
ATOM     22  C3  A00 X   2      48.302  34.945  49.0040  0.00  0.00     0.000 C
ATOM     23  C4  A00 X   2      49.002  36.314  48.8480  0.00  0.00     0.000 C
ATOM     24  C5  A00 X   2      47.993  37.415  49.2770  0.00  0.00     0.000 C
ATOM     25  O5  A00 X   2      46.822  37.334  48.4240  0.00  0.00     0.000 O
ATOM     26   O  A00 X   2      49.072  33.789  48.6330  0.00  0.00     0.000 O
ATOM     28  HD  A00 X   2      48.978  33.937  47.7850  0.00  0.00     0.000 HD
BRANCH 21 30
ATOM     28   N  A00 X   2      46.142  34.766  47.0250  0.00  0.00     0.000 N
ATOM     30  HD  A00 X   2      46.603  34.037  47.1100  0.00  0.00     0.000 HD
ATOM     30   O  A00 X   2      46.107  32.499  46.4600  0.00  0.00     0.000 OA
ATOM     31   S  A00 X   2      46.591  33.722  45.9260  0.00  0.00     0.000 S
ATOM     32   O  A00 X   2      45.926  34.169  44.7420  0.00  0.00     0.000 OA
ATOM     33   O  A00 X   2      48.011  33.848  45.7770  0.00  0.00     0.000 OA
ENDBRANCH 21 30
BRANCH 24 34
ATOM     34   C  A00 X   2      48.520  38.861  49.4330  0.00  0.00     0.000 C
ATOM     35   O  A00 X   2      50.116  40.751  46.7610  0.00  0.00     0.000 OA
ATOM     36   O  A00 X   2      49.402  39.216  48.3490  0.00  0.00     0.000 O
ATOM     37   O  A00 X   2      47.965  39.782  46.5920  0.00  0.00     0.000 OA
ATOM     38   S  A00 X   2      48.916  40.414  47.4550  0.00  0.00     0.000 S
ATOM     39   O  A00 X   2      48.432  41.419  48.3530  0.00  0.00     0.000 OA
ENDBRANCH 24 34
BRANCH 20 40
ATOM     40  O4  A00 X   3      45.827  35.941  50.0450  0.00  0.00     0.000 O
BRANCH 40 44
ATOM     41  C1  A00 X   3      45.630  37.482  53.3180  0.00  0.00     0.000 C
ATOM     42  C2  A00 X   3      45.436  35.976  53.0410  0.00  0.00     0.000 C
ATOM     43  C3  A00 X   3      44.405  35.748  51.9060  0.00  0.00     0.000 C
ATOM     44  C4  A00 X   3      44.666  36.558  50.6420  0.00  0.00     0.000 C
ATOM     45  C5  A00 X   3      44.845  38.060  51.0000  0.00  0.00     0.000 C
ATOM     46  O5  A00 X   3      45.818  38.227  52.0820  0.00  0.00     0.000 O
ATOM     47   O  A00 X   3      44.081  34.388  51.6230  0.00  0.00     0.000 O
ATOM     49  HD  A00 X   3      44.088  34.674  50.8050  0.00  0.00     0.000 HD
BRANCH 42 49
ATOM     49   O  A00 X   3      46.731  35.439  52.6950  0.00  0.00     0.000 O
ATOM     50   O  A00 X   3      47.601  33.314  52.0180  0.00  0.00     0.000 OA
ATOM     51   O  A00 X   3      45.978  33.388  53.7360  0.00  0.00     0.000 OA
ATOM     52   O  A00 X   3      48.127  34.268  54.1760  0.00  0.00     0.000 OA
ATOM     53   S  A00 X   3      47.148  34.018  53.1760  0.00  0.00     0.000 S
ENDBRANCH 42 49
BRANCH 45 54
ATOM     54   C  A00 X   3      43.501  38.739  51.2870  0.00  0.00     0.000 C
ATOM     55   O  A00 X   3      43.425  39.947  51.3800  0.00  0.00     0.000 OA
ATOM     56   O  A00 X   3      42.484  38.078  51.4300  0.00  0.00     0.000 OA
ENDBRANCH 45 54
BRANCH 41 57
ATOM     57  O4  A00 X   4      44.586  38.008  54.1670  0.00  0.00     0.000 O
BRANCH 57 61
ATOM     58  C1  A00 X   4      44.532  41.091  57.1890  0.00  0.00     0.000 C
ATOM     59  C2  A00 X   4      44.907  41.482  55.7380  0.00  0.00     0.000 C
ATOM     60  C3  A00 X   4      44.548  40.402  54.6980  0.00  0.00     0.000 C
ATOM     61  C4  A00 X   4      45.022  39.000  55.1400  0.00  0.00     0.000 C
ATOM     62  C5  A00 X   4      44.361  38.730  56.5140  0.00  0.00     0.000 C
ATOM     63  O5  A00 X   4      44.839  39.707  57.4740  0.00  0.00     0.000 O
BRANCH 59 66
ATOM     64   N  A00 X   4      46.365  41.669  55.6250  0.00  0.00     0.000 N
ATOM     66  HD  A00 X   4      46.869  41.222  56.1690  0.00  0.00     0.000 HD
ATOM     66   O  A00 X   4      46.049  43.885  56.5120  0.00  0.00     0.000 OA
ATOM     67   S  A00 X   4      46.943  43.160  55.6650  0.00  0.00     0.000 S
ATOM     68   O  A00 X   4      48.247  42.917  56.2070  0.00  0.00     0.000 OA
ATOM     69   O  A00 X   4      46.937  43.471  54.2630  0.00  0.00     0.000 OA
ENDBRANCH 59 66
BRANCH 62 70
ATOM     70   C  A00 X   4      44.630  37.314  57.0780  0.00  0.00     0.000 C
ATOM     71   O  A00 X   4      47.733  35.932  58.3300  0.00  0.00     0.000 OA
ATOM     72   O  A00 X   4      46.183  35.068  56.7830  0.00  0.00     0.000 OA
ATOM     73   O  A00 X   4      45.933  37.285  57.6830  0.00  0.00     0.000 O
ATOM     74   O  A00 X   4      47.698  36.851  56.1010  0.00  0.00     0.000 OA
ATOM     75   S  A00 X   4      46.963  36.227  57.1550  0.00  0.00     0.000 S
ENDBRANCH 62 70
ENDBRANCH 57 61
ENDBRANCH 41 57
ENDBRANCH 40 44
ENDBRANCH 20 40
ENDBRANCH 19 23
ENDBRANCH 1 19
TORSDOF 14
ENDMDL
MODEL 68
REMARK VINA RESULT:      -1.1     68.461     73.022
ROOT
ATOM      1  C1  A00 X   1      65.893  49.814  24.9020  0.00  0.00     0.000 C
ATOM      2  C2  A00 X   1      66.052  48.557  24.0070  0.00  0.00     0.000 C
ATOM      3  C3  A00 X   1      66.505  48.816  22.5320  0.00  0.00     0.000 C
ATOM      4  C4  A00 X   1      66.386  50.282  22.0440  0.00  0.00     0.000 C
ATOM      5  C5  A00 X   1      65.371  51.082  22.8610  0.00  0.00     0.000 C
ATOM      6  O5  A00 X   1      65.902  51.085  24.2050  0.00  0.00     0.000 O
ATOM      7   O  A00 X   1      65.695  48.031  21.6600  0.00  0.00     0.000 O
ATOM      9  HD  A00 X   1      65.792  48.808  21.2890  0.00  0.00     0.000 HD
ATOM      9   O  A00 X   1      67.650  50.944  22.0650  0.00  0.00     0.000 O
ATOM     11  HD  A00 X   1      67.747  51.721  21.6940  0.00  0.00     0.000 HD
ENDROOT
BRANCH 2 11
ATOM     11   O  A00 X   1      67.003  47.682  24.6440  0.00  0.00     0.000 O
ATOM     12   O  A00 X   1      67.506  45.502  23.7710  0.00  0.00     0.000 OA
ATOM     13   O  A00 X   1      65.259  45.973  24.5740  0.00  0.00     0.000 OA
ATOM     14   O  A00 X   1      67.083  45.856  26.0970  0.00  0.00     0.000 OA
ATOM     15   S  A00 X   1      66.674  46.153  24.7510  0.00  0.00     0.000 S
ENDBRANCH 2 11
BRANCH 5 16
ATOM     16   C  A00 X   1      63.927  50.577  22.7730  0.00  0.00     0.000 C
ATOM     17   O  A00 X   1      63.105  51.031  23.5430  0.00  0.00     0.000 OA
ATOM     18   O  A00 X   1      63.575  49.746  21.9600  0.00  0.00     0.000 OA
ENDBRANCH 5 16
BRANCH 1 19
ATOM     19  O4  A00 X   2      64.769  49.718  25.8110  0.00  0.00     0.000 O
BRANCH 19 23
ATOM     20  C1  A00 X   2      66.849  51.614  29.0440  0.00  0.00     0.000 C
ATOM     21  C2  A00 X   2      66.731  50.071  29.0770  0.00  0.00     0.000 C
ATOM     22  C3  A00 X   2      66.363  49.518  27.6840  0.00  0.00     0.000 C
ATOM     23  C4  A00 X   2      65.087  50.205  27.1470  0.00  0.00     0.000 C
ATOM     24  C5  A00 X   2      65.324  51.740  27.1820  0.00  0.00     0.000 C
ATOM     25  O5  A00 X   2      65.588  52.141  28.5510  0.00  0.00     0.000 O
ATOM     26   O  A00 X   2      66.333  48.082  27.7510  0.00  0.00     0.000 O
ATOM     28  HD  A00 X   2      65.824  48.074  28.4510  0.00  0.00     0.000 HD
BRANCH 21 30
ATOM     28   N  A00 X   2      66.634  50.146  30.5380  0.00  0.00     0.000 N
ATOM     30  HD  A00 X   2      66.813  49.322  30.3410  0.00  0.00     0.000 HD
ATOM     30   O  A00 X   2      67.601  48.216  31.4320  0.00  0.00     0.000 OA
ATOM     31   S  A00 X   2      66.321  48.825  31.3460  0.00  0.00     0.000 S
ATOM     32   O  A00 X   2      65.796  49.304  32.5870  0.00  0.00     0.000 OA
ATOM     33   O  A00 X   2      65.311  48.113  30.6200  0.00  0.00     0.000 OA
ENDBRANCH 21 30
BRANCH 24 34
ATOM     34   C  A00 X   2      64.288  52.650  26.4820  0.00  0.00     0.000 C
ATOM     35   O  A00 X   2      60.746  52.733  27.3240  0.00  0.00     0.000 OA
ATOM     36   O  A00 X   2      62.941  52.222  26.7650  0.00  0.00     0.000 O
ATOM     37   O  A00 X   2      62.485  53.099  28.8850  0.00  0.00     0.000 OA
ATOM     38   S  A00 X   2      62.052  53.269  27.5320  0.00  0.00     0.000 S
ATOM     39   O  A00 X   2      62.293  54.537  26.9120  0.00  0.00     0.000 OA
ENDBRANCH 24 34
BRANCH 20 40
ATOM     40  O4  A00 X   3      67.890  51.903  28.1000  0.00  0.00     0.000 O
BRANCH 40 44
ATOM     41  C1  A00 X   3      68.968  53.905  25.2800  0.00  0.00     0.000 C
ATOM     42  C2  A00 X   3      69.797  52.772  25.9230  0.00  0.00     0.000 C
ATOM     43  C3  A00 X   3      69.891  52.955  27.4590  0.00  0.00     0.000 C
ATOM     44  C4  A00 X   3      68.554  53.185  28.1530  0.00  0.00     0.000 C
ATOM     45  C5  A00 X   3      67.783  54.340  27.4540  0.00  0.00     0.000 C
ATOM     46  O5  A00 X   3      67.728  54.131  26.0060  0.00  0.00     0.000 O
ATOM     47   O  A00 X   3      70.707  52.012  28.1500  0.00  0.00     0.000 O
ATOM     49  HD  A00 X   3      70.075  52.066  28.7390  0.00  0.00     0.000 HD
BRANCH 42 49
ATOM     49   O  A00 X   3      69.150  51.527  25.5780  0.00  0.00     0.000 O
ATOM     50   O  A00 X   3      69.511  49.204  26.0280  0.00  0.00     0.000 OA
ATOM     51   O  A00 X   3      71.373  50.573  25.5290  0.00  0.00     0.000 OA
ATOM     52   O  A00 X   3      69.811  50.127  23.8130  0.00  0.00     0.000 OA
ATOM     53   S  A00 X   3      69.998  50.274  25.2150  0.00  0.00     0.000 S
ENDBRANCH 42 49
BRANCH 45 54
ATOM     54   C  A00 X   3      68.344  55.713  27.8450  0.00  0.00     0.000 C
ATOM     55   O  A00 X   3      67.787  56.732  27.4910  0.00  0.00     0.000 OA
ATOM     56   O  A00 X   3      69.360  55.806  28.5160  0.00  0.00     0.000 OA
ENDBRANCH 45 54
BRANCH 41 57
ATOM     57  O4  A00 X   4      69.759  55.099  25.0830  0.00  0.00     0.000 O
BRANCH 57 61
ATOM     58  C1  A00 X   4      69.711  58.185  22.0650  0.00  0.00     0.000 C
ATOM     59  C2  A00 X   4      68.436  57.961  22.9160  0.00  0.00     0.000 C
ATOM     60  C3  A00 X   4      68.681  57.105  24.1750  0.00  0.00     0.000 C
ATOM     61  C4  A00 X   4      69.484  55.827  23.8520  0.00  0.00     0.000 C
ATOM     62  C5  A00 X   4      70.808  56.297  23.2000  0.00  0.00     0.000 C
ATOM     63  O5  A00 X   4      70.510  56.985  21.9580  0.00  0.00     0.000 O
BRANCH 59 66
ATOM     64   N  A00 X   4      67.418  57.230  22.1400  0.00  0.00     0.000 N
ATOM     66  HD  A00 X   4      67.696  56.697  21.5170  0.00  0.00     0.000 HD
ATOM     66   O  A00 X   4      66.816  59.335  21.1370  0.00  0.00     0.000 OA
ATOM     67   S  A00 X   4      66.237  58.068  21.4610  0.00  0.00     0.000 S
ATOM     68   O  A00 X   4      65.932  57.225  20.3430  0.00  0.00     0.000 OA
ATOM     69   O  A00 X   4      65.261  58.028  22.5130  0.00  0.00     0.000 OA
ENDBRANCH 59 66
BRANCH 62 70
ATOM     70   C  A00 X   4      71.806  55.153  22.9010  0.00  0.00     0.000 C
ATOM     71   O  A00 X   4      71.553  52.519  20.4310  0.00  0.00     0.000 OA
ATOM     72   O  A00 X   4      72.066  52.424  22.7270  0.00  0.00     0.000 OA
ATOM     73   O  A00 X   4      71.422  54.494  21.6840  0.00  0.00     0.000 O
ATOM     74   O  A00 X   4      69.761  52.782  22.0220  0.00  0.00     0.000 OA
ATOM     75   S  A00 X   4      71.150  52.950  21.7390  0.00  0.00     0.000 S
ENDBRANCH 62 70
ENDBRANCH 57 61
ENDBRANCH 41 57
ENDBRANCH 40 44
ENDBRANCH 20 40
ENDBRANCH 19 23
ENDBRANCH 1 19
TORSDOF 14
ENDMDL
MODEL 69
REMARK VINA RESULT:      -1.1     50.500     55.130
ROOT
ATOM      1  C1  A00 X   1      22.225  49.575  58.0220  0.00  0.00     0.000 C
ATOM      2  C2  A00 X   1      23.051  48.270  57.8670  0.00  0.00     0.000 C
ATOM      3  C3  A00 X   1      23.130  47.674  56.4230  0.00  0.00     0.000 C
ATOM      4  C4  A00 X   1      22.096  48.232  55.4120  0.00  0.00     0.000 C
ATOM      5  C5  A00 X   1      20.873  48.830  56.1080  0.00  0.00     0.000 C
ATOM      6  O5  A00 X   1      21.395  49.929  56.8880  0.00  0.00     0.000 O
ATOM      7   O  A00 X   1      22.907  46.268  56.4960  0.00  0.00     0.000 O
ATOM      9  HD  A00 X   1      22.476  46.559  55.8030  0.00  0.00     0.000 HD
ATOM      9   O  A00 X   1      22.683  49.205  54.5480  0.00  0.00     0.000 O
ATOM     11  HD  A00 X   1      22.252  49.497  53.8560  0.00  0.00     0.000 HD
ENDROOT
BRANCH 2 11
ATOM     11   O  A00 X   1      24.386  48.537  58.3390  0.00  0.00     0.000 O
ATOM     12   O  A00 X   1      26.166  46.946  58.0820  0.00  0.00     0.000 OA
ATOM     13   O  A00 X   1      24.258  46.383  59.4820  0.00  0.00     0.000 OA
ATOM     14   O  A00 X   1      25.784  48.080  60.1510  0.00  0.00     0.000 OA
ATOM     15   S  A00 X   1      25.186  47.388  59.0420  0.00  0.00     0.000 S
ENDBRANCH 2 11
BRANCH 5 16
ATOM     16   C  A00 X   1      20.043  47.836  56.9270  0.00  0.00     0.000 C
ATOM     17   O  A00 X   1      19.192  48.268  57.6760  0.00  0.00     0.000 OA
ATOM     18   O  A00 X   1      20.202  46.634  56.8480  0.00  0.00     0.000 OA
ENDBRANCH 5 16
BRANCH 1 19
ATOM     19  O4  A00 X   2      21.474  49.620  59.2600  0.00  0.00     0.000 O
BRANCH 19 23
ATOM     20  C1  A00 X   2      22.214  53.790  59.9140  0.00  0.00     0.000 C
ATOM     21  C2  A00 X   2      23.117  52.779  60.6600  0.00  0.00     0.000 C
ATOM     22  C3  A00 X   2      23.029  51.381  60.0110  0.00  0.00     0.000 C
ATOM     23  C4  A00 X   2      21.559  50.917  59.9180  0.00  0.00     0.000 C
ATOM     24  C5  A00 X   2      20.759  52.019  59.1700  0.00  0.00     0.000 C
ATOM     25  O5  A00 X   2      20.862  53.259  59.9170  0.00  0.00     0.000 O
ATOM     26   O  A00 X   2      23.935  50.498  60.6950  0.00  0.00     0.000 O
ATOM     28  HD  A00 X   2      23.635  50.714  61.4780  0.00  0.00     0.000 HD
BRANCH 21 30
ATOM     28   N  A00 X   2      23.165  53.712  61.7900  0.00  0.00     0.000 N
ATOM     30  HD  A00 X   2      23.806  53.141  61.9080  0.00  0.00     0.000 HD
ATOM     30   O  A00 X   2      25.239  53.477  62.8390  0.00  0.00     0.000 OA
ATOM     31   S  A00 X   2      23.868  53.247  63.1270  0.00  0.00     0.000 S
ATOM     32   O  A00 X   2      23.307  54.109  64.1210  0.00  0.00     0.000 OA
ATOM     33   O  A00 X   2      23.473  51.891  63.3640  0.00  0.00     0.000 OA
ENDBRANCH 21 30
BRANCH 24 34
ATOM     34   C  A00 X   2      19.308  51.698  58.7410  0.00  0.00     0.000 C
ATOM     35   O  A00 X   2      16.670  50.712  61.0490  0.00  0.00     0.000 OA
ATOM     36   O  A00 X   2      18.595  51.007  59.7870  0.00  0.00     0.000 O
ATOM     37   O  A00 X   2      17.933  52.700  61.2580  0.00  0.00     0.000 OA
ATOM     38   S  A00 X   2      17.339  51.763  60.3550  0.00  0.00     0.000 S
ATOM     39   O  A00 X   2      16.635  52.286  59.2230  0.00  0.00     0.000 OA
ENDBRANCH 24 34
BRANCH 20 40
ATOM     40  O4  A00 X   3      22.709  53.833  58.5670  0.00  0.00     0.000 O
BRANCH 40 44
ATOM     41  C1  A00 X   3      21.972  53.878  55.0210  0.00  0.00     0.000 C
ATOM     42  C2  A00 X   3      23.393  53.878  55.6250  0.00  0.00     0.000 C
ATOM     43  C3  A00 X   3      23.541  54.987  56.6980  0.00  0.00     0.000 C
ATOM     44  C4  A00 X   3      22.443  54.996  57.7540  0.00  0.00     0.000 C
ATOM     45  C5  A00 X   3      21.047  55.001  57.0710  0.00  0.00     0.000 C
ATOM     46  O5  A00 X   3      20.956  53.946  56.0590  0.00  0.00     0.000 O
ATOM     47   O  A00 X   3      24.841  55.138  57.2630  0.00  0.00     0.000 O
ATOM     49  HD  A00 X   3      24.387  55.267  57.9900  0.00  0.00     0.000 HD
BRANCH 42 49
ATOM     49   O  A00 X   3      23.613  52.566  56.1870  0.00  0.00     0.000 O
ATOM     50   O  A00 X   3      25.362  51.474  57.4040  0.00  0.00     0.000 OA
ATOM     51   O  A00 X   3      25.938  52.880  55.5920  0.00  0.00     0.000 OA
ATOM     52   O  A00 X   3      24.819  50.850  55.1320  0.00  0.00     0.000 OA
ATOM     53   S  A00 X   3      25.012  51.890  56.0820  0.00  0.00     0.000 S
ENDBRANCH 42 49
BRANCH 45 54
ATOM     54   C  A00 X   3      20.685  56.389  56.5290  0.00  0.00     0.000 C
ATOM     55   O  A00 X   3      19.587  56.603  56.0570  0.00  0.00     0.000 OA
ATOM     56   O  A00 X   3      21.494  57.303  56.5600  0.00  0.00     0.000 OA
ENDBRANCH 45 54
BRANCH 41 57
ATOM     57  O4  A00 X   4      21.829  54.884  53.9930  0.00  0.00     0.000 O
BRANCH 57 61
ATOM     58  C1  A00 X   4      19.548  55.037  50.3300  0.00  0.00     0.000 C
ATOM     59  C2  A00 X   4      18.787  54.895  51.6720  0.00  0.00     0.000 C
ATOM     60  C3  A00 X   4      19.655  55.210  52.9070  0.00  0.00     0.000 C
ATOM     61  C4  A00 X   4      21.018  54.488  52.8500  0.00  0.00     0.000 C
ATOM     62  C5  A00 X   4      21.695  54.938  51.5310  0.00  0.00     0.000 C
ATOM     63  O5  A00 X   4      20.888  54.500  50.4080  0.00  0.00     0.000 O
BRANCH 59 66
ATOM     64   N  A00 X   4      18.412  53.471  51.7300  0.00  0.00     0.000 N
ATOM     66  HD  A00 X   4      18.892  52.912  51.2740  0.00  0.00     0.000 HD
ATOM     66   O  A00 X   4      16.458  54.035  50.4410  0.00  0.00     0.000 OA
ATOM     67   S  A00 X   4      16.899  53.072  51.4010  0.00  0.00     0.000 S
ATOM     68   O  A00 X   4      17.085  51.742  50.8980  0.00  0.00     0.000 OA
ATOM     69   O  A00 X   4      16.330  53.129  52.7170  0.00  0.00     0.000 OA
ENDBRANCH 59 66
BRANCH 62 70
ATOM     70   C  A00 X   4      23.133  54.400  51.3430  0.00  0.00     0.000 C
ATOM     71   O  A00 X   4      24.214  51.001  50.7210  0.00  0.00     0.000 OA
ATOM     72   O  A00 X   4      24.965  52.587  52.2910  0.00  0.00     0.000 OA
ATOM     73   O  A00 X   4      23.075  53.043  50.8750  0.00  0.00     0.000 O
ATOM     74   O  A00 X   4      22.847  51.439  52.6580  0.00  0.00     0.000 OA
ATOM     75   S  A00 X   4      23.801  51.943  51.7240  0.00  0.00     0.000 S
ENDBRANCH 62 70
ENDBRANCH 57 61
ENDBRANCH 41 57
ENDBRANCH 40 44
ENDBRANCH 20 40
ENDBRANCH 19 23
ENDBRANCH 1 19
TORSDOF 14
ENDMDL
MODEL 70
REMARK VINA RESULT:      -1.1     49.513     54.308
ROOT
ATOM      1  C1  A00 X   1      20.952  48.490  58.6790  0.00  0.00     0.000 C
ATOM      2  C2  A00 X   1      21.989  47.388  58.3320  0.00  0.00     0.000 C
ATOM      3  C3  A00 X   1      21.948  46.842  56.8670  0.00  0.00     0.000 C
ATOM      4  C4  A00 X   1      20.669  47.186  56.0610  0.00  0.00     0.000 C
ATOM      5  C5  A00 X   1      19.483  47.506  56.9700  0.00  0.00     0.000 C
ATOM      6  O5  A00 X   1      19.892  48.678  57.7090  0.00  0.00     0.000 O
ATOM      7   O  A00 X   1      22.032  45.419  56.9060  0.00  0.00     0.000 O
ATOM      9  HD  A00 X   1      21.442  45.624  56.3060  0.00  0.00     0.000 HD
ATOM      9   O  A00 X   1      20.895  48.272  55.1620  0.00  0.00     0.000 O
ATOM     11  HD  A00 X   1      20.305  48.477  54.5620  0.00  0.00     0.000 HD
ENDROOT
BRANCH 2 11
ATOM     11   O  A00 X   1      23.301  47.922  58.5970  0.00  0.00     0.000 O
ATOM     12   O  A00 X   1      25.301  46.742  57.9850  0.00  0.00     0.000 OA
ATOM     13   O  A00 X   1      23.806  45.773  59.6420  0.00  0.00     0.000 OA
ATOM     14   O  A00 X   1      25.044  47.742  60.1400  0.00  0.00     0.000 OA
ATOM     15   S  A00 X   1      24.424  46.956  59.1090  0.00  0.00     0.000 S
ENDBRANCH 2 11
BRANCH 5 16
ATOM     16   C  A00 X   1      19.020  46.349  57.8620  0.00  0.00     0.000 C
ATOM     17   O  A00 X   1      18.235  46.584  58.7570  0.00  0.00     0.000 OA
ATOM     18   O  A00 X   1      19.405  45.208  57.7020  0.00  0.00     0.000 OA
ENDBRANCH 5 16
BRANCH 1 19
ATOM     19  O4  A00 X   2      20.424  48.360  60.0210  0.00  0.00     0.000 O
BRANCH 19 23
ATOM     20  C1  A00 X   2      20.396  52.584  60.7470  0.00  0.00     0.000 C
ATOM     21  C2  A00 X   2      21.597  51.773  61.2910  0.00  0.00     0.000 C
ATOM     22  C3  A00 X   2      21.690  50.397  60.5980  0.00  0.00     0.000 C
ATOM     23  C4  A00 X   2      20.350  49.637  60.7180  0.00  0.00     0.000 C
ATOM     24  C5  A00 X   2      19.230  50.558  60.1600  0.00  0.00     0.000 C
ATOM     25  O5  A00 X   2      19.200  51.782  60.9400  0.00  0.00     0.000 O
ATOM     26   O  A00 X   2      22.857  49.713  61.0860  0.00  0.00     0.000 O
ATOM     28  HD  A00 X   2      22.653  49.851  61.9160  0.00  0.00     0.000 HD
BRANCH 21 30
ATOM     28   N  A00 X   2      21.641  52.680  62.4420  0.00  0.00     0.000 N
ATOM     30  HD  A00 X   2      22.395  52.254  62.4300  0.00  0.00     0.000 HD
ATOM     30   O  A00 X   2      23.864  52.869  63.1360  0.00  0.00     0.000 OA
ATOM     31   S  A00 X   2      22.635  52.354  63.6270  0.00  0.00     0.000 S
ATOM     32   O  A00 X   2      22.083  53.066  64.7380  0.00  0.00     0.000 OA
ATOM     33   O  A00 X   2      22.569  50.942  63.8590  0.00  0.00     0.000 OA
ENDBRANCH 21 30
BRANCH 24 34
ATOM     34   C  A00 X   2      17.824  49.947  59.9530  0.00  0.00     0.000 C
ATOM     35   O  A00 X   2      15.862  48.400  62.6010  0.00  0.00     0.000 OA
ATOM     36   O  A00 X   2      17.450  49.108  61.0640  0.00  0.00     0.000 O
ATOM     37   O  A00 X   2      16.710  50.605  62.7010  0.00  0.00     0.000 OA
ATOM     38   S  A00 X   2      16.178  49.577  61.8610  0.00  0.00     0.000 S
ATOM     39   O  A00 X   2      15.205  49.958  60.8810  0.00  0.00     0.000 OA
ENDBRANCH 24 34
BRANCH 20 40
ATOM     40  O4  A00 X   3      20.642  52.748  59.3430  0.00  0.00     0.000 O
BRANCH 40 44
ATOM     41  C1  A00 X   3      19.335  52.687  55.9650  0.00  0.00     0.000 C
ATOM     42  C2  A00 X   3      20.806  52.975  56.3340  0.00  0.00     0.000 C
ATOM     43  C3  A00 X   3      20.900  54.076  57.4220  0.00  0.00     0.000 C
ATOM     44  C4  A00 X   3      20.014  53.841  58.6390  0.00  0.00     0.000 C
ATOM     45  C5  A00 X   3      18.552  53.563  58.1870  0.00  0.00     0.000 C
ATOM     46  O5  A00 X   3      18.512  52.527  57.1540  0.00  0.00     0.000 O
ATOM     47   O  A00 X   3      22.218  54.486  57.7800  0.00  0.00     0.000 O
ATOM     49  HD  A00 X   3      21.874  54.508  58.5750  0.00  0.00     0.000 HD
BRANCH 42 49
ATOM     49   O  A00 X   3      21.379  51.730  56.7910  0.00  0.00     0.000 O
ATOM     50   O  A00 X   3      23.491  51.011  57.6600  0.00  0.00     0.000 OA
ATOM     51   O  A00 X   3      23.460  52.531  55.8500  0.00  0.00     0.000 OA
ATOM     52   O  A00 X   3      22.718  50.318  55.4760  0.00  0.00     0.000 OA
ATOM     53   S  A00 X   3      22.849  51.363  56.4330  0.00  0.00     0.000 S
ENDBRANCH 42 49
BRANCH 45 54
ATOM     54   C  A00 X   3      17.831  54.853  57.7770  0.00  0.00     0.000 C
ATOM     55   O  A00 X   3      16.650  54.838  57.4970  0.00  0.00     0.000 OA
ATOM     56   O  A00 X   3      18.431  55.915  57.7230  0.00  0.00     0.000 OA
ENDBRANCH 45 54
BRANCH 41 57
ATOM     57  O4  A00 X   4      18.822  53.654  55.0220  0.00  0.00     0.000 O
BRANCH 57 61
ATOM     58  C1  A00 X   4      15.984  53.379  51.7800  0.00  0.00     0.000 C
ATOM     59  C2  A00 X   4      15.500  53.062  53.2180  0.00  0.00     0.000 C
ATOM     60  C3  A00 X   4      16.478  53.535  54.3130  0.00  0.00     0.000 C
ATOM     61  C4  A00 X   4      17.931  53.114  54.0050  0.00  0.00     0.000 C
ATOM     62  C5  A00 X   4      18.274  53.713  52.6190  0.00  0.00     0.000 C
ATOM     63  O5  A00 X   4      17.399  53.132  51.6180  0.00  0.00     0.000 O
BRANCH 59 66
ATOM     64   N  A00 X   4      15.438  51.590  53.2670  0.00  0.00     0.000 N
ATOM     66  HD  A00 X   4      15.940  51.150  52.7140  0.00  0.00     0.000 HD
ATOM     66   O  A00 X   4      13.224  51.752  52.3340  0.00  0.00     0.000 OA
ATOM     67   S  A00 X   4      14.005  50.889  53.1630  0.00  0.00     0.000 S
ATOM     68   O  A00 X   4      14.373  49.634  52.5750  0.00  0.00     0.000 OA
ATOM     69   O  A00 X   4      13.662  50.808  54.5550  0.00  0.00     0.000 OA
ENDBRANCH 59 66
BRANCH 62 70
ATOM     70   C  A00 X   4      19.740  53.490  52.1790  0.00  0.00     0.000 C
ATOM     71   O  A00 X   4      21.372  50.401  51.2300  0.00  0.00     0.000 OA
ATOM     72   O  A00 X   4      22.034  52.086  52.7350  0.00  0.00     0.000 OA
ATOM     73   O  A00 X   4      19.884  52.158  51.6610  0.00  0.00     0.000 O
ATOM     74   O  A00 X   4      20.285  50.517  53.3790  0.00  0.00     0.000 OA
ATOM     75   S  A00 X   4      20.949  51.221  52.3300  0.00  0.00     0.000 S
ENDBRANCH 62 70
ENDBRANCH 57 61
ENDBRANCH 41 57
ENDBRANCH 40 44
ENDBRANCH 20 40
ENDBRANCH 19 23
ENDBRANCH 1 19
TORSDOF 14
ENDMDL
MODEL 71
REMARK VINA RESULT:      -1.1     69.076     74.523
ROOT
ATOM      1  C1  A00 X   1      69.458  46.005  21.8360  0.00  0.00     0.000 C
ATOM      2  C2  A00 X   1      68.994  44.613  21.3330  0.00  0.00     0.000 C
ATOM      3  C3  A00 X   1      69.576  44.149  19.9570  0.00  0.00     0.000 C
ATOM      4  C4  A00 X   1      70.237  45.261  19.1020  0.00  0.00     0.000 C
ATOM      5  C5  A00 X   1      69.735  46.655  19.4800  0.00  0.00     0.000 C
ATOM      6  O5  A00 X   1      70.138  46.830  20.8570  0.00  0.00     0.000 O
ATOM      7   O  A00 X   1      68.517  43.610  19.1700  0.00  0.00     0.000 O
ATOM      9  HD  A00 X   1      69.009  44.088  18.6420  0.00  0.00     0.000 HD
ATOM      9   O  A00 X   1      71.660  45.219  19.2000  0.00  0.00     0.000 O
ATOM     11  HD  A00 X   1      72.152  45.697  18.6720  0.00  0.00     0.000 HD
ENDROOT
BRANCH 2 11
ATOM     11   O  A00 X   1      69.343  43.644  22.3410  0.00  0.00     0.000 O
ATOM     12   O  A00 X   1      69.101  41.283  21.9710  0.00  0.00     0.000 OA
ATOM     13   O  A00 X   1      67.120  42.694  21.9930  0.00  0.00     0.000 OA
ATOM     14   O  A00 X   1      68.355  42.321  23.9910  0.00  0.00     0.000 OA
ATOM     15   S  A00 X   1      68.409  42.404  22.5560  0.00  0.00     0.000 S
ENDBRANCH 2 11
BRANCH 5 16
ATOM     16   C  A00 X   1      68.239  46.890  19.2450  0.00  0.00     0.000 C
ATOM     17   O  A00 X   1      67.727  47.887  19.7130  0.00  0.00     0.000 OA
ATOM     18   O  A00 X   1      67.551  46.122  18.6030  0.00  0.00     0.000 OA
ENDBRANCH 5 16
BRANCH 1 19
ATOM     19  O4  A00 X   2      68.405  46.741  22.5050  0.00  0.00     0.000 O
BRANCH 19 23
ATOM     20  C1  A00 X   2      70.999  48.296  25.5400  0.00  0.00     0.000 C
ATOM     21  C2  A00 X   2      70.154  47.048  25.8930  0.00  0.00     0.000 C
ATOM     22  C3  A00 X   2      69.625  46.364  24.6160  0.00  0.00     0.000 C
ATOM     23  C4  A00 X   2      68.860  47.376  23.7330  0.00  0.00     0.000 C
ATOM     24  C5  A00 X   2      69.804  48.581  23.4680  0.00  0.00     0.000 C
ATOM     25  O5  A00 X   2      70.169  49.178  24.7390  0.00  0.00     0.000 O
ATOM     26   O  A00 X   2      68.907  45.177  24.9930  0.00  0.00     0.000 O
ATOM     28  HD  A00 X   2      68.427  45.593  25.5810  0.00  0.00     0.000 HD
BRANCH 21 30
ATOM     28   N  A00 X   2      70.044  47.557  27.2640  0.00  0.00     0.000 N
ATOM     30  HD  A00 X   2      69.812  46.723  27.2870  0.00  0.00     0.000 HD
ATOM     30   O  A00 X   2      69.925  45.727  28.7120  0.00  0.00     0.000 OA
ATOM     31   S  A00 X   2      69.100  46.800  28.2810  0.00  0.00     0.000 S
ATOM     32   O  A00 X   2      68.819  47.785  29.2800  0.00  0.00     0.000 OA
ATOM     33   O  A00 X   2      67.904  46.455  27.5720  0.00  0.00     0.000 OA
ENDBRANCH 21 30
BRANCH 24 34
ATOM     34   C  A00 X   2      69.363  49.631  22.4200  0.00  0.00     0.000 C
ATOM     35   O  A00 X   2      66.247  51.507  22.5970  0.00  0.00     0.000 OA
ATOM     36   O  A00 X   2      67.961  49.942  22.5500  0.00  0.00     0.000 O
ATOM     37   O  A00 X   2      67.866  51.467  24.3210  0.00  0.00     0.000 OA
ATOM     38   S  A00 X   2      67.637  51.439  22.9090  0.00  0.00     0.000 S
ATOM     39   O  A00 X   2      68.485  52.246  22.0830  0.00  0.00     0.000 OA
ENDBRANCH 24 34
BRANCH 20 40
ATOM     40  O4  A00 X   3      72.091  47.812  24.7450  0.00  0.00     0.000 O
BRANCH 40 44
ATOM     41  C1  A00 X   3      74.170  48.261  21.8120  0.00  0.00     0.000 C
ATOM     42  C2  A00 X   3      74.290  47.084  22.8040  0.00  0.00     0.000 C
ATOM     43  C3  A00 X   3      74.381  47.596  24.2640  0.00  0.00     0.000 C
ATOM     44  C4  A00 X   3      73.300  48.597  24.6530  0.00  0.00     0.000 C
ATOM     45  C5  A00 X   3      73.244  49.751  23.6130  0.00  0.00     0.000 C
ATOM     46  O5  A00 X   3      73.169  49.222  22.2490  0.00  0.00     0.000 O
ATOM     47   O  A00 X   3      74.582  46.598  25.2630  0.00  0.00     0.000 O
ATOM     49  HD  A00 X   3      74.030  47.093  25.7090  0.00  0.00     0.000 HD
BRANCH 42 49
ATOM     49   O  A00 X   3      73.129  46.247  22.6090  0.00  0.00     0.000 O
ATOM     50   O  A00 X   3      72.242  44.257  23.6020  0.00  0.00     0.000 OA
ATOM     51   O  A00 X   3      74.568  44.394  23.2030  0.00  0.00     0.000 OA
ATOM     52   O  A00 X   3      73.112  44.267  21.3460  0.00  0.00     0.000 OA
ATOM     53   S  A00 X   3      73.254  44.697  22.6940  0.00  0.00     0.000 S
ENDBRANCH 42 49
BRANCH 45 54
ATOM     54   C  A00 X   3      74.391  50.749  23.8100  0.00  0.00     0.000 C
ATOM     55   O  A00 X   3      75.296  50.507  24.5830  0.00  0.00     0.000 OA
ATOM     56   O  A00 X   3      74.413  51.805  23.1970  0.00  0.00     0.000 OA
ENDBRANCH 45 54
BRANCH 41 57
ATOM     57  O4  A00 X   4      75.458  48.847  21.5200  0.00  0.00     0.000 O
BRANCH 57 61
ATOM     58  C1  A00 X   4      77.126  50.662  17.9760  0.00  0.00     0.000 C
ATOM     59  C2  A00 X   4      75.884  51.318  18.6300  0.00  0.00     0.000 C
ATOM     60  C3  A00 X   4      75.603  50.810  20.0590  0.00  0.00     0.000 C
ATOM     61  C4  A00 X   4      75.646  49.269  20.1390  0.00  0.00     0.000 C
ATOM     62  C5  A00 X   4      77.049  48.846  19.6350  0.00  0.00     0.000 C
ATOM     63  O5  A00 X   4      77.198  49.244  18.2490  0.00  0.00     0.000 O
BRANCH 59 66
ATOM     64   N  A00 X   4      74.920  50.788  17.6500  0.00  0.00     0.000 N
ATOM     66  HD  A00 X   4      75.166  50.108  17.1730  0.00  0.00     0.000 HD
ATOM     66   O  A00 X   4      75.274  52.794  16.3660  0.00  0.00     0.000 OA
ATOM     67   S  A00 X   4      74.269  51.805  16.6010  0.00  0.00     0.000 S
ATOM     68   O  A00 X   4      74.009  50.917  15.5060  0.00  0.00     0.000 OA
ATOM     69   O  A00 X   4      73.096  52.203  17.3280  0.00  0.00     0.000 OA
ENDBRANCH 59 66
BRANCH 62 70
ATOM     70   C  A00 X   4      77.328  47.328  19.7440  0.00  0.00     0.000 C
ATOM     71   O  A00 X   4      75.853  44.617  17.8520  0.00  0.00     0.000 OA
ATOM     72   O  A00 X   4      76.154  44.882  20.1720  0.00  0.00     0.000 OA
ATOM     73   O  A00 X   4      76.707  46.651  18.6390  0.00  0.00     0.000 O
ATOM     74   O  A00 X   4      74.390  46.123  19.0370  0.00  0.00     0.000 OA
ATOM     75   S  A00 X   4      75.678  45.512  18.9600  0.00  0.00     0.000 S
ENDBRANCH 62 70
ENDBRANCH 57 61
ENDBRANCH 41 57
ENDBRANCH 40 44
ENDBRANCH 20 40
ENDBRANCH 19 23
ENDBRANCH 1 19
TORSDOF 14
ENDMDL
MODEL 72
REMARK VINA RESULT:      -1.1     60.324     64.519
ROOT
ATOM      1  C1  A00 X   1      29.276  66.839  43.7500  0.00  0.00     0.000 C
ATOM      2  C2  A00 X   1      29.054  65.309  43.8940  0.00  0.00     0.000 C
ATOM      3  C3  A00 X   1      27.991  64.677  42.9360  0.00  0.00     0.000 C
ATOM      4  C4  A00 X   1      27.042  65.681  42.2340  0.00  0.00     0.000 C
ATOM      5  C5  A00 X   1      26.944  67.007  42.9880  0.00  0.00     0.000 C
ATOM      6  O5  A00 X   1      28.286  67.544  42.9620  0.00  0.00     0.000 O
ATOM      7   O  A00 X   1      27.162  63.796  43.6910  0.00  0.00     0.000 O
ATOM      9  HD  A00 X   1      26.645  64.232  43.1500  0.00  0.00     0.000 HD
ATOM      9   O  A00 X   1      27.442  65.922  40.8850  0.00  0.00     0.000 O
ATOM     11  HD  A00 X   1      26.925  66.357  40.3440  0.00  0.00     0.000 HD
ENDROOT
BRANCH 2 11
ATOM     11   O  A00 X   1      30.322  64.660  43.6820  0.00  0.00     0.000 O
ATOM     12   O  A00 X   1      30.565  62.274  43.8130  0.00  0.00     0.000 OA
ATOM     13   O  A00 X   1      29.928  63.517  45.8050  0.00  0.00     0.000 OA
ATOM     14   O  A00 X   1      32.108  63.754  44.8830  0.00  0.00     0.000 OA
ATOM     15   S  A00 X   1      30.726  63.464  44.6110  0.00  0.00     0.000 S
ENDBRANCH 2 11
BRANCH 5 16
ATOM     16   C  A00 X   1      26.351  66.909  44.3970  0.00  0.00     0.000 C
ATOM     17   O  A00 X   1      26.436  67.871  45.1320  0.00  0.00     0.000 OA
ATOM     18   O  A00 X   1      25.794  65.908  44.8020  0.00  0.00     0.000 OA
ENDBRANCH 5 16
BRANCH 1 19
ATOM     19  O4  A00 X   2      29.504  67.495  45.0220  0.00  0.00     0.000 O
BRANCH 19 23
ATOM     20  C1  A00 X   2      32.433  70.201  43.4530  0.00  0.00     0.000 C
ATOM     21  C2  A00 X   2      32.947  68.924  44.1600  0.00  0.00     0.000 C
ATOM     22  C3  A00 X   2      31.825  67.871  44.2750  0.00  0.00     0.000 C
ATOM     23  C4  A00 X   2      30.579  68.476  44.9600  0.00  0.00     0.000 C
ATOM     24  C5  A00 X   2      30.177  69.752  44.1710  0.00  0.00     0.000 C
ATOM     25  O5  A00 X   2      31.286  70.688  44.2000  0.00  0.00     0.000 O
ATOM     26   O  A00 X   2      32.369  66.682  44.8750  0.00  0.00     0.000 O
ATOM     28  HD  A00 X   2      32.726  67.117  45.5330  0.00  0.00     0.000 HD
BRANCH 21 30
ATOM     28   N  A00 X   2      34.086  69.703  44.6550  0.00  0.00     0.000 N
ATOM     30  HD  A00 X   2      34.289  68.867  44.7600  0.00  0.00     0.000 HD
ATOM     30   O  A00 X   2      35.925  68.272  44.8290  0.00  0.00     0.000 OA
ATOM     31   S  A00 X   2      35.078  69.026  45.6830  0.00  0.00     0.000 S
ATOM     32   O  A00 X   2      35.707  70.137  46.3290  0.00  0.00     0.000 OA
ATOM     33   O  A00 X   2      34.281  68.292  46.6200  0.00  0.00     0.000 OA
ENDBRANCH 21 30
BRANCH 24 34
ATOM     34   C  A00 X   2      28.824  70.419  44.5120  0.00  0.00     0.000 C
ATOM     35   O  A00 X   2      28.480  73.841  45.7100  0.00  0.00     0.000 OA
ATOM     36   O  A00 X   2      29.014  71.622  45.2840  0.00  0.00     0.000 O
ATOM     37   O  A00 X   2      29.574  73.248  43.6980  0.00  0.00     0.000 OA
ATOM     38   S  A00 X   2      28.506  72.944  44.6010  0.00  0.00     0.000 S
ATOM     39   O  A00 X   2      27.225  72.642  44.0360  0.00  0.00     0.000 OA
ENDBRANCH 24 34
BRANCH 20 40
ATOM     40  O4  A00 X   3      32.011  69.779  42.1480  0.00  0.00     0.000 O
BRANCH 40 44
ATOM     41  C1  A00 X   3      29.564  69.963  39.4830  0.00  0.00     0.000 C
ATOM     42  C2  A00 X   3      30.827  69.077  39.4580  0.00  0.00     0.000 C
ATOM     43  C3  A00 X   3      32.093  69.903  39.8030  0.00  0.00     0.000 C
ATOM     44  C4  A00 X   3      31.976  70.740  41.0710  0.00  0.00     0.000 C
ATOM     45  C5  A00 X   3      30.686  71.606  41.0200  0.00  0.00     0.000 C
ATOM     46  O5  A00 X   3      29.520  70.788  40.6800  0.00  0.00     0.000 O
ATOM     47   O  A00 X   3      33.334  69.204  39.7260  0.00  0.00     0.000 O
ATOM     49  HD  A00 X   3      33.512  69.670  40.4330  0.00  0.00     0.000 HD
BRANCH 42 49
ATOM     49   O  A00 X   3      30.616  68.011  40.4100  0.00  0.00     0.000 O
ATOM     50   O  A00 X   3      31.882  66.162  41.2500  0.00  0.00     0.000 OA
ATOM     51   O  A00 X   3      31.968  66.647  38.9380  0.00  0.00     0.000 OA
ATOM     52   O  A00 X   3      29.942  65.834  39.8440  0.00  0.00     0.000 OA
ATOM     53   S  A00 X   3      31.128  66.573  40.1080  0.00  0.00     0.000 S
ENDBRANCH 42 49
BRANCH 45 54
ATOM     54   C  A00 X   3      30.856  72.824  40.1030  0.00  0.00     0.000 C
ATOM     55   O  A00 X   3      31.831  72.927  39.3870  0.00  0.00     0.000 OA
ATOM     56   O  A00 X   3      30.017  73.710  40.0790  0.00  0.00     0.000 OA
ENDBRANCH 45 54
BRANCH 41 57
ATOM     57  O4  A00 X   4      29.408  70.706  38.2530  0.00  0.00     0.000 O
BRANCH 57 61
ATOM     58  C1  A00 X   4      25.947  72.053  36.0510  0.00  0.00     0.000 C
ATOM     59  C2  A00 X   4      26.165  72.587  37.4890  0.00  0.00     0.000 C
ATOM     60  C3  A00 X   4      27.586  72.332  38.0300  0.00  0.00     0.000 C
ATOM     61  C4  A00 X   4      28.034  70.872  37.8010  0.00  0.00     0.000 C
ATOM     62  C5  A00 X   4      27.936  70.621  36.2760  0.00  0.00     0.000 C
ATOM     63  O5  A00 X   4      26.554  70.755  35.8570  0.00  0.00     0.000 O
BRANCH 59 66
ATOM     64   N  A00 X   4      25.326  72.067  38.5830  0.00  0.00     0.000 N
ATOM     66  HD  A00 X   4      25.079  71.238  38.5390  0.00  0.00     0.000 HD
ATOM     66   O  A00 X   4      23.543  73.446  37.7370  0.00  0.00     0.000 OA
ATOM     67   S  A00 X   4      23.995  72.869  38.9640  0.00  0.00     0.000 S
ATOM     68   O  A00 X   4      23.188  71.801  39.4780  0.00  0.00     0.000 OA
ATOM     69   O  A00 X   4      24.511  73.753  39.9700  0.00  0.00     0.000 OA
ENDBRANCH 59 66
BRANCH 62 70
ATOM     70   C  A00 X   4      28.453  69.232  35.8300  0.00  0.00     0.000 C
ATOM     71   O  A00 X   4      27.013  65.972  36.4710  0.00  0.00     0.000 OA
ATOM     72   O  A00 X   4      29.218  66.754  36.7360  0.00  0.00     0.000 OA
ATOM     73   O  A00 X   4      27.443  68.244  36.0910  0.00  0.00     0.000 O
ATOM     74   O  A00 X   4      27.509  67.402  38.3480  0.00  0.00     0.000 OA
ATOM     75   S  A00 X   4      27.824  67.029  37.0070  0.00  0.00     0.000 S
ENDBRANCH 62 70
ENDBRANCH 57 61
ENDBRANCH 41 57
ENDBRANCH 40 44
ENDBRANCH 20 40
ENDBRANCH 19 23
ENDBRANCH 1 19
TORSDOF 14
ENDMDL
MODEL 73
REMARK VINA RESULT:      -1.1     41.183     44.899
ROOT
ATOM      1  C1  A00 X   1      27.516  49.410  26.7420  0.00  0.00     0.000 C
ATOM      2  C2  A00 X   1      27.538  48.082  25.9400  0.00  0.00     0.000 C
ATOM      3  C3  A00 X   1      28.896  47.305  25.9330  0.00  0.00     0.000 C
ATOM      4  C4  A00 X   1      30.132  48.116  26.4010  0.00  0.00     0.000 C
ATOM      5  C5  A00 X   1      29.919  49.623  26.2640  0.00  0.00     0.000 C
ATOM      6  O5  A00 X   1      28.812  49.919  27.1450  0.00  0.00     0.000 O
ATOM      7   O  A00 X   1      29.172  46.880  24.6000  0.00  0.00     0.000 O
ATOM      9  HD  A00 X   1      29.918  47.161  24.9380  0.00  0.00     0.000 HD
ATOM      9   O  A00 X   1      30.483  47.798  27.7480  0.00  0.00     0.000 O
ATOM     11  HD  A00 X   1      31.229  48.080  28.0860  0.00  0.00     0.000 HD
ENDROOT
BRANCH 2 11
ATOM     11   O  A00 X   1      26.511  47.227  26.4800  0.00  0.00     0.000 O
ATOM     12   O  A00 X   1      26.261  44.944  25.7780  0.00  0.00     0.000 OA
ATOM     13   O  A00 X   1      25.909  46.730  24.1650  0.00  0.00     0.000 OA
ATOM     14   O  A00 X   1      24.385  46.413  25.9640  0.00  0.00     0.000 OA
ATOM     15   S  A00 X   1      25.742  46.262  25.5140  0.00  0.00     0.000 S
ENDBRANCH 2 11
BRANCH 5 16
ATOM     16   C  A00 X   1      29.712  50.121  24.8300  0.00  0.00     0.000 C
ATOM     17   O  A00 X   1      30.040  49.398  23.9120  0.00  0.00     0.000 OA
ATOM     18   O  A00 X   1      29.227  51.206  24.5810  0.00  0.00     0.000 OA
ENDBRANCH 5 16
BRANCH 1 19
ATOM     19  O4  A00 X   2      26.720  50.438  26.1030  0.00  0.00     0.000 O
BRANCH 19 23
ATOM     20  C1  A00 X   2      25.117  51.919  29.7920  0.00  0.00     0.000 C
ATOM     21  C2  A00 X   2      24.245  50.931  28.9790  0.00  0.00     0.000 C
ATOM     22  C3  A00 X   2      25.098  50.170  27.9430  0.00  0.00     0.000 C
ATOM     23  C4  A00 X   2      25.877  51.159  27.0470  0.00  0.00     0.000 C
ATOM     24  C5  A00 X   2      26.692  52.100  27.9770  0.00  0.00     0.000 C
ATOM     25  O5  A00 X   2      25.772  52.808  28.8480  0.00  0.00     0.000 O
ATOM     26   O  A00 X   2      24.259  49.220  27.2640  0.00  0.00     0.000 O
ATOM     28  HD  A00 X   2      23.650  49.809  27.0850  0.00  0.00     0.000 HD
BRANCH 21 30
ATOM     28   N  A00 X   2      23.059  51.662  29.4350  0.00  0.00     0.000 N
ATOM     30  HD  A00 X   2      22.781  50.904  29.1230  0.00  0.00     0.000 HD
ATOM     30   O  A00 X   2      21.293  50.143  29.6140  0.00  0.00     0.000 OA
ATOM     31   S  A00 X   2      21.650  51.274  28.8330  0.00  0.00     0.000 S
ATOM     32   O  A00 X   2      20.853  52.439  29.0570  0.00  0.00     0.000 OA
ATOM     33   O  A00 X   2      21.835  51.060  27.4280  0.00  0.00     0.000 OA
ENDBRANCH 21 30
BRANCH 24 34
ATOM     34   C  A00 X   2      27.738  53.036  27.3260  0.00  0.00     0.000 C
ATOM     35   O  A00 X   2      26.957  55.489  24.7510  0.00  0.00     0.000 OA
ATOM     36   O  A00 X   2      27.225  53.632  26.1180  0.00  0.00     0.000 O
ATOM     37   O  A00 X   2      25.897  55.407  26.8630  0.00  0.00     0.000 OA
ATOM     38   S  A00 X   2      27.113  55.201  26.1390  0.00  0.00     0.000 S
ATOM     39   O  A00 X   2      28.326  55.685  26.7270  0.00  0.00     0.000 OA
ENDBRANCH 24 34
BRANCH 20 40
ATOM     40  O4  A00 X   3      26.103  51.112  30.4530  0.00  0.00     0.000 O
BRANCH 40 44
ATOM     41  C1  A00 X   3      29.587  50.695  31.3510  0.00  0.00     0.000 C
ATOM     42  C2  A00 X   3      28.467  49.683  31.6770  0.00  0.00     0.000 C
ATOM     43  C3  A00 X   3      27.266  50.386  32.3610  0.00  0.00     0.000 C
ATOM     44  C4  A00 X   3      26.759  51.624  31.6330  0.00  0.00     0.000 C
ATOM     45  C5  A00 X   3      27.940  52.594  31.3450  0.00  0.00     0.000 C
ATOM     46  O5  A00 X   3      29.054  51.886  30.7100  0.00  0.00     0.000 O
ATOM     47   O  A00 X   3      26.206  49.533  32.7870  0.00  0.00     0.000 O
ATOM     49  HD  A00 X   3      25.716  50.189  32.5040  0.00  0.00     0.000 HD
BRANCH 42 49
ATOM     49   O  A00 X   3      28.078  49.066  30.4310  0.00  0.00     0.000 O
ATOM     50   O  A00 X   3      26.438  47.472  29.7240  0.00  0.00     0.000 OA
ATOM     51   O  A00 X   3      27.604  47.090  31.7450  0.00  0.00     0.000 OA
ATOM     52   O  A00 X   3      28.799  46.950  29.7110  0.00  0.00     0.000 OA
ATOM     53   S  A00 X   3      27.703  47.556  30.3840  0.00  0.00     0.000 S
ENDBRANCH 42 49
BRANCH 45 54
ATOM     54   C  A00 X   3      28.356  53.370  32.6000  0.00  0.00     0.000 C
ATOM     55   O  A00 X   3      27.847  53.127  33.6750  0.00  0.00     0.000 OA
ATOM     56   O  A00 X   3      29.204  54.247  32.5410  0.00  0.00     0.000 OA
ENDBRANCH 45 54
BRANCH 41 57
ATOM     57  O4  A00 X   4      30.412  50.969  32.5060  0.00  0.00     0.000 O
BRANCH 57 61
ATOM     58  C1  A00 X   4      34.609  51.866  32.9730  0.00  0.00     0.000 C
ATOM     59  C2  A00 X   4      33.730  52.841  32.1510  0.00  0.00     0.000 C
ATOM     60  C3  A00 X   4      32.216  52.622  32.3520  0.00  0.00     0.000 C
ATOM     61  C4  A00 X   4      31.832  51.132  32.2270  0.00  0.00     0.000 C
ATOM     62  C5  A00 X   4      32.676  50.374  33.2810  0.00  0.00     0.000 C
ATOM     63  O5  A00 X   4      34.083  50.520  32.9600  0.00  0.00     0.000 O
BRANCH 59 66
ATOM     64   N  A00 X   4      33.973  52.641  30.7110  0.00  0.00     0.000 N
ATOM     66  HD  A00 X   4      34.229  51.855  30.4550  0.00  0.00     0.000 HD
ATOM     66   O  A00 X   4      35.914  54.046  30.9450  0.00  0.00     0.000 OA
ATOM     67   S  A00 X   4      34.955  53.656  29.9600  0.00  0.00     0.000 S
ATOM     68   O  A00 X   4      35.452  52.809  28.9150  0.00  0.00     0.000 OA
ATOM     69   O  A00 X   4      34.010  54.642  29.5190  0.00  0.00     0.000 OA
ENDBRANCH 59 66
BRANCH 62 70
ATOM     70   C  A00 X   4      32.350  48.865  33.3860  0.00  0.00     0.000 C
ATOM     71   O  A00 X   4      33.002  46.237  30.9830  0.00  0.00     0.000 OA
ATOM     72   O  A00 X   4      31.037  46.788  32.1580  0.00  0.00     0.000 OA
ATOM     73   O  A00 X   4      33.005  48.162  32.3190  0.00  0.00     0.000 O
ATOM     74   O  A00 X   4      31.736  48.162  30.2710  0.00  0.00     0.000 OA
ATOM     75   S  A00 X   4      32.117  47.307  31.3490  0.00  0.00     0.000 S
ENDBRANCH 62 70
ENDBRANCH 57 61
ENDBRANCH 41 57
ENDBRANCH 40 44
ENDBRANCH 20 40
ENDBRANCH 19 23
ENDBRANCH 1 19
TORSDOF 14
ENDMDL
MODEL 74
REMARK VINA RESULT:      -1.1     56.975     63.275
ROOT
ATOM      1  C1  A00 X   1      64.403  40.367  23.7470  0.00  0.00     0.000 C
ATOM      2  C2  A00 X   1      64.421  40.065  25.2690  0.00  0.00     0.000 C
ATOM      3  C3  A00 X   1      63.041  39.712  25.9160  0.00  0.00     0.000 C
ATOM      4  C4  A00 X   1      61.794  40.061  25.0630  0.00  0.00     0.000 C
ATOM      5  C5  A00 X   1      62.088  41.147  24.0290  0.00  0.00     0.000 C
ATOM      6  O5  A00 X   1      63.091  40.569  23.1650  0.00  0.00     0.000 O
ATOM      7   O  A00 X   1      62.911  40.435  27.1380  0.00  0.00     0.000 O
ATOM      9  HD  A00 X   1      62.142  40.466  26.7400  0.00  0.00     0.000 HD
ATOM      9   O  A00 X   1      61.267  38.905  24.4130  0.00  0.00     0.000 O
ATOM     11  HD  A00 X   1      60.498  38.936  24.0150  0.00  0.00     0.000 HD
ENDROOT
BRANCH 2 11
ATOM     11   O  A00 X   1      65.335  38.973  25.4890  0.00  0.00     0.000 O
ATOM     12   O  A00 X   1      65.565  37.921  27.6350  0.00  0.00     0.000 OA
ATOM     13   O  A00 X   1      66.189  40.259  27.3820  0.00  0.00     0.000 OA
ATOM     14   O  A00 X   1      67.469  38.549  26.3340  0.00  0.00     0.000 OA
ATOM     15   S  A00 X   1      66.171  38.939  26.8140  0.00  0.00     0.000 S
ENDBRANCH 2 11
BRANCH 5 16
ATOM     16   C  A00 X   1      62.490  42.506  24.6130  0.00  0.00     0.000 C
ATOM     17   O  A00 X   1      62.237  42.736  25.7770  0.00  0.00     0.000 OA
ATOM     18   O  A00 X   1      63.057  43.355  23.9550  0.00  0.00     0.000 OA
ENDBRANCH 5 16
BRANCH 1 19
ATOM     19  O4  A00 X   2      65.315  41.429  23.3750  0.00  0.00     0.000 O
BRANCH 19 23
ATOM     20  C1  A00 X   2      66.556  39.510  19.7490  0.00  0.00     0.000 C
ATOM     21  C2  A00 X   2      67.464  39.344  20.9920  0.00  0.00     0.000 C
ATOM     22  C3  A00 X   2      66.698  39.702  22.2830  0.00  0.00     0.000 C
ATOM     23  C4  A00 X   2      66.080  41.114  22.1760  0.00  0.00     0.000 C
ATOM     24  C5  A00 X   2      65.213  41.156  20.8880  0.00  0.00     0.000 C
ATOM     25  O5  A00 X   2      66.062  40.876  19.7440  0.00  0.00     0.000 O
ATOM     26   O  A00 X   2      67.559  39.466  23.4110  0.00  0.00     0.000 O
ATOM     28  HD  A00 X   2      68.214  39.917  23.0680  0.00  0.00     0.000 HD
BRANCH 21 30
ATOM     28   N  A00 X   2      68.620  39.341  20.0910  0.00  0.00     0.000 N
ATOM     30  HD  A00 X   2      68.897  39.041  20.8550  0.00  0.00     0.000 HD
ATOM     30   O  A00 X   2      70.278  37.996  21.0400  0.00  0.00     0.000 OA
ATOM     31   S  A00 X   2      70.071  39.363  20.7190  0.00  0.00     0.000 S
ATOM     32   O  A00 X   2      70.891  39.866  19.6600  0.00  0.00     0.000 OA
ATOM     33   O  A00 X   2      70.046  40.290  21.8110  0.00  0.00     0.000 OA
ENDBRANCH 21 30
BRANCH 24 34
ATOM     34   C  A00 X   2      64.300  42.385  20.6670  0.00  0.00     0.000 C
ATOM     35   O  A00 X   2      64.634  44.700  17.8770  0.00  0.00     0.000 OA
ATOM     36   O  A00 X   2      64.875  43.298  19.7110  0.00  0.00     0.000 O
ATOM     37   O  A00 X   2      64.355  42.365  17.6300  0.00  0.00     0.000 OA
ATOM     38   S  A00 X   2      64.028  43.522  18.4050  0.00  0.00     0.000 S
ATOM     39   O  A00 X   2      62.668  43.677  18.8260  0.00  0.00     0.000 OA
ENDBRANCH 24 34
BRANCH 20 40
ATOM     40  O4  A00 X   3      65.461  38.605  19.9460  0.00  0.00     0.000 O
BRANCH 40 44
ATOM     41  C1  A00 X   3      61.886  38.040  19.7810  0.00  0.00     0.000 C
ATOM     42  C2  A00 X   3      62.919  37.004  20.2760  0.00  0.00     0.000 C
ATOM     43  C3  A00 X   3      64.073  36.839  19.2550  0.00  0.00     0.000 C
ATOM     44  C4  A00 X   3      64.709  38.147  18.8010  0.00  0.00     0.000 C
ATOM     45  C5  A00 X   3      63.610  39.132  18.3130  0.00  0.00     0.000 C
ATOM     46  O5  A00 X   3      62.537  39.249  19.3030  0.00  0.00     0.000 O
ATOM     47   O  A00 X   3      65.044  35.842  19.5680  0.00  0.00     0.000 O
ATOM     49  HD  A00 X   3      65.590  36.435  19.2520  0.00  0.00     0.000 HD
BRANCH 42 49
ATOM     49   O  A00 X   3      63.407  37.471  21.5530  0.00  0.00     0.000 O
ATOM     50   O  A00 X   3      65.026  36.745  23.1600  0.00  0.00     0.000 OA
ATOM     51   O  A00 X   3      63.630  35.133  22.1390  0.00  0.00     0.000 OA
ATOM     52   O  A00 X   3      62.656  36.683  23.6340  0.00  0.00     0.000 OA
ATOM     53   S  A00 X   3      63.704  36.460  22.6990  0.00  0.00     0.000 S
ENDBRANCH 42 49
BRANCH 45 54
ATOM     54   C  A00 X   3      63.103  38.768  16.9130  0.00  0.00     0.000 C
ATOM     55   O  A00 X   3      62.354  39.512  16.3130  0.00  0.00     0.000 OA
ATOM     56   O  A00 X   3      63.441  37.724  16.3770  0.00  0.00     0.000 OA
ENDBRANCH 45 54
BRANCH 41 57
ATOM     57  O4  A00 X   4      60.959  37.459  18.8360  0.00  0.00     0.000 O
BRANCH 57 61
ATOM     58  C1  A00 X   4      56.781  38.161  18.0060  0.00  0.00     0.000 C
ATOM     59  C2  A00 X   4      57.785  39.321  17.7900  0.00  0.00     0.000 C
ATOM     60  C3  A00 X   4      59.258  38.864  17.7670  0.00  0.00     0.000 C
ATOM     61  C4  A00 X   4      59.586  37.928  18.9500  0.00  0.00     0.000 C
ATOM     62  C5  A00 X   4      58.602  36.735  18.8480  0.00  0.00     0.000 C
ATOM     63  O5  A00 X   4      57.244  37.222  19.0030  0.00  0.00     0.000 O
BRANCH 59 66
ATOM     64   N  A00 X   4      57.696  40.293  18.8950  0.00  0.00     0.000 N
ATOM     66  HD  A00 X   4      57.439  39.997  19.6680  0.00  0.00     0.000 HD
ATOM     66   O  A00 X   4      55.795  41.250  17.7680  0.00  0.00     0.000 OA
ATOM     67   S  A00 X   4      56.843  41.626  18.6650  0.00  0.00     0.000 S
ATOM     68   O  A00 X   4      56.433  41.906  20.0100  0.00  0.00     0.000 OA
ATOM     69   O  A00 X   4      57.868  42.500  18.1680  0.00  0.00     0.000 OA
ENDBRANCH 59 66
BRANCH 62 70
ATOM     70   C  A00 X   4      58.847  35.622  19.8950  0.00  0.00     0.000 C
ATOM     71   O  A00 X   4      58.307  35.724  23.4730  0.00  0.00     0.000 OA
ATOM     72   O  A00 X   4      60.174  35.020  22.2230  0.00  0.00     0.000 OA
ATOM     73   O  A00 X   4      58.265  36.013  21.1490  0.00  0.00     0.000 O
ATOM     74   O  A00 X   4      59.722  37.401  22.4730  0.00  0.00     0.000 OA
ATOM     75   S  A00 X   4      59.201  36.074  22.4050  0.00  0.00     0.000 S
ENDBRANCH 62 70
ENDBRANCH 57 61
ENDBRANCH 41 57
ENDBRANCH 40 44
ENDBRANCH 20 40
ENDBRANCH 19 23
ENDBRANCH 1 19
TORSDOF 14
ENDMDL
MODEL 75
REMARK VINA RESULT:      -1.1     51.895     56.435
ROOT
ATOM      1  C1  A00 X   1      30.190  55.318  52.9790  0.00  0.00     0.000 C
ATOM      2  C2  A00 X   1      31.073  56.174  53.9260  0.00  0.00     0.000 C
ATOM      3  C3  A00 X   1      30.425  57.490  54.4680  0.00  0.00     0.000 C
ATOM      4  C4  A00 X   1      29.151  57.964  53.7220  0.00  0.00     0.000 C
ATOM      5  C5  A00 X   1      29.069  57.401  52.3040  0.00  0.00     0.000 C
ATOM      6  O5  A00 X   1      28.994  55.969  52.4810  0.00  0.00     0.000 O
ATOM      7   O  A00 X   1      31.375  58.547  54.3580  0.00  0.00     0.000 O
ATOM      9  HD  A00 X   1      30.607  58.869  54.1200  0.00  0.00     0.000 HD
ATOM      9   O  A00 X   1      27.967  57.626  54.4440  0.00  0.00     0.000 O
ATOM     11  HD  A00 X   1      27.199  57.948  54.2060  0.00  0.00     0.000 HD
ENDROOT
BRANCH 2 11
ATOM     11   O  A00 X   1      31.452  55.343  55.0410  0.00  0.00     0.000 O
ATOM     12   O  A00 X   1      32.933  56.126  56.7620  0.00  0.00     0.000 OA
ATOM     13   O  A00 X   1      33.764  55.904  54.4870  0.00  0.00     0.000 OA
ATOM     14   O  A00 X   1      33.202  53.974  55.7580  0.00  0.00     0.000 OA
ATOM     15   S  A00 X   1      32.939  55.370  55.5350  0.00  0.00     0.000 S
ENDBRANCH 2 11
BRANCH 5 16
ATOM     16   C  A00 X   1      30.196  57.844  51.3650  0.00  0.00     0.000 C
ATOM     17   O  A00 X   1      30.312  57.287  50.2920  0.00  0.00     0.000 OA
ATOM     18   O  A00 X   1      30.971  58.734  51.6520  0.00  0.00     0.000 OA
ENDBRANCH 5 16
BRANCH 1 19
ATOM     19  O4  A00 X   2      30.946  54.710  51.9040  0.00  0.00     0.000 O
BRANCH 19 23
ATOM     20  C1  A00 X   2      28.679  51.073  51.9610  0.00  0.00     0.000 C
ATOM     21  C2  A00 X   2      30.035  51.082  52.7070  0.00  0.00     0.000 C
ATOM     22  C3  A00 X   2      30.510  52.526  52.9670  0.00  0.00     0.000 C
ATOM     23  C4  A00 X   2      30.546  53.333  51.6490  0.00  0.00     0.000 C
ATOM     24  C5  A00 X   2      29.141  53.231  50.9930  0.00  0.00     0.000 C
ATOM     25  O5  A00 X   2      28.846  51.834  50.7350  0.00  0.00     0.000 O
ATOM     26   O  A00 X   2      31.734  52.481  53.7200  0.00  0.00     0.000 O
ATOM     28  HD  A00 X   2      32.105  51.914  53.1790  0.00  0.00     0.000 HD
BRANCH 21 30
ATOM     28   N  A00 X   2      30.219  49.681  52.3150  0.00  0.00     0.000 N
ATOM     30  HD  A00 X   2      30.785  49.839  52.9510  0.00  0.00     0.000 HD
ATOM     30   O  A00 X   2      31.431  48.607  54.0000  0.00  0.00     0.000 OA
ATOM     31   S  A00 X   2      31.597  48.977  52.6390  0.00  0.00     0.000 S
ATOM     32   O  A00 X   2      31.644  47.885  51.7170  0.00  0.00     0.000 OA
ATOM     33   O  A00 X   2      32.634  49.921  52.3450  0.00  0.00     0.000 OA
ENDBRANCH 21 30
BRANCH 24 34
ATOM     34   C  A00 X   2      28.841  54.139  49.7770  0.00  0.00     0.000 C
ATOM     35   O  A00 X   2      30.769  54.117  46.6880  0.00  0.00     0.000 OA
ATOM     36   O  A00 X   2      29.954  54.170  48.8610  0.00  0.00     0.000 O
ATOM     37   O  A00 X   2      29.739  52.201  47.6170  0.00  0.00     0.000 OA
ATOM     38   S  A00 X   2      29.652  53.616  47.4200  0.00  0.00     0.000 S
ATOM     39   O  A00 X   2      28.383  54.155  47.0360  0.00  0.00     0.000 OA
ENDBRANCH 24 34
BRANCH 20 40
ATOM     40  O4  A00 X   3      27.757  51.753  52.8250  0.00  0.00     0.000 O
BRANCH 40 44
ATOM     41  C1  A00 X   3      25.057  54.142  53.1850  0.00  0.00     0.000 C
ATOM     42  C2  A00 X   3      25.714  53.373  54.3520  0.00  0.00     0.000 C
ATOM     43  C3  A00 X   3      25.760  51.852  54.0590  0.00  0.00     0.000 C
ATOM     44  C4  A00 X   3      26.343  51.486  52.7000  0.00  0.00     0.000 C
ATOM     45  C5  A00 X   3      25.630  52.294  51.5790  0.00  0.00     0.000 C
ATOM     46  O5  A00 X   3      25.600  53.722  51.9030  0.00  0.00     0.000 O
ATOM     47   O  A00 X   3      26.269  51.030  55.1080  0.00  0.00     0.000 O
ATOM     49  HD  A00 X   3      26.634  50.607  54.4460  0.00  0.00     0.000 HD
BRANCH 42 49
ATOM     49   O  A00 X   3      27.040  53.918  54.5240  0.00  0.00     0.000 O
ATOM     50   O  A00 X   3      28.919  53.490  55.9450  0.00  0.00     0.000 OA
ATOM     51   O  A00 X   3      26.748  53.455  56.8820  0.00  0.00     0.000 OA
ATOM     52   O  A00 X   3      27.622  55.521  56.1390  0.00  0.00     0.000 OA
ATOM     53   S  A00 X   3      27.632  54.112  55.9510  0.00  0.00     0.000 S
ENDBRANCH 42 49
BRANCH 45 54
ATOM     54   C  A00 X   3      24.245  51.719  51.2600  0.00  0.00     0.000 C
ATOM     55   O  A00 X   3      23.706  50.943  52.0210  0.00  0.00     0.000 OA
ATOM     56   O  A00 X   3      23.660  52.031  50.2330  0.00  0.00     0.000 OA
ENDBRANCH 45 54
BRANCH 41 57
ATOM     57  O4  A00 X   4      23.614  54.090  53.2570  0.00  0.00     0.000 O
BRANCH 57 61
ATOM     58  C1  A00 X   4      20.512  56.839  52.0490  0.00  0.00     0.000 C
ATOM     59  C2  A00 X   4      21.458  56.266  50.9640  0.00  0.00     0.000 C
ATOM     60  C3  A00 X   4      22.272  55.046  51.4410  0.00  0.00     0.000 C
ATOM     61  C4  A00 X   4      22.930  55.297  52.8150  0.00  0.00     0.000 C
ATOM     62  C5  A00 X   4      21.779  55.648  53.7910  0.00  0.00     0.000 C
ATOM     63  O5  A00 X   4      21.138  56.873  53.3510  0.00  0.00     0.000 O
BRANCH 59 66
ATOM     64   N  A00 X   4      22.454  57.284  50.5840  0.00  0.00     0.000 N
ATOM     66  HD  A00 X   4      22.666  57.878  51.1780  0.00  0.00     0.000 HD
ATOM     66   O  A00 X   4      20.787  58.222  49.1200  0.00  0.00     0.000 OA
ATOM     67   S  A00 X   4      22.208  58.120  49.2420  0.00  0.00     0.000 S
ATOM     68   O  A00 X   4      22.889  59.339  49.5680  0.00  0.00     0.000 OA
ATOM     69   O  A00 X   4      22.903  57.292  48.2980  0.00  0.00     0.000 OA
ENDBRANCH 59 66
BRANCH 62 70
ATOM     70   C  A00 X   4      22.230  55.829  55.2600  0.00  0.00     0.000 C
ATOM     71   O  A00 X   4      24.269  58.455  56.6930  0.00  0.00     0.000 OA
ATOM     72   O  A00 X   4      24.423  56.114  56.8890  0.00  0.00     0.000 OA
ATOM     73   O  A00 X   4      22.813  57.132  55.4210  0.00  0.00     0.000 O
ATOM     74   O  A00 X   4      25.148  57.200  54.8310  0.00  0.00     0.000 OA
ATOM     75   S  A00 X   4      24.281  57.217  55.9650  0.00  0.00     0.000 S
ENDBRANCH 62 70
ENDBRANCH 57 61
ENDBRANCH 41 57
ENDBRANCH 40 44
ENDBRANCH 20 40
ENDBRANCH 19 23
ENDBRANCH 1 19
TORSDOF 14
ENDMDL
MODEL 76
REMARK VINA RESULT:      -1.1     35.937     39.880
ROOT
ATOM      1  C1  A00 X   1       6.232  23.686  61.3310  0.00  0.00     0.000 C
ATOM      2  C2  A00 X   1       4.781  23.176  61.5360  0.00  0.00     0.000 C
ATOM      3  C3  A00 X   1       3.641  24.196  61.2080  0.00  0.00     0.000 C
ATOM      4  C4  A00 X   1       4.085  25.676  61.0780  0.00  0.00     0.000 C
ATOM      5  C5  A00 X   1       5.400  25.950  61.8090  0.00  0.00     0.000 C
ATOM      6  O5  A00 X   1       6.372  25.115  61.1400  0.00  0.00     0.000 O
ATOM      7   O  A00 X   1       2.674  24.154  62.2550  0.00  0.00     0.000 O
ATOM      9  HD  A00 X   1       2.785  24.986  62.0430  0.00  0.00     0.000 HD
ATOM      9   O  A00 X   1       4.203  26.067  59.7110  0.00  0.00     0.000 O
ATOM     11  HD  A00 X   1       4.314  26.900  59.4990  0.00  0.00     0.000 HD
ENDROOT
BRANCH 2 11
ATOM     11   O  A00 X   1       4.609  22.002  60.7190  0.00  0.00     0.000 O
ATOM     12   O  A00 X   1       2.591  20.700  60.7730  0.00  0.00     0.000 OA
ATOM     13   O  A00 X   1       3.970  20.843  62.7720  0.00  0.00     0.000 OA
ATOM     14   O  A00 X   1       4.749  19.675  60.8520  0.00  0.00     0.000 OA
ATOM     15   S  A00 X   1       3.916  20.740  61.3400  0.00  0.00     0.000 S
ENDBRANCH 2 11
BRANCH 5 16
ATOM     16   C  A00 X   1       5.353  25.742  63.3260  0.00  0.00     0.000 C
ATOM     17   O  A00 X   1       4.271  25.696  63.8740  0.00  0.00     0.000 OA
ATOM     18   O  A00 X   1       6.358  25.614  63.9980  0.00  0.00     0.000 OA
ENDBRANCH 5 16
BRANCH 1 19
ATOM     19  O4  A00 X   2       7.147  23.195  62.3410  0.00  0.00     0.000 O
BRANCH 19 23
ATOM     20  C1  A00 X   2      10.425  22.783  59.6110  0.00  0.00     0.000 C
ATOM     21  C2  A00 X   2       9.598  21.514  59.9320  0.00  0.00     0.000 C
ATOM     22  C3  A00 X   2       8.237  21.888  60.5550  0.00  0.00     0.000 C
ATOM     23  C4  A00 X   2       8.435  22.802  61.7850  0.00  0.00     0.000 C
ATOM     24  C5  A00 X   2       9.289  24.020  61.3380  0.00  0.00     0.000 C
ATOM     25  O5  A00 X   2      10.566  23.540  60.8430  0.00  0.00     0.000 O
ATOM     26   O  A00 X   2       7.482  20.684  60.7700  0.00  0.00     0.000 O
ATOM     28  HD  A00 X   2       8.135  20.287  61.1780  0.00  0.00     0.000 HD
BRANCH 21 30
ATOM     28   N  A00 X   2      10.832  20.729  59.8200  0.00  0.00     0.000 N
ATOM     30  HD  A00 X   2      10.173  20.167  59.7850  0.00  0.00     0.000 HD
ATOM     30   O  A00 X   2      10.273  18.607  59.0170  0.00  0.00     0.000 OA
ATOM     31   S  A00 X   2      10.791  19.195  60.2010  0.00  0.00     0.000 S
ATOM     32   O  A00 X   2      12.157  18.880  60.4840  0.00  0.00     0.000 OA
ATOM     33   O  A00 X   2       9.997  19.074  61.3870  0.00  0.00     0.000 OA
ENDBRANCH 21 30
BRANCH 24 34
ATOM     34   C  A00 X   2       9.438  25.202  62.3250  0.00  0.00     0.000 C
ATOM     35   O  A00 X   2      12.611  26.286  63.7450  0.00  0.00     0.000 OA
ATOM     36   O  A00 X   2      10.721  25.175  62.9820  0.00  0.00     0.000 O
ATOM     37   O  A00 X   2      12.194  26.110  61.4240  0.00  0.00     0.000 OA
ATOM     38   S  A00 X   2      11.642  26.420  62.7080  0.00  0.00     0.000 S
ATOM     39   O  A00 X   2      10.801  27.575  62.8070  0.00  0.00     0.000 OA
ENDBRANCH 24 34
BRANCH 20 40
ATOM     40  O4  A00 X   3       9.638  23.532  58.6740  0.00  0.00     0.000 O
BRANCH 40 44
ATOM     41  C1  A00 X   3       8.356  26.750  57.6120  0.00  0.00     0.000 C
ATOM     42  C2  A00 X   3       8.043  25.406  56.9200  0.00  0.00     0.000 C
ATOM     43  C3  A00 X   3       9.345  24.622  56.6140  0.00  0.00     0.000 C
ATOM     44  C4  A00 X   3      10.291  24.477  57.8000  0.00  0.00     0.000 C
ATOM     45  C5  A00 X   3      10.561  25.869  58.4380  0.00  0.00     0.000 C
ATOM     46  O5  A00 X   3       9.306  26.576  58.7000  0.00  0.00     0.000 O
ATOM     47   O  A00 X   3       9.183  23.401  55.8950  0.00  0.00     0.000 O
ATOM     49  HD  A00 X   3       9.805  23.132  56.4340  0.00  0.00     0.000 HD
BRANCH 42 49
ATOM     49   O  A00 X   3       7.177  24.664  57.8070  0.00  0.00     0.000 O
ATOM     50   O  A00 X   3       6.158  22.498  57.8230  0.00  0.00     0.000 OA
ATOM     51   O  A00 X   3       6.198  23.725  55.8030  0.00  0.00     0.000 OA
ATOM     52   O  A00 X   3       4.845  24.514  57.5730  0.00  0.00     0.000 OA
ATOM     53   S  A00 X   3       6.023  23.793  57.2320  0.00  0.00     0.000 S
ENDBRANCH 42 49
BRANCH 45 54
ATOM     54   C  A00 X   3      11.555  26.690  57.6090  0.00  0.00     0.000 C
ATOM     55   O  A00 X   3      11.890  26.322  56.5020  0.00  0.00     0.000 OA
ATOM     56   O  A00 X   3      12.027  27.728  58.0470  0.00  0.00     0.000 OA
ENDBRANCH 45 54
BRANCH 41 57
ATOM     57  O4  A00 X   4       8.736  27.766  56.6580  0.00  0.00     0.000 O
BRANCH 57 61
ATOM     58  C1  A00 X   4       8.171  32.045  56.5370  0.00  0.00     0.000 C
ATOM     59  C2  A00 X   4       9.006  31.439  57.6940  0.00  0.00     0.000 C
ATOM     60  C3  A00 X   4       9.439  29.981  57.4410  0.00  0.00     0.000 C
ATOM     61  C4  A00 X   4       8.259  29.108  56.9610  0.00  0.00     0.000 C
ATOM     62  C5  A00 X   4       7.711  29.784  55.6800  0.00  0.00     0.000 C
ATOM     63  O5  A00 X   4       7.207  31.103  56.0140  0.00  0.00     0.000 O
BRANCH 59 66
ATOM     64   N  A00 X   4       8.218  31.401  58.9390  0.00  0.00     0.000 N
ATOM     66  HD  A00 X   4       7.358  31.335  58.8660  0.00  0.00     0.000 HD
ATOM     66   O  A00 X   4       8.789  33.719  59.2540  0.00  0.00     0.000 OA
ATOM     67   S  A00 X   4       8.450  32.559  60.0180  0.00  0.00     0.000 S
ATOM     68   O  A00 X   4       7.160  32.589  60.6450  0.00  0.00     0.000 OA
ATOM     69   O  A00 X   4       9.479  31.958  60.8170  0.00  0.00     0.000 OA
ENDBRANCH 59 66
BRANCH 62 70
ATOM     70   C  A00 X   4       6.582  28.990  54.9800  0.00  0.00     0.000 C
ATOM     71   O  A00 X   4       3.201  28.382  56.1230  0.00  0.00     0.000 OA
ATOM     72   O  A00 X   4       4.825  26.900  55.2800  0.00  0.00     0.000 OA
ATOM     73   O  A00 X   4       5.343  29.216  55.6720  0.00  0.00     0.000 O
ATOM     74   O  A00 X   4       5.033  27.747  57.5560  0.00  0.00     0.000 OA
ATOM     75   S  A00 X   4       4.572  27.967  56.2230  0.00  0.00     0.000 S
ENDBRANCH 62 70
ENDBRANCH 57 61
ENDBRANCH 41 57
ENDBRANCH 40 44
ENDBRANCH 20 40
ENDBRANCH 19 23
ENDBRANCH 1 19
TORSDOF 14
ENDMDL
MODEL 77
REMARK VINA RESULT:      -1.1     63.597     67.672
ROOT
ATOM      1  C1  A00 X   1      28.405  70.732  44.9810  0.00  0.00     0.000 C
ATOM      2  C2  A00 X   1      28.315  69.198  45.1930  0.00  0.00     0.000 C
ATOM      3  C3  A00 X   1      27.051  68.494  44.5990  0.00  0.00     0.000 C
ATOM      4  C4  A00 X   1      25.885  69.436  44.2040  0.00  0.00     0.000 C
ATOM      5  C5  A00 X   1      25.946  70.772  44.9460  0.00  0.00     0.000 C
ATOM      6  O5  A00 X   1      27.189  71.372  44.5190  0.00  0.00     0.000 O
ATOM      7   O  A00 X   1      26.530  67.591  45.5710  0.00  0.00     0.000 O
ATOM      9  HD  A00 X   1      25.854  67.989  45.2050  0.00  0.00     0.000 HD
ATOM      9   O  A00 X   1      25.854  69.668  42.7960  0.00  0.00     0.000 O
ATOM     11  HD  A00 X   1      25.178  70.066  42.4300  0.00  0.00     0.000 HD
ENDROOT
BRANCH 2 11
ATOM     11   O  A00 X   1      29.496  68.606  44.6180  0.00  0.00     0.000 O
ATOM     12   O  A00 X   1      29.770  66.226  44.4460  0.00  0.00     0.000 OA
ATOM     13   O  A00 X   1      29.632  67.253  46.6470  0.00  0.00     0.000 OA
ATOM     14   O  A00 X   1      31.522  67.636  45.2550  0.00  0.00     0.000 OA
ATOM     15   S  A00 X   1      30.116  67.337  45.2970  0.00  0.00     0.000 S
ENDBRANCH 2 11
BRANCH 5 16
ATOM     16   C  A00 X   1      25.803  70.675  46.4680  0.00  0.00     0.000 C
ATOM     17   O  A00 X   1      25.331  69.663  46.9440  0.00  0.00     0.000 OA
ATOM     18   O  A00 X   1      26.151  71.569  47.2140  0.00  0.00     0.000 OA
ENDBRANCH 5 16
BRANCH 1 19
ATOM     19  O4  A00 X   2      28.964  71.425  46.1240  0.00  0.00     0.000 O
BRANCH 19 23
ATOM     20  C1  A00 X   2      31.218  74.179  43.7350  0.00  0.00     0.000 C
ATOM     21  C2  A00 X   2      31.964  72.946  44.3000  0.00  0.00     0.000 C
ATOM     22  C3  A00 X   2      30.967  71.858  44.7490  0.00  0.00     0.000 C
ATOM     23  C4  A00 X   2      29.935  72.441  45.7400  0.00  0.00     0.000 C
ATOM     24  C5  A00 X   2      29.273  73.674  45.0660  0.00  0.00     0.000 C
ATOM     25  O5  A00 X   2      30.304  74.649  44.7610  0.00  0.00     0.000 O
ATOM     26   O  A00 X   2      31.708  70.711  45.2010  0.00  0.00     0.000 O
ATOM     28  HD  A00 X   2      32.214  71.182  45.7220  0.00  0.00     0.000 HD
BRANCH 21 30
ATOM     28   N  A00 X   2      33.161  73.782  44.4400  0.00  0.00     0.000 N
ATOM     30  HD  A00 X   2      33.422  72.958  44.5020  0.00  0.00     0.000 HD
ATOM     30   O  A00 X   2      35.036  72.424  44.1240  0.00  0.00     0.000 OA
ATOM     31   S  A00 X   2      34.429  73.176  45.1640  0.00  0.00     0.000 S
ATOM     32   O  A00 X   2      35.162  74.330  45.5840  0.00  0.00     0.000 OA
ATOM     33   O  A00 X   2      33.957  72.445  46.3030  0.00  0.00     0.000 OA
ENDBRANCH 21 30
BRANCH 24 34
ATOM     34   C  A00 X   2      28.041  74.305  45.7560  0.00  0.00     0.000 C
ATOM     35   O  A00 X   2      28.049  75.610  49.1550  0.00  0.00     0.000 OA
ATOM     36   O  A00 X   2      28.232  74.402  47.1810  0.00  0.00     0.000 O
ATOM     37   O  A00 X   2      29.542  76.319  47.4630  0.00  0.00     0.000 OA
ATOM     38   S  A00 X   2      28.219  75.863  47.7620  0.00  0.00     0.000 S
ATOM     39   O  A00 X   2      27.126  76.540  47.1300  0.00  0.00     0.000 OA
ENDBRANCH 24 34
BRANCH 20 40
ATOM     40  O4  A00 X   3      30.468  73.696  42.6100  0.00  0.00     0.000 O
BRANCH 40 44
ATOM     41  C1  A00 X   3      27.273  73.675  40.9030  0.00  0.00     0.000 C
ATOM     42  C2  A00 X   3      28.513  72.868  40.4600  0.00  0.00     0.000 C
ATOM     43  C3  A00 X   3      29.765  73.779  40.3700  0.00  0.00     0.000 C
ATOM     44  C4  A00 X   3      30.018  74.631  41.6070  0.00  0.00     0.000 C
ATOM     45  C5  A00 X   3      28.729  75.414  41.9870  0.00  0.00     0.000 C
ATOM     46  O5  A00 X   3      27.572  74.518  42.0490  0.00  0.00     0.000 O
ATOM     47   O  A00 X   3      30.954  73.158  39.8860  0.00  0.00     0.000 O
ATOM     49  HD  A00 X   3      31.324  73.648  40.4960  0.00  0.00     0.000 HD
BRANCH 42 49
ATOM     49   O  A00 X   3      28.698  71.811  41.4260  0.00  0.00     0.000 O
ATOM     50   O  A00 X   3      30.291  70.064  41.8000  0.00  0.00     0.000 OA
ATOM     51   O  A00 X   3      29.582  70.507  39.5890  0.00  0.00     0.000 OA
ATOM     52   O  A00 X   3      28.024  69.584  41.1080  0.00  0.00     0.000 OA
ATOM     53   S  A00 X   3      29.179  70.403  40.9690  0.00  0.00     0.000 S
ENDBRANCH 42 49
BRANCH 45 54
ATOM     54   C  A00 X   3      28.507  76.622  41.0680  0.00  0.00     0.000 C
ATOM     55   O  A00 X   3      27.708  77.486  41.3640  0.00  0.00     0.000 OA
ATOM     56   O  A00 X   3      29.129  76.734  40.0230  0.00  0.00     0.000 OA
ENDBRANCH 45 54
BRANCH 41 57
ATOM     57  O4  A00 X   4      26.672  74.382  39.7950  0.00  0.00     0.000 O
BRANCH 57 61
ATOM     58  C1  A00 X   4      22.601  75.488  38.8780  0.00  0.00     0.000 C
ATOM     59  C2  A00 X   4      23.248  76.046  40.1710  0.00  0.00     0.000 C
ATOM     60  C3  A00 X   4      24.781  75.886  40.2090  0.00  0.00     0.000 C
ATOM     61  C4  A00 X   4      25.219  74.456  39.8240  0.00  0.00     0.000 C
ATOM     62  C5  A00 X   4      24.639  74.188  38.4130  0.00  0.00     0.000 C
ATOM     63  O5  A00 X   4      23.191  74.230  38.4760  0.00  0.00     0.000 O
BRANCH 59 66
ATOM     64   N  A00 X   4      22.725  75.282  41.3180  0.00  0.00     0.000 N
ATOM     66  HD  A00 X   4      22.459  74.471  41.1700  0.00  0.00     0.000 HD
ATOM     66   O  A00 X   4      20.806  76.737  41.2830  0.00  0.00     0.000 OA
ATOM     67   S  A00 X   4      21.561  75.938  42.1970  0.00  0.00     0.000 S
ATOM     68   O  A00 X   4      20.902  74.758  42.6760  0.00  0.00     0.000 OA
ATOM     69   O  A00 X   4      22.346  76.616  43.1890  0.00  0.00     0.000 OA
ENDBRANCH 59 66
BRANCH 62 70
ATOM     70   C  A00 X   4      25.065  72.832  37.8020  0.00  0.00     0.000 C
ATOM     71   O  A00 X   4      24.148  69.491  38.8520  0.00  0.00     0.000 OA
ATOM     72   O  A00 X   4      26.255  70.422  38.3650  0.00  0.00     0.000 OA
ATOM     73   O  A00 X   4      24.272  71.782  38.3780  0.00  0.00     0.000 O
ATOM     74   O  A00 X   4      25.154  70.971  40.4680  0.00  0.00     0.000 OA
ATOM     75   S  A00 X   4      25.021  70.605  39.0950  0.00  0.00     0.000 S
ENDBRANCH 62 70
ENDBRANCH 57 61
ENDBRANCH 41 57
ENDBRANCH 40 44
ENDBRANCH 20 40
ENDBRANCH 19 23
ENDBRANCH 1 19
TORSDOF 14
ENDMDL
MODEL 78
REMARK VINA RESULT:      -1.1     57.695     63.008
ROOT
ATOM      1  C1  A00 X   1      53.410  51.553  24.9140  0.00  0.00     0.000 C
ATOM      2  C2  A00 X   1      52.910  52.525  26.0170  0.00  0.00     0.000 C
ATOM      3  C3  A00 X   1      54.015  53.328  26.7780  0.00  0.00     0.000 C
ATOM      4  C4  A00 X   1      55.463  52.800  26.6060  0.00  0.00     0.000 C
ATOM      5  C5  A00 X   1      55.495  51.327  26.1970  0.00  0.00     0.000 C
ATOM      6  O5  A00 X   1      54.834  51.288  24.9130  0.00  0.00     0.000 O
ATOM      7   O  A00 X   1      53.732  53.285  28.1740  0.00  0.00     0.000 O
ATOM      9  HD  A00 X   1      54.587  53.180  28.0840  0.00  0.00     0.000 HD
ATOM      9   O  A00 X   1      56.194  53.579  25.6600  0.00  0.00     0.000 O
ATOM     11  HD  A00 X   1      57.049  53.474  25.5700  0.00  0.00     0.000 HD
ENDROOT
BRANCH 2 11
ATOM     11   O  A00 X   1      51.995  53.453  25.4010  0.00  0.00     0.000 O
ATOM     12   O  A00 X   1      51.116  55.346  26.5890  0.00  0.00     0.000 OA
ATOM     13   O  A00 X   1      50.558  53.102  27.3450  0.00  0.00     0.000 OA
ATOM     14   O  A00 X   1      49.712  53.923  25.2790  0.00  0.00     0.000 OA
ATOM     15   S  A00 X   1      50.782  53.989  26.2360  0.00  0.00     0.000 S
ENDBRANCH 2 11
BRANCH 5 16
ATOM     16   C  A00 X   1      54.900  50.357  27.2230  0.00  0.00     0.000 C
ATOM     17   O  A00 X   1      54.751  50.739  28.3650  0.00  0.00     0.000 OA
ATOM     18   O  A00 X   1      54.567  49.225  26.9320  0.00  0.00     0.000 OA
ENDBRANCH 5 16
BRANCH 1 19
ATOM     19  O4  A00 X   2      52.644  50.325  24.8600  0.00  0.00     0.000 O
BRANCH 19 23
ATOM     20  C1  A00 X   2      52.706  50.112  20.5800  0.00  0.00     0.000 C
ATOM     21  C2  A00 X   2      51.447  50.716  21.2470  0.00  0.00     0.000 C
ATOM     22  C3  A00 X   2      51.739  51.121  22.7070  0.00  0.00     0.000 C
ATOM     23  C4  A00 X   2      52.322  49.927  23.4960  0.00  0.00     0.000 C
ATOM     24  C5  A00 X   2      53.561  49.404  22.7190  0.00  0.00     0.000 C
ATOM     25  O5  A00 X   2      53.140  48.989  21.3930  0.00  0.00     0.000 O
ATOM     26   O  A00 X   2      50.563  51.736  23.2590  0.00  0.00     0.000 O
ATOM     28  HD  A00 X   2      50.044  51.091  23.0060  0.00  0.00     0.000 HD
BRANCH 21 30
ATOM     28   N  A00 X   2      50.641  50.124  20.1740  0.00  0.00     0.000 N
ATOM     30  HD  A00 X   2      50.143  50.715  20.5650  0.00  0.00     0.000 HD
ATOM     30   O  A00 X   2      48.807  51.519  19.7890  0.00  0.00     0.000 OA
ATOM     31   S  A00 X   2      49.066  50.210  20.2730  0.00  0.00     0.000 S
ATOM     32   O  A00 X   2      48.616  49.151  19.4240  0.00  0.00     0.000 OA
ATOM     33   O  A00 X   2      48.712  49.939  21.6350  0.00  0.00     0.000 OA
ENDBRANCH 21 30
BRANCH 24 34
ATOM     34   C  A00 X   2      54.464  48.357  23.4130  0.00  0.00     0.000 C
ATOM     35   O  A00 X   2      55.029  44.990  22.1490  0.00  0.00     0.000 OA
ATOM     36   O  A00 X   2      54.221  47.033  22.8980  0.00  0.00     0.000 O
ATOM     37   O  A00 X   2      55.433  46.956  20.8980  0.00  0.00     0.000 OA
ATOM     38   S  A00 X   2      55.452  46.351  22.1950  0.00  0.00     0.000 S
ATOM     39   O  A00 X   2      56.587  46.606  23.0290  0.00  0.00     0.000 OA
ENDBRANCH 24 34
BRANCH 20 40
ATOM     40  O4  A00 X   3      53.700  51.146  20.6210  0.00  0.00     0.000 O
BRANCH 40 44
ATOM     41  C1  A00 X   3      57.143  52.089  21.2400  0.00  0.00     0.000 C
ATOM     42  C2  A00 X   3      56.020  53.070  20.8390  0.00  0.00     0.000 C
ATOM     43  C3  A00 X   3      55.261  52.564  19.5850  0.00  0.00     0.000 C
ATOM     44  C4  A00 X   3      54.788  51.118  19.6730  0.00  0.00     0.000 C
ATOM     45  C5  A00 X   3      55.972  50.194  20.0750  0.00  0.00     0.000 C
ATOM     46  O5  A00 X   3      56.665  50.716  21.2550  0.00  0.00     0.000 O
ATOM     47   O  A00 X   3      54.256  53.435  19.0710  0.00  0.00     0.000 O
ATOM     49  HD  A00 X   3      53.833  52.689  18.9460  0.00  0.00     0.000 HD
BRANCH 42 49
ATOM     49   O  A00 X   3      55.138  53.192  21.9760  0.00  0.00     0.000 O
ATOM     50   O  A00 X   3      53.097  54.341  22.4720  0.00  0.00     0.000 OA
ATOM     51   O  A00 X   3      54.773  55.470  21.2440  0.00  0.00     0.000 OA
ATOM     52   O  A00 X   3      55.188  54.965  23.5150  0.00  0.00     0.000 OA
ATOM     53   S  A00 X   3      54.502  54.567  22.3350  0.00  0.00     0.000 S
ENDBRANCH 42 49
BRANCH 45 54
ATOM     54   C  A00 X   3      56.911  49.928  18.8920  0.00  0.00     0.000 C
ATOM     55   O  A00 X   3      57.806  49.112  18.9830  0.00  0.00     0.000 OA
ATOM     56   O  A00 X   3      56.778  50.533  17.8390  0.00  0.00     0.000 OA
ENDBRANCH 45 54
BRANCH 41 57
ATOM     57  O4  A00 X   4      58.334  52.288  20.4460  0.00  0.00     0.000 O
BRANCH 57 61
ATOM     58  C1  A00 X   4      62.545  51.885  21.3090  0.00  0.00     0.000 C
ATOM     59  C2  A00 X   4      61.645  50.628  21.4060  0.00  0.00     0.000 C
ATOM     60  C3  A00 X   4      60.266  50.807  20.7390  0.00  0.00     0.000 C
ATOM     61  C4  A00 X   4      59.590  52.128  21.1650  0.00  0.00     0.000 C
ATOM     62  C5  A00 X   4      60.574  53.263  20.7840  0.00  0.00     0.000 C
ATOM     63  O5  A00 X   4      61.801  53.103  21.5400  0.00  0.00     0.000 O
BRANCH 59 66
ATOM     64   N  A00 X   4      61.357  50.305  22.8150  0.00  0.00     0.000 N
ATOM     66  HD  A00 X   4      61.355  50.959  23.3830  0.00  0.00     0.000 HD
ATOM     66   O  A00 X   4      63.503  49.217  22.9000  0.00  0.00     0.000 OA
ATOM     67   S  A00 X   4      62.217  49.155  23.5190  0.00  0.00     0.000 S
ATOM     68   O  A00 X   4      62.166  49.593  24.8840  0.00  0.00     0.000 OA
ATOM     69   O  A00 X   4      61.393  48.014  23.2370  0.00  0.00     0.000 OA
ENDBRANCH 59 66
BRANCH 62 70
ATOM     70   C  A00 X   4      60.023  54.687  21.0350  0.00  0.00     0.000 C
ATOM     71   O  A00 X   4      59.370  56.336  24.1910  0.00  0.00     0.000 OA
ATOM     72   O  A00 X   4      58.024  56.106  22.2730  0.00  0.00     0.000 OA
ATOM     73   O  A00 X   4      60.160  55.010  22.4280  0.00  0.00     0.000 O
ATOM     74   O  A00 X   4      58.325  54.205  23.7660  0.00  0.00     0.000 OA
ATOM     75   S  A00 X   4      58.865  55.407  23.2190  0.00  0.00     0.000 S
ENDBRANCH 62 70
ENDBRANCH 57 61
ENDBRANCH 41 57
ENDBRANCH 40 44
ENDBRANCH 20 40
ENDBRANCH 19 23
ENDBRANCH 1 19
TORSDOF 14
ENDMDL
MODEL 79
REMARK VINA RESULT:      -1.1     64.208     67.660
ROOT
ATOM      1  C1  A00 X   1      36.209  50.981  69.3250  0.00  0.00     0.000 C
ATOM      2  C2  A00 X   1      34.879  51.566  68.7790  0.00  0.00     0.000 C
ATOM      3  C3  A00 X   1      35.013  52.619  67.6300  0.00  0.00     0.000 C
ATOM      4  C4  A00 X   1      36.430  53.217  67.4320  0.00  0.00     0.000 C
ATOM      5  C5  A00 X   1      37.287  53.099  68.6920  0.00  0.00     0.000 C
ATOM      6  O5  A00 X   1      37.413  51.677  68.9180  0.00  0.00     0.000 O
ATOM      7   O  A00 X   1      34.146  53.716  67.9110  0.00  0.00     0.000 O
ATOM      9  HD  A00 X   1      34.888  54.047  67.6120  0.00  0.00     0.000 HD
ATOM      9   O  A00 X   1      37.104  52.608  66.3310  0.00  0.00     0.000 O
ATOM     11  HD  A00 X   1      37.846  52.940  66.0320  0.00  0.00     0.000 HD
ENDROOT
BRANCH 2 11
ATOM     11   O  A00 X   1      34.074  50.465  68.3150  0.00  0.00     0.000 O
ATOM     12   O  A00 X   1      32.005  50.810  67.1440  0.00  0.00     0.000 OA
ATOM     13   O  A00 X   1      32.202  51.543  69.4550  0.00  0.00     0.000 OA
ATOM     14   O  A00 X   1      32.191  49.225  68.9240  0.00  0.00     0.000 OA
ATOM     15   S  A00 X   1      32.516  50.549  68.4660  0.00  0.00     0.000 S
ENDBRANCH 2 11
BRANCH 5 16
ATOM     16   C  A00 X   1      36.761  53.868  69.9080  0.00  0.00     0.000 C
ATOM     17   O  A00 X   1      37.255  53.647  70.9950  0.00  0.00     0.000 OA
ATOM     18   O  A00 X   1      35.874  54.695  69.8230  0.00  0.00     0.000 OA
ENDBRANCH 5 16
BRANCH 1 19
ATOM     19  O4  A00 X   2      36.181  50.767  70.7580  0.00  0.00     0.000 O
BRANCH 19 23
ATOM     20  C1  A00 X   2      38.257  47.024  70.5440  0.00  0.00     0.000 C
ATOM     21  C2  A00 X   2      36.714  46.980  70.6660  0.00  0.00     0.000 C
ATOM     22  C3  A00 X   2      36.095  48.345  70.2990  0.00  0.00     0.000 C
ATOM     23  C4  A00 X   2      36.731  49.474  71.1410  0.00  0.00     0.000 C
ATOM     24  C5  A00 X   2      38.270  49.400  70.9480  0.00  0.00     0.000 C
ATOM     25  O5  A00 X   2      38.735  48.100  71.3950  0.00  0.00     0.000 O
ATOM     26   O  A00 X   2      34.663  48.232  70.3610  0.00  0.00     0.000 O
ATOM     28  HD  A00 X   2      34.674  47.876  71.1500  0.00  0.00     0.000 HD
BRANCH 21 30
ATOM     28   N  A00 X   2      36.849  45.765  71.4750  0.00  0.00     0.000 N
ATOM     30  HD  A00 X   2      36.022  45.807  71.2220  0.00  0.00     0.000 HD
ATOM     30   O  A00 X   2      34.982  44.417  71.0790  0.00  0.00     0.000 OA
ATOM     31   S  A00 X   2      35.555  45.155  72.1480  0.00  0.00     0.000 S
ATOM     32   O  A00 X   2      36.073  44.362  73.2200  0.00  0.00     0.000 OA
ATOM     33   O  A00 X   2      34.790  46.250  72.6650  0.00  0.00     0.000 OA
ENDBRANCH 21 30
BRANCH 24 34
ATOM     34   C  A00 X   2      39.127  50.563  71.5010  0.00  0.00     0.000 C
ATOM     35   O  A00 X   2      41.643  50.185  74.1050  0.00  0.00     0.000 OA
ATOM     36   O  A00 X   2      39.766  50.198  72.7410  0.00  0.00     0.000 O
ATOM     37   O  A00 X   2      41.633  48.949  72.0890  0.00  0.00     0.000 OA
ATOM     38   S  A00 X   2      41.338  50.203  72.7130  0.00  0.00     0.000 S
ATOM     39   O  A00 X   2      41.727  51.395  72.0220  0.00  0.00     0.000 OA
ENDBRANCH 24 34
BRANCH 20 40
ATOM     40  O4  A00 X   3      38.528  47.342  69.1710  0.00  0.00     0.000 O
BRANCH 40 44
ATOM     41  C1  A00 X   3      40.445  49.348  66.8420  0.00  0.00     0.000 C
ATOM     42  C2  A00 X   3      39.349  48.338  66.4390  0.00  0.00     0.000 C
ATOM     43  C3  A00 X   3      39.590  46.961  67.1100  0.00  0.00     0.000 C
ATOM     44  C4  A00 X   3      39.822  47.022  68.6150  0.00  0.00     0.000 C
ATOM     45  C5  A00 X   3      40.938  48.054  68.9400  0.00  0.00     0.000 C
ATOM     46  O5  A00 X   3      40.676  49.334  68.2780  0.00  0.00     0.000 O
ATOM     47   O  A00 X   3      38.686  45.922  66.7410  0.00  0.00     0.000 O
ATOM     49  HD  A00 X   3      38.750  45.721  67.5810  0.00  0.00     0.000 HD
BRANCH 42 49
ATOM     49   O  A00 X   3      38.082  48.906  66.8380  0.00  0.00     0.000 O
ATOM     50   O  A00 X   3      35.794  48.203  66.8440  0.00  0.00     0.000 OA
ATOM     51   O  A00 X   3      37.137  47.699  64.9650  0.00  0.00     0.000 OA
ATOM     52   O  A00 X   3      36.576  49.958  65.3760  0.00  0.00     0.000 OA
ATOM     53   S  A00 X   3      36.813  48.685  65.9650  0.00  0.00     0.000 S
ENDBRANCH 42 49
BRANCH 45 54
ATOM     54   C  A00 X   3      42.334  47.494  68.6390  0.00  0.00     0.000 C
ATOM     55   O  A00 X   3      43.318  48.197  68.7430  0.00  0.00     0.000 OA
ATOM     56   O  A00 X   3      42.479  46.333  68.2880  0.00  0.00     0.000 OA
ENDBRANCH 45 54
BRANCH 41 57
ATOM     57  O4  A00 X   4      41.644  49.179  66.0520  0.00  0.00     0.000 O
BRANCH 57 61
ATOM     58  C1  A00 X   4      44.606  51.952  64.5780  0.00  0.00     0.000 C
ATOM     59  C2  A00 X   4      44.413  51.818  66.1090  0.00  0.00     0.000 C
ATOM     60  C3  A00 X   4      43.609  50.568  66.5200  0.00  0.00     0.000 C
ATOM     61  C4  A00 X   4      42.320  50.415  65.6840  0.00  0.00     0.000 C
ATOM     62  C5  A00 X   4      42.767  50.360  64.2020  0.00  0.00     0.000 C
ATOM     63  O5  A00 X   4      43.404  51.614  63.8480  0.00  0.00     0.000 O
BRANCH 59 66
ATOM     64   N  A00 X   4      43.646  52.968  66.6210  0.00  0.00     0.000 N
ATOM     66  HD  A00 X   4      43.096  53.356  66.0760  0.00  0.00     0.000 HD
ATOM     66   O  A00 X   4      45.710  54.208  66.6410  0.00  0.00     0.000 OA
ATOM     67   S  A00 X   4      44.449  54.167  67.3120  0.00  0.00     0.000 S
ATOM     68   O  A00 X   4      43.567  55.263  67.0350  0.00  0.00     0.000 OA
ATOM     69   O  A00 X   4      44.432  53.728  68.6780  0.00  0.00     0.000 OA
ENDBRANCH 59 66
BRANCH 62 70
ATOM     70   C  A00 X   4      41.614  50.096  63.2040  0.00  0.00     0.000 C
ATOM     71   O  A00 X   4      38.827  52.242  62.3490  0.00  0.00     0.000 OA
ATOM     72   O  A00 X   4      38.882  49.968  62.9540  0.00  0.00     0.000 OA
ATOM     73   O  A00 X   4      40.876  51.311  62.9980  0.00  0.00     0.000 O
ATOM     74   O  A00 X   4      39.177  51.676  64.6660  0.00  0.00     0.000 OA
ATOM     75   S  A00 X   4      39.337  51.296  63.3000  0.00  0.00     0.000 S
ENDBRANCH 62 70
ENDBRANCH 57 61
ENDBRANCH 41 57
ENDBRANCH 40 44
ENDBRANCH 20 40
ENDBRANCH 19 23
ENDBRANCH 1 19
TORSDOF 14
ENDMDL
MODEL 80
REMARK VINA RESULT:      -1.1     62.379     67.293
ROOT
ATOM      1  C1  A00 X   1      35.775  56.214  62.8780  0.00  0.00     0.000 C
ATOM      2  C2  A00 X   1      34.942  56.744  64.0760  0.00  0.00     0.000 C
ATOM      3  C3  A00 X   1      35.672  56.776  65.4600  0.00  0.00     0.000 C
ATOM      4  C4  A00 X   1      36.981  55.950  65.5440  0.00  0.00     0.000 C
ATOM      5  C5  A00 X   1      37.037  54.848  64.4870  0.00  0.00     0.000 C
ATOM      6  O5  A00 X   1      37.016  55.550  63.2240  0.00  0.00     0.000 O
ATOM      7   O  A00 X   1      34.795  56.248  66.4520  0.00  0.00     0.000 O
ATOM      9  HD  A00 X   1      35.585  55.933  66.6150  0.00  0.00     0.000 HD
ATOM      9   O  A00 X   1      38.133  56.785  65.4330  0.00  0.00     0.000 O
ATOM     11  HD  A00 X   1      38.923  56.469  65.5970  0.00  0.00     0.000 HD
ENDROOT
BRANCH 2 11
ATOM     11   O  A00 X   1      34.499  58.075  63.7480  0.00  0.00     0.000 O
ATOM     12   O  A00 X   1      33.385  59.474  65.3510  0.00  0.00     0.000 OA
ATOM     13   O  A00 X   1      32.319  57.410  64.6270  0.00  0.00     0.000 OA
ATOM     14   O  A00 X   1      32.571  59.230  63.1170  0.00  0.00     0.000 OA
ATOM     15   S  A00 X   1      33.104  58.561  64.2720  0.00  0.00     0.000 S
ENDBRANCH 2 11
BRANCH 5 16
ATOM     16   C  A00 X   1      35.951  53.775  64.6100  0.00  0.00     0.000 C
ATOM     17   O  A00 X   1      35.351  53.674  65.6610  0.00  0.00     0.000 OA
ATOM     18   O  A00 X   1      35.665  53.029  63.6950  0.00  0.00     0.000 OA
ENDBRANCH 5 16
BRANCH 1 19
ATOM     19  O4  A00 X   2      34.989  55.420  61.9560  0.00  0.00     0.000 O
BRANCH 19 23
ATOM     20  C1  A00 X   2      36.912  57.005  58.4690  0.00  0.00     0.000 C
ATOM     21  C2  A00 X   2      35.557  57.629  58.8850  0.00  0.00     0.000 C
ATOM     22  C3  A00 X   2      35.215  57.277  60.3470  0.00  0.00     0.000 C
ATOM     23  C4  A00 X   2      35.263  55.747  60.5640  0.00  0.00     0.000 C
ATOM     24  C5  A00 X   2      36.656  55.244  60.0950  0.00  0.00     0.000 C
ATOM     25  O5  A00 X   2      36.822  55.572  58.6910  0.00  0.00     0.000 O
ATOM     26   O  A00 X   2      33.988  57.934  60.7050  0.00  0.00     0.000 O
ATOM     28  HD  A00 X   2      33.570  57.646  60.0030  0.00  0.00     0.000 HD
BRANCH 21 30
ATOM     28   N  A00 X   2      35.252  57.818  57.4630  0.00  0.00     0.000 N
ATOM     30  HD  A00 X   2      34.696  58.312  57.9070  0.00  0.00     0.000 HD
ATOM     30   O  A00 X   2      33.932  59.734  57.2510  0.00  0.00     0.000 OA
ATOM     31   S  A00 X   2      33.813  58.332  57.0580  0.00  0.00     0.000 S
ATOM     32   O  A00 X   2      33.676  57.919  55.6960  0.00  0.00     0.000 OA
ATOM     33   O  A00 X   2      32.868  57.641  57.8850  0.00  0.00     0.000 OA
ENDBRANCH 21 30
BRANCH 24 34
ATOM     34   C  A00 X   2      37.046  53.783  60.4170  0.00  0.00     0.000 C
ATOM     35   O  A00 X   2      37.623  51.221  57.8950  0.00  0.00     0.000 OA
ATOM     36   O  A00 X   2      36.861  52.928  59.2720  0.00  0.00     0.000 O
ATOM     37   O  A00 X   2      38.764  53.292  57.9610  0.00  0.00     0.000 OA
ATOM     38   S  A00 X   2      38.168  52.242  58.7290  0.00  0.00     0.000 S
ATOM     39   O  A00 X   2      38.884  51.770  59.8760  0.00  0.00     0.000 OA
ENDBRANCH 24 34
BRANCH 20 40
ATOM     40  O4  A00 X   3      37.887  57.568  59.3590  0.00  0.00     0.000 O
BRANCH 40 44
ATOM     41  C1  A00 X   3      40.762  57.017  61.4930  0.00  0.00     0.000 C
ATOM     42  C2  A00 X   3      40.059  58.377  61.2970  0.00  0.00     0.000 C
ATOM     43  C3  A00 X   3      39.896  58.707  59.7910  0.00  0.00     0.000 C
ATOM     44  C4  A00 X   3      39.275  57.589  58.9620  0.00  0.00     0.000 C
ATOM     45  C5  A00 X   3      40.038  56.257  59.2080  0.00  0.00     0.000 C
ATOM     46  O5  A00 X   3      40.178  55.992  60.6410  0.00  0.00     0.000 O
ATOM     47   O  A00 X   3      39.335  59.983  59.4900  0.00  0.00     0.000 O
ATOM     49  HD  A00 X   3      38.934  59.535  58.8670  0.00  0.00     0.000 HD
BRANCH 42 49
ATOM     49   O  A00 X   3      38.779  58.291  61.9610  0.00  0.00     0.000 O
ATOM     50   O  A00 X   3      36.876  59.715  62.2460  0.00  0.00     0.000 OA
ATOM     51   O  A00 X   3      39.039  60.654  62.4160  0.00  0.00     0.000 OA
ATOM     52   O  A00 X   3      38.326  59.154  64.0970  0.00  0.00     0.000 OA
ATOM     53   S  A00 X   3      38.207  59.519  62.7280  0.00  0.00     0.000 S
ENDBRANCH 42 49
BRANCH 45 54
ATOM     54   C  A00 X   3      41.373  56.221  58.4550  0.00  0.00     0.000 C
ATOM     55   O  A00 X   3      42.028  55.200  58.4050  0.00  0.00     0.000 OA
ATOM     56   O  A00 X   3      41.802  57.217  57.8930  0.00  0.00     0.000 OA
ENDBRANCH 45 54
BRANCH 41 57
ATOM     57  O4  A00 X   4      42.197  57.135  61.3690  0.00  0.00     0.000 O
BRANCH 57 61
ATOM     58  C1  A00 X   4      45.490  55.109  63.2910  0.00  0.00     0.000 C
ATOM     59  C2  A00 X   4      44.504  54.275  62.4350  0.00  0.00     0.000 C
ATOM     60  C3  A00 X   4      43.605  55.133  61.5230  0.00  0.00     0.000 C
ATOM     61  C4  A00 X   4      42.967  56.311  62.2900  0.00  0.00     0.000 C
ATOM     62  C5  A00 X   4      44.140  57.127  62.8880  0.00  0.00     0.000 C
ATOM     63  O5  A00 X   4      44.867  56.298  63.8290  0.00  0.00     0.000 O
BRANCH 59 66
ATOM     64   N  A00 X   4      43.542  53.465  63.2040  0.00  0.00     0.000 N
ATOM     66  HD  A00 X   4      43.287  53.771  63.9730  0.00  0.00     0.000 HD
ATOM     66   O  A00 X   4      45.315  51.874  63.5570  0.00  0.00     0.000 OA
ATOM     67   S  A00 X   4      43.889  51.927  63.4700  0.00  0.00     0.000 S
ATOM     68   O  A00 X   4      43.187  51.713  64.7020  0.00  0.00     0.000 OA
ATOM     69   O  A00 X   4      43.265  51.325  62.3260  0.00  0.00     0.000 OA
ENDBRANCH 59 66
BRANCH 62 70
ATOM     70   C  A00 X   4      43.703  58.424  63.6100  0.00  0.00     0.000 C
ATOM     71   O  A00 X   4      41.910  58.779  66.7350  0.00  0.00     0.000 OA
ATOM     72   O  A00 X   4      41.541  59.774  64.6330  0.00  0.00     0.000 OA
ATOM     73   O  A00 X   4      43.242  58.100  64.9320  0.00  0.00     0.000 O
ATOM     74   O  A00 X   4      40.925  57.443  64.9860  0.00  0.00     0.000 OA
ATOM     75   S  A00 X   4      41.786  58.529  65.3270  0.00  0.00     0.000 S
ENDBRANCH 62 70
ENDBRANCH 57 61
ENDBRANCH 41 57
ENDBRANCH 40 44
ENDBRANCH 20 40
ENDBRANCH 19 23
ENDBRANCH 1 19
TORSDOF 14
ENDMDL
MODEL 81
REMARK VINA RESULT:      -1.1     53.934     57.790
ROOT
ATOM      1  C1  A00 X   1      27.206  65.289  34.8340  0.00  0.00     0.000 C
ATOM      2  C2  A00 X   1      28.276  64.296  35.3600  0.00  0.00     0.000 C
ATOM      3  C3  A00 X   1      27.868  62.786  35.3700  0.00  0.00     0.000 C
ATOM      4  C4  A00 X   1      26.352  62.503  35.2100  0.00  0.00     0.000 C
ATOM      5  C5  A00 X   1      25.495  63.703  35.6120  0.00  0.00     0.000 C
ATOM      6  O5  A00 X   1      25.870  64.748  34.6860  0.00  0.00     0.000 O
ATOM      7   O  A00 X   1      28.257  62.215  36.6180  0.00  0.00     0.000 O
ATOM      9  HD  A00 X   1      27.472  61.902  36.4270  0.00  0.00     0.000 HD
ATOM      9   O  A00 X   1      26.033  62.107  33.8760  0.00  0.00     0.000 O
ATOM     11  HD  A00 X   1      25.249  61.794  33.6850  0.00  0.00     0.000 HD
ENDROOT
BRANCH 2 11
ATOM     11   O  A00 X   1      29.459  64.457  34.5520  0.00  0.00     0.000 O
ATOM     12   O  A00 X   1      31.485  63.253  35.0120  0.00  0.00     0.000 OA
ATOM     13   O  A00 X   1      30.657  64.856  36.6430  0.00  0.00     0.000 OA
ATOM     14   O  A00 X   1      31.496  65.596  34.5440  0.00  0.00     0.000 OA
ATOM     15   S  A00 X   1      30.856  64.526  35.2590  0.00  0.00     0.000 S
ENDBRANCH 2 11
BRANCH 5 16
ATOM     16   C  A00 X   1      25.608  64.117  37.0820  0.00  0.00     0.000 C
ATOM     17   O  A00 X   1      25.124  65.175  37.4270  0.00  0.00     0.000 OA
ATOM     18   O  A00 X   1      26.158  63.423  37.9140  0.00  0.00     0.000 OA
ENDBRANCH 5 16
BRANCH 1 19
ATOM     19  O4  A00 X   2      27.192  66.539  35.5660  0.00  0.00     0.000 O
BRANCH 19 23
ATOM     20  C1  A00 X   2      26.419  68.916  32.0840  0.00  0.00     0.000 C
ATOM     21  C2  A00 X   2      27.883  68.826  32.5770  0.00  0.00     0.000 C
ATOM     22  C3  A00 X   2      28.069  67.629  33.5340  0.00  0.00     0.000 C
ATOM     23  C4  A00 X   2      27.048  67.696  34.6920  0.00  0.00     0.000 C
ATOM     24  C5  A00 X   2      25.629  67.801  34.0700  0.00  0.00     0.000 C
ATOM     25  O5  A00 X   2      25.564  69.001  33.2560  0.00  0.00     0.000 O
ATOM     26   O  A00 X   2      29.454  67.548  33.9080  0.00  0.00     0.000 O
ATOM     28  HD  A00 X   2      29.496  68.385  34.1280  0.00  0.00     0.000 HD
BRANCH 21 30
ATOM     28   N  A00 X   2      28.076  70.212  32.1410  0.00  0.00     0.000 N
ATOM     30  HD  A00 X   2      28.864  69.876  32.2610  0.00  0.00     0.000 HD
ATOM     30   O  A00 X   2      30.297  70.459  31.4590  0.00  0.00     0.000 OA
ATOM     31   S  A00 X   2      29.439  70.934  32.4860  0.00  0.00     0.000 S
ATOM     32   O  A00 X   2      29.115  72.325  32.4070  0.00  0.00     0.000 OA
ATOM     33   O  A00 X   2      29.777  70.578  33.8320  0.00  0.00     0.000 OA
ENDBRANCH 21 30
BRANCH 24 34
ATOM     34   C  A00 X   2      24.411  67.651  35.0110  0.00  0.00     0.000 C
ATOM     35   O  A00 X   2      21.984  70.291  35.6430  0.00  0.00     0.000 OA
ATOM     36   O  A00 X   2      23.843  68.935  35.3390  0.00  0.00     0.000 O
ATOM     37   O  A00 X   2      22.521  69.478  33.4880  0.00  0.00     0.000 OA
ATOM     38   S  A00 X   2      22.357  69.151  34.8720  0.00  0.00     0.000 S
ATOM     39   O  A00 X   2      21.653  67.945  35.1910  0.00  0.00     0.000 OA
ENDBRANCH 24 34
BRANCH 20 40
ATOM     40  O4  A00 X   3      26.165  67.683  31.3950  0.00  0.00     0.000 O
BRANCH 40 44
ATOM     41  C1  A00 X   3      23.904  64.919  30.7890  0.00  0.00     0.000 C
ATOM     42  C2  A00 X   3      25.307  65.062  30.1610  0.00  0.00     0.000 C
ATOM     43  C3  A00 X   3      25.484  66.458  29.5100  0.00  0.00     0.000 C
ATOM     44  C4  A00 X   3      25.111  67.629  30.4100  0.00  0.00     0.000 C
ATOM     45  C5  A00 X   3      23.688  67.415  30.9990  0.00  0.00     0.000 C
ATOM     46  O5  A00 X   3      23.563  66.082  31.5930  0.00  0.00     0.000 O
ATOM     47   O  A00 X   3      26.714  66.672  28.8210  0.00  0.00     0.000 O
ATOM     49  HD  A00 X   3      26.646  67.459  29.1760  0.00  0.00     0.000 HD
BRANCH 42 49
ATOM     49   O  A00 X   3      26.268  64.846  31.2170  0.00  0.00     0.000 O
ATOM     50   O  A00 X   3      28.652  64.882  31.4250  0.00  0.00     0.000 OA
ATOM     51   O  A00 X   3      27.688  63.889  29.5080  0.00  0.00     0.000 OA
ATOM     52   O  A00 X   3      27.397  62.823  31.5970  0.00  0.00     0.000 OA
ATOM     53   S  A00 X   3      27.585  64.067  30.9350  0.00  0.00     0.000 S
ENDBRANCH 42 49
BRANCH 45 54
ATOM     54   C  A00 X   3      22.595  67.720  29.9680  0.00  0.00     0.000 C
ATOM     55   O  A00 X   3      22.884  67.967  28.8150  0.00  0.00     0.000 OA
ATOM     56   O  A00 X   3      21.416  67.722  30.2870  0.00  0.00     0.000 OA
ENDBRANCH 45 54
BRANCH 41 57
ATOM     57  O4  A00 X   4      22.908  64.577  29.7990  0.00  0.00     0.000 O
BRANCH 57 61
ATOM     58  C1  A00 X   4      19.333  62.160  29.9390  0.00  0.00     0.000 C
ATOM     59  C2  A00 X   4      19.416  63.414  30.8450  0.00  0.00     0.000 C
ATOM     60  C3  A00 X   4      20.554  64.379  30.4550  0.00  0.00     0.000 C
ATOM     61  C4  A00 X   4      21.890  63.636  30.2450  0.00  0.00     0.000 C
ATOM     62  C5  A00 X   4      21.629  62.571  29.1520  0.00  0.00     0.000 C
ATOM     63  O5  A00 X   4      20.641  61.624  29.6340  0.00  0.00     0.000 O
BRANCH 59 66
ATOM     64   N  A00 X   4      19.447  63.722  32.2860  0.00  0.00     0.000 N
ATOM     66  HD  A00 X   4      20.034  63.309  32.7710  0.00  0.00     0.000 HD
ATOM     66   O  A00 X   4      17.343  62.566  32.4760  0.00  0.00     0.000 OA
ATOM     67   S  A00 X   4      18.083  63.610  33.1140  0.00  0.00     0.000 S
ATOM     68   O  A00 X   4      18.596  63.296  34.4160  0.00  0.00     0.000 OA
ATOM     69   O  A00 X   4      17.596  64.953  32.9820  0.00  0.00     0.000 OA
ENDBRANCH 59 66
BRANCH 62 70
ATOM     70   C  A00 X   4      22.891  61.786  28.7190  0.00  0.00     0.000 C
ATOM     71   O  A00 X   4      24.774  59.323  30.5880  0.00  0.00     0.000 OA
ATOM     72   O  A00 X   4      25.492  61.222  29.3950  0.00  0.00     0.000 OA
ATOM     73   O  A00 X   4      23.152  60.743  29.6720  0.00  0.00     0.000 O
ATOM     74   O  A00 X   4      24.428  61.498  31.5700  0.00  0.00     0.000 OA
ATOM     75   S  A00 X   4      24.553  60.726  30.3760  0.00  0.00     0.000 S
ENDBRANCH 62 70
ENDBRANCH 57 61
ENDBRANCH 41 57
ENDBRANCH 40 44
ENDBRANCH 20 40
ENDBRANCH 19 23
ENDBRANCH 1 19
TORSDOF 14
ENDMDL
MODEL 82
REMARK VINA RESULT:      -1.1     70.877     74.959
ROOT
ATOM      1  C1  A00 X   1      73.123  22.425  58.1290  0.00  0.00     0.000 C
ATOM      2  C2  A00 X   1      73.807  23.791  57.8570  0.00  0.00     0.000 C
ATOM      3  C3  A00 X   1      75.059  23.759  56.9190  0.00  0.00     0.000 C
ATOM      4  C4  A00 X   1      75.677  22.358  56.6770  0.00  0.00     0.000 C
ATOM      5  C5  A00 X   1      75.318  21.369  57.7870  0.00  0.00     0.000 C
ATOM      6  O5  A00 X   1      73.878  21.255  57.7250  0.00  0.00     0.000 O
ATOM      7   O  A00 X   1      76.086  24.560  57.4990  0.00  0.00     0.000 O
ATOM      9  HD  A00 X   1      76.464  23.847  57.1840  0.00  0.00     0.000 HD
ATOM      9   O  A00 X   1      75.285  21.825  55.4120  0.00  0.00     0.000 O
ATOM     11  HD  A00 X   1      75.664  21.113  55.0980  0.00  0.00     0.000 HD
ENDROOT
BRANCH 2 11
ATOM     11   O  A00 X   1      72.818  24.671  57.2890  0.00  0.00     0.000 O
ATOM     12   O  A00 X   1      73.391  26.838  56.4270  0.00  0.00     0.000 OA
ATOM     13   O  A00 X   1      73.686  26.385  58.7980  0.00  0.00     0.000 OA
ATOM     14   O  A00 X   1      71.505  26.516  57.8590  0.00  0.00     0.000 OA
ATOM     15   S  A00 X   1      72.887  26.202  57.6180  0.00  0.00     0.000 S
ENDBRANCH 2 11
BRANCH 5 16
ATOM     16   C  A00 X   1      75.845  21.737  59.1780  0.00  0.00     0.000 C
ATOM     17   O  A00 X   1      76.740  22.552  59.2630  0.00  0.00     0.000 OA
ATOM     18   O  A00 X   1      75.396  21.248  60.1950  0.00  0.00     0.000 OA
ENDBRANCH 5 16
BRANCH 1 19
ATOM     19  O4  A00 X   2      72.642  22.299  59.4890  0.00  0.00     0.000 O
BRANCH 19 23
ATOM     20  C1  A00 X   2      69.030  20.292  58.3510  0.00  0.00     0.000 C
ATOM     21  C2  A00 X   2      68.949  21.816  58.6110  0.00  0.00     0.000 C
ATOM     22  C3  A00 X   2      70.354  22.454  58.5790  0.00  0.00     0.000 C
ATOM     23  C4  A00 X   2      71.304  21.728  59.5580  0.00  0.00     0.000 C
ATOM     24  C5  A00 X   2      71.282  20.215  59.2060  0.00  0.00     0.000 C
ATOM     25  O5  A00 X   2      69.924  19.723  59.3440  0.00  0.00     0.000 O
ATOM     26   O  A00 X   2      70.219  23.875  58.7570  0.00  0.00     0.000 O
ATOM     28  HD  A00 X   2      69.716  23.790  59.4570  0.00  0.00     0.000 HD
BRANCH 21 30
ATOM     28   N  A00 X   2      67.600  21.615  59.1490  0.00  0.00     0.000 N
ATOM     30  HD  A00 X   2      67.684  22.463  58.9930  0.00  0.00     0.000 HD
ATOM     30   O  A00 X   2      66.340  23.527  58.6850  0.00  0.00     0.000 OA
ATOM     31   S  A00 X   2      66.859  22.841  59.8150  0.00  0.00     0.000 S
ATOM     32   O  A00 X   2      65.875  22.228  60.6530  0.00  0.00     0.000 OA
ATOM     33   O  A00 X   2      67.825  23.539  60.6100  0.00  0.00     0.000 OA
ENDBRANCH 21 30
BRANCH 24 34
ATOM     34   C  A00 X   2      72.323  19.296  59.8880  0.00  0.00     0.000 C
ATOM     35   O  A00 X   2      72.659  18.918  63.4930  0.00  0.00     0.000 OA
ATOM     36   O  A00 X   2      72.461  19.612  61.2870  0.00  0.00     0.000 O
ATOM     37   O  A00 X   2      70.647  18.545  62.3070  0.00  0.00     0.000 OA
ATOM     38   S  A00 X   2      72.075  18.454  62.2780  0.00  0.00     0.000 S
ATOM     39   O  A00 X   2      72.652  17.256  61.7460  0.00  0.00     0.000 OA
ENDBRANCH 24 34
BRANCH 20 40
ATOM     40  O4  A00 X   3      69.612  20.152  57.0460  0.00  0.00     0.000 O
BRANCH 40 44
ATOM     41  C1  A00 X   3      72.019  18.441  54.9490  0.00  0.00     0.000 C
ATOM     42  C2  A00 X   3      71.106  19.595  54.4800  0.00  0.00     0.000 C
ATOM     43  C3  A00 X   3      69.627  19.318  54.8500  0.00  0.00     0.000 C
ATOM     44  C4  A00 X   3      69.400  18.931  56.3060  0.00  0.00     0.000 C
ATOM     45  C5  A00 X   3      70.349  17.764  56.7000  0.00  0.00     0.000 C
ATOM     46  O5  A00 X   3      71.732  18.064  56.3230  0.00  0.00     0.000 O
ATOM     47   O  A00 X   3      68.679  20.278  54.3890  0.00  0.00     0.000 O
ATOM     49  HD  A00 X   3      68.322  20.132  55.1640  0.00  0.00     0.000 HD
BRANCH 42 49
ATOM     49   O  A00 X   3      71.591  20.801  55.1100  0.00  0.00     0.000 O
ATOM     50   O  A00 X   3      70.936  23.102  55.1810  0.00  0.00     0.000 OA
ATOM     51   O  A00 X   3      70.836  21.950  53.1190  0.00  0.00     0.000 OA
ATOM     52   O  A00 X   3      72.958  22.395  54.0590  0.00  0.00     0.000 OA
ATOM     53   S  A00 X   3      71.584  22.151  54.3340  0.00  0.00     0.000 S
ENDBRANCH 42 49
BRANCH 45 54
ATOM     54   C  A00 X   3      69.853  16.420  56.1540  0.00  0.00     0.000 C
ATOM     55   O  A00 X   3      68.928  16.374  55.3690  0.00  0.00     0.000 OA
ATOM     56   O  A00 X   3      70.377  15.372  56.4990  0.00  0.00     0.000 OA
ENDBRANCH 45 54
BRANCH 41 57
ATOM     57  O4  A00 X   4      72.000  17.334  54.0200  0.00  0.00     0.000 O
BRANCH 57 61
ATOM     58  C1  A00 X   4      74.986  14.458  52.8160  0.00  0.00     0.000 C
ATOM     59  C2  A00 X   4      74.552  14.497  54.3020  0.00  0.00     0.000 C
ATOM     60  C3  A00 X   4      73.251  15.291  54.5410  0.00  0.00     0.000 C
ATOM     61  C4  A00 X   4      73.279  16.663  53.8320  0.00  0.00     0.000 C
ATOM     62  C5  A00 X   4      73.516  16.372  52.3300  0.00  0.00     0.000 C
ATOM     63  O5  A00 X   4      74.811  15.738  52.1660  0.00  0.00     0.000 O
BRANCH 59 66
ATOM     64   N  A00 X   4      75.580  15.172  55.1150  0.00  0.00     0.000 N
ATOM     66  HD  A00 X   4      76.073  15.766  54.7220  0.00  0.00     0.000 HD
ATOM     66   O  A00 X   4      76.777  13.082  55.1540  0.00  0.00     0.000 OA
ATOM     67   S  A00 X   4      76.609  14.266  55.9380  0.00  0.00     0.000 S
ATOM     68   O  A00 X   4      77.744  15.141  55.9850  0.00  0.00     0.000 OA
ATOM     69   O  A00 X   4      75.904  14.150  57.1830  0.00  0.00     0.000 OA
ENDBRANCH 59 66
BRANCH 62 70
ATOM     70   C  A00 X   4      73.466  17.628  51.4270  0.00  0.00     0.000 C
ATOM     71   O  A00 X   4      75.804  20.387  51.2600  0.00  0.00     0.000 OA
ATOM     72   O  A00 X   4      73.457  20.374  51.4460  0.00  0.00     0.000 OA
ATOM     73   O  A00 X   4      74.718  18.327  51.5170  0.00  0.00     0.000 O
ATOM     74   O  A00 X   4      74.822  19.836  53.3920  0.00  0.00     0.000 OA
ATOM     75   S  A00 X   4      74.689  19.828  51.9710  0.00  0.00     0.000 S
ENDBRANCH 62 70
ENDBRANCH 57 61
ENDBRANCH 41 57
ENDBRANCH 40 44
ENDBRANCH 20 40
ENDBRANCH 19 23
ENDBRANCH 1 19
TORSDOF 14
ENDMDL
MODEL 83
REMARK VINA RESULT:      -1.1     76.675     82.950
ROOT
ATOM      1  C1  A00 X   1      87.160  37.773  14.5970  0.00  0.00     0.000 C
ATOM      2  C2  A00 X   1      88.139  36.641  14.1850  0.00  0.00     0.000 C
ATOM      3  C3  A00 X   1      87.536  35.199  14.1250  0.00  0.00     0.000 C
ATOM      4  C4  A00 X   1      86.165  35.018  14.8250  0.00  0.00     0.000 C
ATOM      5  C5  A00 X   1      85.912  36.091  15.8850  0.00  0.00     0.000 C
ATOM      6  O5  A00 X   1      85.895  37.335  15.1500  0.00  0.00     0.000 O
ATOM      7   O  A00 X   1      88.439  34.299  14.7630  0.00  0.00     0.000 O
ATOM      9  HD  A00 X   1      87.639  34.074  15.0070  0.00  0.00     0.000 HD
ATOM      9   O  A00 X   1      85.094  35.010  13.8820  0.00  0.00     0.000 O
ATOM     11  HD  A00 X   1      84.294  34.785  14.1260  0.00  0.00     0.000 HD
ENDROOT
BRANCH 2 11
ATOM     11   O  A00 X   1      88.680  36.978  12.8930  0.00  0.00     0.000 O
ATOM     12   O  A00 X   1      90.051  35.447  11.6510  0.00  0.00     0.000 OA
ATOM     13   O  A00 X   1      90.850  36.299  13.7850  0.00  0.00     0.000 OA
ATOM     14   O  A00 X   1      90.653  37.746  11.9070  0.00  0.00     0.000 OA
ATOM     15   S  A00 X   1      90.154  36.564  12.5560  0.00  0.00     0.000 S
ENDBRANCH 2 11
BRANCH 5 16
ATOM     16   C  A00 X   1      86.896  36.086  17.0590  0.00  0.00     0.000 C
ATOM     17   O  A00 X   1      87.570  35.094  17.2480  0.00  0.00     0.000 OA
ATOM     18   O  A00 X   1      87.030  37.038  17.8020  0.00  0.00     0.000 OA
ENDBRANCH 5 16
BRANCH 1 19
ATOM     19  O4  A00 X   2      87.784  38.777  15.4340  0.00  0.00     0.000 O
BRANCH 19 23
ATOM     20  C1  A00 X   2      85.740  42.047  13.5660  0.00  0.00     0.000 C
ATOM     21  C2  A00 X   2      87.181  41.741  13.0910  0.00  0.00     0.000 C
ATOM     22  C3  A00 X   2      87.610  40.322  13.5180  0.00  0.00     0.000 C
ATOM     23  C4  A00 X   2      87.426  40.133  15.0410  0.00  0.00     0.000 C
ATOM     24  C5  A00 X   2      85.954  40.487  15.3890  0.00  0.00     0.000 C
ATOM     25  O5  A00 X   2      85.702  41.864  15.0060  0.00  0.00     0.000 O
ATOM     26   O  A00 X   2      88.924  40.061  12.9970  0.00  0.00     0.000 O
ATOM     28  HD  A00 X   2      89.248  40.803  13.3050  0.00  0.00     0.000 HD
BRANCH 21 30
ATOM     28   N  A00 X   2      87.381  43.180  12.8930  0.00  0.00     0.000 N
ATOM     30  HD  A00 X   2      88.020  42.777  12.4690  0.00  0.00     0.000 HD
ATOM     30   O  A00 X   2      88.865  43.469  11.1120  0.00  0.00     0.000 OA
ATOM     31   S  A00 X   2      88.825  43.700  12.5120  0.00  0.00     0.000 S
ATOM     32   O  A00 X   2      88.801  45.077  12.8970  0.00  0.00     0.000 OA
ATOM     33   O  A00 X   2      89.762  42.975  13.3180  0.00  0.00     0.000 OA
ENDBRANCH 21 30
BRANCH 24 34
ATOM     34   C  A00 X   2      85.447  40.161  16.8140  0.00  0.00     0.000 C
ATOM     35   O  A00 X   2      84.339  42.669  19.2090  0.00  0.00     0.000 OA
ATOM     36   O  A00 X   2      85.419  41.341  17.6410  0.00  0.00     0.000 O
ATOM     37   O  A00 X   2      83.439  42.429  17.0360  0.00  0.00     0.000 OA
ATOM     38   S  A00 X   2      83.997  41.756  18.1690  0.00  0.00     0.000 S
ATOM     39   O  A00 X   2      83.359  40.551  18.6050  0.00  0.00     0.000 OA
ENDBRANCH 24 34
BRANCH 20 40
ATOM     40  O4  A00 X   3      84.907  41.064  12.9340  0.00  0.00     0.000 O
BRANCH 40 44
ATOM     41  C1  A00 X   3      82.180  38.699  13.2420  0.00  0.00     0.000 C
ATOM     42  C2  A00 X   3      83.004  38.930  11.9560  0.00  0.00     0.000 C
ATOM     43  C3  A00 X   3      83.074  40.438  11.6050  0.00  0.00     0.000 C
ATOM     44  C4  A00 X   3      83.500  41.338  12.7580  0.00  0.00     0.000 C
ATOM     45  C5  A00 X   3      82.624  41.051  14.0090  0.00  0.00     0.000 C
ATOM     46  O5  A00 X   3      82.578  39.616  14.2980  0.00  0.00     0.000 O
ATOM     47   O  A00 X   3      83.739  40.764  10.3860  0.00  0.00     0.000 O
ATOM     49  HD  A00 X   3      84.036  41.427  10.8570  0.00  0.00     0.000 HD
BRANCH 42 49
ATOM     49   O  A00 X   3      84.319  38.382  12.1930  0.00  0.00     0.000 O
ATOM     50   O  A00 X   3      86.379  38.235  10.9820  0.00  0.00     0.000 OA
ATOM     51   O  A00 X   3      84.348  37.859   9.8300  0.00  0.00     0.000 OA
ATOM     52   O  A00 X   3      85.039  36.276  11.4440  0.00  0.00     0.000 OA
ATOM     53   S  A00 X   3      85.080  37.643  11.0540  0.00  0.00     0.000 S
ENDBRANCH 42 49
BRANCH 45 54
ATOM     54   C  A00 X   3      81.234  41.686  13.8870  0.00  0.00     0.000 C
ATOM     55   O  A00 X   3      80.476  41.706  14.8350  0.00  0.00     0.000 OA
ATOM     56   O  A00 X   3      80.864  42.182  12.8340  0.00  0.00     0.000 OA
ENDBRANCH 45 54
BRANCH 41 57
ATOM     57  O4  A00 X   4      80.760  38.696  12.9720  0.00  0.00     0.000 O
BRANCH 57 61
ATOM     58  C1  A00 X   4      77.444  36.544  14.7060  0.00  0.00     0.000 C
ATOM     59  C2  A00 X   4      78.260  37.501  15.6100  0.00  0.00     0.000 C
ATOM     60  C3  A00 X   4      79.166  38.468  14.8210  0.00  0.00     0.000 C
ATOM     61  C4  A00 X   4      79.987  37.731  13.7410  0.00  0.00     0.000 C
ATOM     62  C5  A00 X   4      78.962  37.015  12.8270  0.00  0.00     0.000 C
ATOM     63  O5  A00 X   4      78.231  36.034  13.6060  0.00  0.00     0.000 O
BRANCH 59 66
ATOM     64   N  A00 X   4      79.169  36.734  16.4800  0.00  0.00     0.000 N
ATOM     66  HD  A00 X   4      79.446  35.966  16.1900  0.00  0.00     0.000 HD
ATOM     66   O  A00 X   4      77.296  36.371  17.9490  0.00  0.00     0.000 OA
ATOM     67   S  A00 X   4      78.722  36.462  17.9910  0.00  0.00     0.000 S
ATOM     68   O  A00 X   4      79.412  35.232  18.2480  0.00  0.00     0.000 OA
ATOM     69   O  A00 X   4      79.301  37.607  18.6360  0.00  0.00     0.000 OA
ENDBRANCH 59 66
BRANCH 62 70
ATOM     70   C  A00 X   4      79.592  36.303  11.6060  0.00  0.00     0.000 C
ATOM     71   O  A00 X   4      81.675  33.342  11.5420  0.00  0.00     0.000 OA
ATOM     72   O  A00 X   4      81.964  35.444  10.5200  0.00  0.00     0.000 OA
ATOM     73   O  A00 X   4      80.129  35.036  12.0200  0.00  0.00     0.000 O
ATOM     74   O  A00 X   4      82.361  35.204  12.9120  0.00  0.00     0.000 OA
ATOM     75   S  A00 X   4      81.650  34.762  11.7560  0.00  0.00     0.000 S
ENDBRANCH 62 70
ENDBRANCH 57 61
ENDBRANCH 41 57
ENDBRANCH 40 44
ENDBRANCH 20 40
ENDBRANCH 19 23
ENDBRANCH 1 19
TORSDOF 14
ENDMDL
MODEL 84
REMARK VINA RESULT:      -1.1     79.076     83.633
ROOT
ATOM      1  C1  A00 X   1      80.098  24.696  58.4010  0.00  0.00     0.000 C
ATOM      2  C2  A00 X   1      80.963  25.588  57.4710  0.00  0.00     0.000 C
ATOM      3  C3  A00 X   1      81.133  27.079  57.9120  0.00  0.00     0.000 C
ATOM      4  C4  A00 X   1      80.140  27.573  58.9950  0.00  0.00     0.000 C
ATOM      5  C5  A00 X   1      78.867  26.727  59.0410  0.00  0.00     0.000 C
ATOM      6  O5  A00 X   1      79.320  25.402  59.4000  0.00  0.00     0.000 O
ATOM      7   O  A00 X   1      80.942  27.917  56.7750  0.00  0.00     0.000 O
ATOM      9  HD  A00 X   1      80.541  28.297  57.4420  0.00  0.00     0.000 HD
ATOM      9   O  A00 X   1      80.747  27.601  60.2870  0.00  0.00     0.000 O
ATOM     11  HD  A00 X   1      80.346  27.980  60.9540  0.00  0.00     0.000 HD
ENDROOT
BRANCH 2 11
ATOM     11   O  A00 X   1      82.265  24.978  57.3660  0.00  0.00     0.000 O
ATOM     12   O  A00 X   1      84.095  26.074  56.2620  0.00  0.00     0.000 OA
ATOM     13   O  A00 X   1      82.130  25.446  54.9720  0.00  0.00     0.000 OA
ATOM     14   O  A00 X   1      83.577  23.776  55.8550  0.00  0.00     0.000 OA
ATOM     15   S  A00 X   1      83.055  25.106  56.0190  0.00  0.00     0.000 S
ENDBRANCH 2 11
BRANCH 5 16
ATOM     16   C  A00 X   1      78.021  26.761  57.7640  0.00  0.00     0.000 C
ATOM     17   O  A00 X   1      78.211  27.654  56.9640  0.00  0.00     0.000 OA
ATOM     18   O  A00 X   1      77.175  25.924  57.5210  0.00  0.00     0.000 OA
ENDBRANCH 5 16
BRANCH 1 19
ATOM     19  O4  A00 X   2      79.282  23.748  57.6700  0.00  0.00     0.000 O
BRANCH 19 23
ATOM     20  C1  A00 X   2      79.872  20.587  60.5030  0.00  0.00     0.000 C
ATOM     21  C2  A00 X   2      80.765  20.589  59.2380  0.00  0.00     0.000 C
ATOM     22  C3  A00 X   2      80.749  21.973  58.5570  0.00  0.00     0.000 C
ATOM     23  C4  A00 X   2      79.298  22.420  58.2670  0.00  0.00     0.000 C
ATOM     24  C5  A00 X   2      78.507  22.357  59.6020  0.00  0.00     0.000 C
ATOM     25  O5  A00 X   2      78.537  20.993  60.0990  0.00  0.00     0.000 O
ATOM     26   O  A00 X   2      81.644  21.944  57.4320  0.00  0.00     0.000 O
ATOM     28  HD  A00 X   2      81.299  21.217  57.1120  0.00  0.00     0.000 HD
BRANCH 21 30
ATOM     28   N  A00 X   2      80.731  19.124  59.2580  0.00  0.00     0.000 N
ATOM     30  HD  A00 X   2      81.380  19.352  58.7320  0.00  0.00     0.000 HD
ATOM     30   O  A00 X   2      82.755  18.337  58.3970  0.00  0.00     0.000 OA
ATOM     31   S  A00 X   2      81.378  18.334  58.0510  0.00  0.00     0.000 S
ATOM     32   O  A00 X   2      80.745  17.053  58.1060  0.00  0.00     0.000 OA
ATOM     33   O  A00 X   2      81.008  19.020  56.8490  0.00  0.00     0.000 OA
ENDBRANCH 21 30
BRANCH 24 34
ATOM     34   C  A00 X   2      77.088  22.972  59.6350  0.00  0.00     0.000 C
ATOM     35   O  A00 X   2      74.051  21.068  60.2710  0.00  0.00     0.000 OA
ATOM     36   O  A00 X   2      76.073  21.952  59.5530  0.00  0.00     0.000 O
ATOM     37   O  A00 X   2      75.910  21.116  61.7310  0.00  0.00     0.000 OA
ATOM     38   S  A00 X   2      75.117  21.855  60.7970  0.00  0.00     0.000 S
ATOM     39   O  A00 X   2      74.765  23.200  61.1430  0.00  0.00     0.000 OA
ENDBRANCH 24 34
BRANCH 20 40
ATOM     40  O4  A00 X   3      80.432  21.579  61.3750  0.00  0.00     0.000 O
BRANCH 40 44
ATOM     41  C1  A00 X   3      79.886  24.349  63.6450  0.00  0.00     0.000 C
ATOM     42  C2  A00 X   3      81.272  23.795  63.2500  0.00  0.00     0.000 C
ATOM     43  C3  A00 X   3      81.329  22.257  63.4380  0.00  0.00     0.000 C
ATOM     44  C4  A00 X   3      80.177  21.497  62.7940  0.00  0.00     0.000 C
ATOM     45  C5  A00 X   3      78.820  22.109  63.2420  0.00  0.00     0.000 C
ATOM     46  O5  A00 X   3      78.814  23.561  63.0570  0.00  0.00     0.000 O
ATOM     47   O  A00 X   3      82.593  21.645  63.1850  0.00  0.00     0.000 O
ATOM     49  HD  A00 X   3      82.097  21.028  62.8350  0.00  0.00     0.000 HD
BRANCH 42 49
ATOM     49   O  A00 X   3      81.500  24.167  61.8730  0.00  0.00     0.000 O
ATOM     50   O  A00 X   3      83.216  23.810  60.2430  0.00  0.00     0.000 OA
ATOM     51   O  A00 X   3      83.842  24.305  62.4690  0.00  0.00     0.000 OA
ATOM     52   O  A00 X   3      82.803  25.997  61.1870  0.00  0.00     0.000 OA
ATOM     53   S  A00 X   3      82.920  24.595  61.3990  0.00  0.00     0.000 S
ENDBRANCH 42 49
BRANCH 45 54
ATOM     54   C  A00 X   3      78.447  21.681  64.6670  0.00  0.00     0.000 C
ATOM     55   O  A00 X   3      77.347  21.925  65.1190  0.00  0.00     0.000 OA
ATOM     56   O  A00 X   3      79.250  21.088  65.3720  0.00  0.00     0.000 OA
ENDBRANCH 45 54
BRANCH 41 57
ATOM     57  O4  A00 X   4      79.769  24.525  65.0750  0.00  0.00     0.000 O
BRANCH 57 61
ATOM     58  C1  A00 X   4      77.674  27.400  67.5210  0.00  0.00     0.000 C
ATOM     59  C2  A00 X   4      76.849  26.481  66.5850  0.00  0.00     0.000 C
ATOM     60  C3  A00 X   4      77.647  25.278  66.0450  0.00  0.00     0.000 C
ATOM     61  C4  A00 X   4      79.024  25.704  65.4930  0.00  0.00     0.000 C
ATOM     62  C5  A00 X   4      79.758  26.417  66.6560  0.00  0.00     0.000 C
ATOM     63  O5  A00 X   4      79.018  27.607  67.0300  0.00  0.00     0.000 O
BRANCH 59 66
ATOM     64   N  A00 X   4      76.311  27.092  65.3560  0.00  0.00     0.000 N
ATOM     66  HD  A00 X   4      76.776  27.724  64.9870  0.00  0.00     0.000 HD
ATOM     66   O  A00 X   4      74.600  28.095  66.7220  0.00  0.00     0.000 OA
ATOM     67   S  A00 X   4      74.812  27.650  65.3800  0.00  0.00     0.000 S
ATOM     68   O  A00 X   4      74.906  28.687  64.3940  0.00  0.00     0.000 OA
ATOM     69   O  A00 X   4      74.101  26.483  64.9420  0.00  0.00     0.000 OA
ENDBRANCH 59 66
BRANCH 62 70
ATOM     70   C  A00 X   4      81.214  26.826  66.3290  0.00  0.00     0.000 C
ATOM     71   O  A00 X   4      82.385  29.392  64.0580  0.00  0.00     0.000 OA
ATOM     72   O  A00 X   4      83.025  27.137  64.2870  0.00  0.00     0.000 OA
ATOM     73   O  A00 X   4      81.205  28.046  65.5700  0.00  0.00     0.000 O
ATOM     74   O  A00 X   4      80.911  27.684  63.2060  0.00  0.00     0.000 OA
ATOM     75   S  A00 X   4      81.904  28.043  64.1660  0.00  0.00     0.000 S
ENDBRANCH 62 70
ENDBRANCH 57 61
ENDBRANCH 41 57
ENDBRANCH 40 44
ENDBRANCH 20 40
ENDBRANCH 19 23
ENDBRANCH 1 19
TORSDOF 14
ENDMDL
MODEL 85
REMARK VINA RESULT:      -1.1     63.712     69.412
ROOT
ATOM      1  C1  A00 X   1      64.473  43.690  15.6410  0.00  0.00     0.000 C
ATOM      2  C2  A00 X   1      63.727  42.356  15.3690  0.00  0.00     0.000 C
ATOM      3  C3  A00 X   1      64.369  41.416  14.2970  0.00  0.00     0.000 C
ATOM      4  C4  A00 X   1      65.439  42.072  13.3860  0.00  0.00     0.000 C
ATOM      5  C5  A00 X   1      65.288  43.592  13.3230  0.00  0.00     0.000 C
ATOM      6  O5  A00 X   1      65.501  44.039  14.6810  0.00  0.00     0.000 O
ATOM      7   O  A00 X   1      63.340  40.938  13.4330  0.00  0.00     0.000 O
ATOM      9  HD  A00 X   1      64.023  41.129  12.9350  0.00  0.00     0.000 HD
ATOM      9   O  A00 X   1      66.760  41.735  13.8070  0.00  0.00     0.000 O
ATOM     11  HD  A00 X   1      67.443  41.927  13.3100  0.00  0.00     0.000 HD
ENDROOT
BRANCH 2 11
ATOM     11   O  A00 X   1      63.630  41.645  16.6190  0.00  0.00     0.000 O
ATOM     12   O  A00 X   1      62.415  39.583  16.8160  0.00  0.00     0.000 OA
ATOM     13   O  A00 X   1      61.215  41.622  16.2520  0.00  0.00     0.000 OA
ATOM     14   O  A00 X   1      62.167  41.343  18.4140  0.00  0.00     0.000 OA
ATOM     15   S  A00 X   1      62.259  41.001  17.0200  0.00  0.00     0.000 S
ENDBRANCH 2 11
BRANCH 5 16
ATOM     16   C  A00 X   1      63.973  44.088  12.7130  0.00  0.00     0.000 C
ATOM     17   O  A00 X   1      63.309  43.314  12.0550  0.00  0.00     0.000 OA
ATOM     18   O  A00 X   1      63.570  45.224  12.8700  0.00  0.00     0.000 OA
ENDBRANCH 5 16
BRANCH 1 19
ATOM     19  O4  A00 X   2      63.571  44.799  15.8770  0.00  0.00     0.000 O
BRANCH 19 23
ATOM     20  C1  A00 X   2      66.083  46.608  18.8400  0.00  0.00     0.000 C
ATOM     21  C2  A00 X   2      64.907  45.733  19.3380  0.00  0.00     0.000 C
ATOM     22  C3  A00 X   2      64.381  44.825  18.2070  0.00  0.00     0.000 C
ATOM     23  C4  A00 X   2      64.020  45.663  16.9600  0.00  0.00     0.000 C
ATOM     24  C5  A00 X   2      65.268  46.504  16.5750  0.00  0.00     0.000 C
ATOM     25  O5  A00 X   2      65.614  47.364  17.6920  0.00  0.00     0.000 O
ATOM     26   O  A00 X   2      63.340  43.986  18.7350  0.00  0.00     0.000 O
ATOM     28  HD  A00 X   2      62.915  44.652  19.0910  0.00  0.00     0.000 HD
BRANCH 21 30
ATOM     28   N  A00 X   2      64.763  46.642  20.4790  0.00  0.00     0.000 N
ATOM     30  HD  A00 X   2      64.323  45.922  20.6750  0.00  0.00     0.000 HD
ATOM     30   O  A00 X   2      63.998  45.401  22.3050  0.00  0.00     0.000 OA
ATOM     31   S  A00 X   2      63.537  46.443  21.4570  0.00  0.00     0.000 S
ATOM     32   O  A00 X   2      63.398  47.718  22.0890  0.00  0.00     0.000 OA
ATOM     33   O  A00 X   2      62.390  46.162  20.6460  0.00  0.00     0.000 OA
ENDBRANCH 21 30
BRANCH 24 34
ATOM     34   C  A00 X   2      65.246  47.258  15.2250  0.00  0.00     0.000 C
ATOM     35   O  A00 X   2      62.749  49.748  14.3170  0.00  0.00     0.000 OA
ATOM     36   O  A00 X   2      63.974  47.900  15.0050  0.00  0.00     0.000 O
ATOM     37   O  A00 X   2      64.091  49.870  16.2610  0.00  0.00     0.000 OA
ATOM     38   S  A00 X   2      64.025  49.467  14.8890  0.00  0.00     0.000 S
ATOM     39   O  A00 X   2      65.146  49.775  14.0520  0.00  0.00     0.000 OA
ENDBRANCH 24 34
BRANCH 20 40
ATOM     40  O4  A00 X   3      67.103  45.688  18.4250  0.00  0.00     0.000 O
BRANCH 40 44
ATOM     41  C1  A00 X   3      69.580  44.794  15.9380  0.00  0.00     0.000 C
ATOM     42  C2  A00 X   3      69.262  43.965  17.2010  0.00  0.00     0.000 C
ATOM     43  C3  A00 X   3      69.298  44.853  18.4710  0.00  0.00     0.000 C
ATOM     44  C4  A00 X   3      68.476  46.131  18.3740  0.00  0.00     0.000 C
ATOM     45  C5  A00 X   3      68.855  46.911  17.0830  0.00  0.00     0.000 C
ATOM     46  O5  A00 X   3      68.818  46.033  15.9120  0.00  0.00     0.000 O
ATOM     47   O  A00 X   3      69.104  44.174  19.7110  0.00  0.00     0.000 O
ATOM     49  HD  A00 X   3      68.648  44.886  19.9000  0.00  0.00     0.000 HD
BRANCH 42 49
ATOM     49   O  A00 X   3      67.958  43.377  17.0040  0.00  0.00     0.000 O
ATOM     50   O  A00 X   3      66.461  42.014  18.2820  0.00  0.00     0.000 OA
ATOM     51   O  A00 X   3      68.773  41.523  18.3280  0.00  0.00     0.000 OA
ATOM     52   O  A00 X   3      67.584  41.163  16.3170  0.00  0.00     0.000 OA
ATOM     53   S  A00 X   3      67.660  41.935  17.5090  0.00  0.00     0.000 S
ENDBRANCH 42 49
BRANCH 45 54
ATOM     54   C  A00 X   3      70.188  47.652  17.2390  0.00  0.00     0.000 C
ATOM     55   O  A00 X   3      70.538  48.477  16.4200  0.00  0.00     0.000 OA
ATOM     56   O  A00 X   3      70.922  47.426  18.1890  0.00  0.00     0.000 OA
ENDBRANCH 45 54
BRANCH 41 57
ATOM     57  O4  A00 X   4      71.003  44.976  15.7630  0.00  0.00     0.000 O
BRANCH 57 61
ATOM     58  C1  A00 X   4      73.516  45.302  12.2680  0.00  0.00     0.000 C
ATOM     59  C2  A00 X   4      72.413  46.366  12.4890  0.00  0.00     0.000 C
ATOM     60  C3  A00 X   4      71.833  46.362  13.9180  0.00  0.00     0.000 C
ATOM     61  C4  A00 X   4      71.467  44.936  14.3830  0.00  0.00     0.000 C
ATOM     62  C5  A00 X   4      72.764  44.097  14.2780  0.00  0.00     0.000 C
ATOM     63  O5  A00 X   4      73.185  44.040  12.8910  0.00  0.00     0.000 O
BRANCH 59 66
ATOM     64   N  A00 X   4      71.273  46.096  11.5960  0.00  0.00     0.000 N
ATOM     66  HD  A00 X   4      71.142  45.275  11.3520  0.00  0.00     0.000 HD
ATOM     66   O  A00 X   4      72.495  47.228   9.8570  0.00  0.00     0.000 OA
ATOM     67   S  A00 X   4      71.149  46.947  10.2470  0.00  0.00     0.000 S
ATOM     68   O  A00 X   4      70.449  46.012   9.4150  0.00  0.00     0.000 OA
ATOM     69   O  A00 X   4      70.343  48.040  10.7100  0.00  0.00     0.000 OA
ENDBRANCH 59 66
BRANCH 62 70
ATOM     70   C  A00 X   4      72.627  42.650  14.8100  0.00  0.00     0.000 C
ATOM     71   O  A00 X   4      70.731  39.899  13.4150  0.00  0.00     0.000 OA
ATOM     72   O  A00 X   4      70.819  40.744  15.6110  0.00  0.00     0.000 OA
ATOM     73   O  A00 X   4      71.985  41.837  13.8140  0.00  0.00     0.000 O
ATOM     74   O  A00 X   4      69.580  41.962  13.9020  0.00  0.00     0.000 OA
ATOM     75   S  A00 X   4      70.666  41.090  14.2150  0.00  0.00     0.000 S
ENDBRANCH 62 70
ENDBRANCH 57 61
ENDBRANCH 41 57
ENDBRANCH 40 44
ENDBRANCH 20 40
ENDBRANCH 19 23
ENDBRANCH 1 19
TORSDOF 14
ENDMDL
MODEL 86
REMARK VINA RESULT:      -1.1     60.945     65.805
ROOT
ATOM      1  C1  A00 X   1      65.779  34.760  26.4950  0.00  0.00     0.000 C
ATOM      2  C2  A00 X   1      65.087  33.390  26.7250  0.00  0.00     0.000 C
ATOM      3  C3  A00 X   1      64.299  32.806  25.5070  0.00  0.00     0.000 C
ATOM      4  C4  A00 X   1      63.995  33.808  24.3640  0.00  0.00     0.000 C
ATOM      5  C5  A00 X   1      64.025  35.259  24.8450  0.00  0.00     0.000 C
ATOM      6  O5  A00 X   1      65.382  35.468  25.2940  0.00  0.00     0.000 O
ATOM      7   O  A00 X   1      63.038  32.323  25.9670  0.00  0.00     0.000 O
ATOM      9  HD  A00 X   1      62.898  32.727  25.2140  0.00  0.00     0.000 HD
ATOM      9   O  A00 X   1      64.899  33.644  23.2710  0.00  0.00     0.000 O
ATOM     11  HD  A00 X   1      64.758  34.048  22.5190  0.00  0.00     0.000 HD
ENDROOT
BRANCH 2 11
ATOM     11   O  A00 X   1      66.102  32.448  27.1230  0.00  0.00     0.000 O
ATOM     12   O  A00 X   1      65.561  30.205  27.7890  0.00  0.00     0.000 OA
ATOM     13   O  A00 X   1      64.759  32.070  29.1280  0.00  0.00     0.000 OA
ATOM     14   O  A00 X   1      67.080  31.555  29.0460  0.00  0.00     0.000 OA
ATOM     15   S  A00 X   1      65.825  31.507  28.3460  0.00  0.00     0.000 S
ENDBRANCH 2 11
BRANCH 5 16
ATOM     16   C  A00 X   1      62.969  35.614  25.8970  0.00  0.00     0.000 C
ATOM     17   O  A00 X   1      62.021  34.870  26.0440  0.00  0.00     0.000 OA
ATOM     18   O  A00 X   1      63.050  36.608  26.5920  0.00  0.00     0.000 OA
ENDBRANCH 5 16
BRANCH 1 19
ATOM     19  O4  A00 X   2      65.720  35.621  27.6590  0.00  0.00     0.000 O
BRANCH 19 23
ATOM     20  C1  A00 X   2      69.627  37.263  27.0210  0.00  0.00     0.000 C
ATOM     21  C2  A00 X   2      69.495  36.109  28.0440  0.00  0.00     0.000 C
ATOM     22  C3  A00 X   2      68.165  35.351  27.8490  0.00  0.00     0.000 C
ATOM     23  C4  A00 X   2      66.971  36.330  27.8930  0.00  0.00     0.000 C
ATOM     24  C5  A00 X   2      67.231  37.443  26.8410  0.00  0.00     0.000 C
ATOM     25  O5  A00 X   2      68.468  38.124  27.1780  0.00  0.00     0.000 O
ATOM     26   O  A00 X   2      68.122  34.250  28.7730  0.00  0.00     0.000 O
ATOM     28  HD  A00 X   2      68.329  34.747  29.4520  0.00  0.00     0.000 HD
BRANCH 21 30
ATOM     28   N  A00 X   2      70.553  36.741  28.8380  0.00  0.00     0.000 N
ATOM     30  HD  A00 X   2      70.474  35.929  29.1280  0.00  0.00     0.000 HD
ATOM     30   O  A00 X   2      71.756  35.056  29.9200  0.00  0.00     0.000 OA
ATOM     31   S  A00 X   2      70.900  36.138  30.2570  0.00  0.00     0.000 S
ATOM     32   O  A00 X   2      71.536  37.222  30.9390  0.00  0.00     0.000 OA
ATOM     33   O  A00 X   2      69.659  35.810  30.8920  0.00  0.00     0.000 OA
ENDBRANCH 21 30
BRANCH 24 34
ATOM     34   C  A00 X   2      66.078  38.424  26.5220  0.00  0.00     0.000 C
ATOM     35   O  A00 X   2      66.226  42.013  27.1200  0.00  0.00     0.000 OA
ATOM     36   O  A00 X   2      66.274  39.693  27.1780  0.00  0.00     0.000 O
ATOM     37   O  A00 X   2      67.798  40.825  25.8120  0.00  0.00     0.000 OA
ATOM     38   S  A00 X   2      66.429  40.928  26.2170  0.00  0.00     0.000 S
ATOM     39   O  A00 X   2      65.426  40.783  25.2060  0.00  0.00     0.000 OA
ENDBRANCH 24 34
BRANCH 20 40
ATOM     40  O4  A00 X   3      69.592  36.641  25.7280  0.00  0.00     0.000 O
BRANCH 40 44
ATOM     41  C1  A00 X   3      68.347  36.697  22.3260  0.00  0.00     0.000 C
ATOM     42  C2  A00 X   3      69.257  35.596  22.9120  0.00  0.00     0.000 C
ATOM     43  C3  A00 X   3      70.500  36.214  23.6040  0.00  0.00     0.000 C
ATOM     44  C4  A00 X   3      70.185  37.322  24.6010  0.00  0.00     0.000 C
ATOM     45  C5  A00 X   3      69.271  38.391  23.9380  0.00  0.00     0.000 C
ATOM     46  O5  A00 X   3      68.118  37.763  23.2890  0.00  0.00     0.000 O
ATOM     47   O  A00 X   3      71.458  35.285  24.1080  0.00  0.00     0.000 O
ATOM     49  HD  A00 X   3      71.501  35.855  24.7580  0.00  0.00     0.000 HD
BRANCH 42 49
ATOM     49   O  A00 X   3      68.457  34.837  23.8450  0.00  0.00     0.000 O
ATOM     50   O  A00 X   3      68.817  33.013  25.3530  0.00  0.00     0.000 OA
ATOM     51   O  A00 X   3      69.813  32.936  23.2100  0.00  0.00     0.000 OA
ATOM     52   O  A00 X   3      67.461  32.765  23.3660  0.00  0.00     0.000 OA
ATOM     53   S  A00 X   3      68.638  33.296  23.9630  0.00  0.00     0.000 S
ENDBRANCH 42 49
BRANCH 45 54
ATOM     54   C  A00 X   3      70.063  39.311  23.0010  0.00  0.00     0.000 C
ATOM     55   O  A00 X   3      71.206  39.044  22.6910  0.00  0.00     0.000 OA
ATOM     56   O  A00 X   3      69.559  40.329  22.5520  0.00  0.00     0.000 OA
ENDBRANCH 45 54
BRANCH 41 57
ATOM     57  O4  A00 X   4      68.825  37.158  21.0430  0.00  0.00     0.000 O
BRANCH 57 61
ATOM     58  C1  A00 X   4      66.817  38.596  17.5010  0.00  0.00     0.000 C
ATOM     59  C2  A00 X   4      66.657  39.393  18.8190  0.00  0.00     0.000 C
ATOM     60  C3  A00 X   4      67.685  39.005  19.9020  0.00  0.00     0.000 C
ATOM     61  C4  A00 X   4      67.785  37.474  20.0730  0.00  0.00     0.000 C
ATOM     62  C5  A00 X   4      68.159  36.903  18.6820  0.00  0.00     0.000 C
ATOM     63  O5  A00 X   4      67.092  37.197  17.7440  0.00  0.00     0.000 O
BRANCH 59 66
ATOM     64   N  A00 X   4      65.337  39.128  19.4180  0.00  0.00     0.000 N
ATOM     66  HD  A00 X   4      64.968  38.363  19.2500  0.00  0.00     0.000 HD
ATOM     66   O  A00 X   4      64.432  40.767  17.9030  0.00  0.00     0.000 OA
ATOM     67   S  A00 X   4      64.172  40.201  19.1900  0.00  0.00     0.000 S
ATOM     68   O  A00 X   4      63.020  39.352  19.2700  0.00  0.00     0.000 OA
ATOM     69   O  A00 X   4      64.369  41.037  20.3400  0.00  0.00     0.000 OA
ENDBRANCH 59 66
BRANCH 62 70
ATOM     70   C  A00 X   4      68.415  35.377  18.6730  0.00  0.00     0.000 C
ATOM     71   O  A00 X   4      66.037  32.682  19.1110  0.00  0.00     0.000 OA
ATOM     72   O  A00 X   4      68.123  33.070  20.1340  0.00  0.00     0.000 OA
ATOM     73   O  A00 X   4      67.157  34.685  18.6360  0.00  0.00     0.000 O
ATOM     74   O  A00 X   4      66.184  34.378  20.8190  0.00  0.00     0.000 OA
ATOM     75   S  A00 X   4      66.850  33.659  19.7810  0.00  0.00     0.000 S
ENDBRANCH 62 70
ENDBRANCH 57 61
ENDBRANCH 41 57
ENDBRANCH 40 44
ENDBRANCH 20 40
ENDBRANCH 19 23
ENDBRANCH 1 19
TORSDOF 14
ENDMDL
MODEL 87
REMARK VINA RESULT:      -1.1     36.218     40.382
ROOT
ATOM      1  C1  A00 X   1       6.712  22.650  62.7180  0.00  0.00     0.000 C
ATOM      2  C2  A00 X   1       5.465  22.294  63.5700  0.00  0.00     0.000 C
ATOM      3  C3  A00 X   1       4.428  23.446  63.7840  0.00  0.00     0.000 C
ATOM      4  C4  A00 X   1       4.933  24.872  63.4450  0.00  0.00     0.000 C
ATOM      5  C5  A00 X   1       6.458  24.970  63.4910  0.00  0.00     0.000 C
ATOM      6  O5  A00 X   1       6.916  24.062  62.4640  0.00  0.00     0.000 O
ATOM      7   O  A00 X   1       4.045  23.467  65.1570  0.00  0.00     0.000 O
ATOM      9  HD  A00 X   1       4.144  24.291  64.9060  0.00  0.00     0.000 HD
ATOM      9   O  A00 X   1       4.461  25.304  62.1690  0.00  0.00     0.000 O
ATOM     11  HD  A00 X   1       4.559  26.127  61.9190  0.00  0.00     0.000 HD
ENDROOT
BRANCH 2 11
ATOM     11   O  A00 X   1       4.805  21.180  62.9370  0.00  0.00     0.000 O
ATOM     12   O  A00 X   1       2.899  20.105  63.9260  0.00  0.00     0.000 OA
ATOM     13   O  A00 X   1       5.043  20.015  65.0710  0.00  0.00     0.000 OA
ATOM     14   O  A00 X   1       4.720  18.849  63.0230  0.00  0.00     0.000 OA
ATOM     15   S  A00 X   1       4.330  19.978  63.8230  0.00  0.00     0.000 S
ENDBRANCH 2 11
BRANCH 5 16
ATOM     16   C  A00 X   1       7.083  24.707  64.8650  0.00  0.00     0.000 C
ATOM     17   O  A00 X   1       6.370  24.756  65.8470  0.00  0.00     0.000 OA
ATOM     18   O  A00 X   1       8.260  24.445  65.0060  0.00  0.00     0.000 OA
ENDBRANCH 5 16
BRANCH 1 19
ATOM     19  O4  A00 X   2       7.923  22.021  63.2050  0.00  0.00     0.000 O
BRANCH 19 23
ATOM     20  C1  A00 X   2       9.531  21.372  59.2860  0.00  0.00     0.000 C
ATOM     21  C2  A00 X   2       8.806  20.186  59.9670  0.00  0.00     0.000 C
ATOM     22  C3  A00 X   2       7.928  20.676  61.1370  0.00  0.00     0.000 C
ATOM     23  C4  A00 X   2       8.764  21.517  62.1280  0.00  0.00     0.000 C
ATOM     24  C5  A00 X   2       9.449  22.656  61.3240  0.00  0.00     0.000 C
ATOM     25  O5  A00 X   2      10.299  22.063  60.3070  0.00  0.00     0.000 O
ATOM     26   O  A00 X   2       7.226  19.550  61.6910  0.00  0.00     0.000 O
ATOM     28  HD  A00 X   2       7.945  19.072  61.7610  0.00  0.00     0.000 HD
BRANCH 21 30
ATOM     28   N  A00 X   2       9.759  19.281  59.3160  0.00  0.00     0.000 N
ATOM     30  HD  A00 X   2       9.099  18.793  59.5930  0.00  0.00     0.000 HD
ATOM     30   O  A00 X   2       8.665  17.261  58.8860  0.00  0.00     0.000 OA
ATOM     31   S  A00 X   2       9.727  17.746  59.6950  0.00  0.00     0.000 S
ATOM     32   O  A00 X   2      11.028  17.280  59.3270  0.00  0.00     0.000 OA
ATOM     33   O  A00 X   2       9.552  17.664  61.1140  0.00  0.00     0.000 OA
ENDBRANCH 21 30
BRANCH 24 34
ATOM     34   C  A00 X   2      10.161  23.777  62.1170  0.00  0.00     0.000 C
ATOM     35   O  A00 X   2      13.717  24.517  61.8620  0.00  0.00     0.000 OA
ATOM     36   O  A00 X   2      11.592  23.610  62.0890  0.00  0.00     0.000 O
ATOM     37   O  A00 X   2      12.240  24.476  60.0150  0.00  0.00     0.000 OA
ATOM     38   S  A00 X   2      12.392  24.779  61.4060  0.00  0.00     0.000 S
ATOM     39   O  A00 X   2      11.815  25.999  61.8850  0.00  0.00     0.000 OA
ENDBRANCH 24 34
BRANCH 20 40
ATOM     40  O4  A00 X   3       8.491  22.235  58.8020  0.00  0.00     0.000 O
BRANCH 40 44
ATOM     41  C1  A00 X   3       7.213  25.597  58.3720  0.00  0.00     0.000 C
ATOM     42  C2  A00 X   3       6.481  24.314  57.9250  0.00  0.00     0.000 C
ATOM     43  C3  A00 X   3       7.413  23.410  57.0770  0.00  0.00     0.000 C
ATOM     44  C4  A00 X   3       8.772  23.134  57.7070  0.00  0.00     0.000 C
ATOM     45  C5  A00 X   3       9.446  24.470  58.1260  0.00  0.00     0.000 C
ATOM     46  O5  A00 X   3       8.528  25.295  58.9140  0.00  0.00     0.000 O
ATOM     47   O  A00 X   3       6.815  22.234  56.5350  0.00  0.00     0.000 O
ATOM     49  HD  A00 X   3       7.582  21.887  56.7390  0.00  0.00     0.000 HD
BRANCH 42 49
ATOM     49   O  A00 X   3       6.039  23.639  59.1230  0.00  0.00     0.000 O
ATOM     50   O  A00 X   3       4.900  21.599  59.6430  0.00  0.00     0.000 OA
ATOM     51   O  A00 X   3       4.151  22.888  57.8080  0.00  0.00     0.000 OA
ATOM     52   O  A00 X   3       3.858  23.754  59.9880  0.00  0.00     0.000 OA
ATOM     53   S  A00 X   3       4.658  22.921  59.1570  0.00  0.00     0.000 S
ENDBRANCH 42 49
BRANCH 45 54
ATOM     54   C  A00 X   3      10.036  25.210  56.9190  0.00  0.00     0.000 C
ATOM     55   O  A00 X   3       9.813  24.827  55.7890  0.00  0.00     0.000 OA
ATOM     56   O  A00 X   3      10.742  26.195  57.0730  0.00  0.00     0.000 OA
ENDBRANCH 45 54
BRANCH 41 57
ATOM     57  O4  A00 X   4       7.223  26.597  57.3290  0.00  0.00     0.000 O
BRANCH 57 61
ATOM     58  C1  A00 X   4       7.075  30.912  57.3910  0.00  0.00     0.000 C
ATOM     59  C2  A00 X   4       8.271  30.201  58.0730  0.00  0.00     0.000 C
ATOM     60  C3  A00 X   4       8.407  28.715  57.6820  0.00  0.00     0.000 C
ATOM     61  C4  A00 X   4       7.059  27.970  57.7870  0.00  0.00     0.000 C
ATOM     62  C5  A00 X   4       6.070  28.727  56.8660  0.00  0.00     0.000 C
ATOM     63  O5  A00 X   4       5.894  30.078  57.3640  0.00  0.00     0.000 O
BRANCH 59 66
ATOM     64   N  A00 X   4       8.110  30.205  59.5380  0.00  0.00     0.000 N
ATOM     66  HD  A00 X   4       7.303  30.224  59.8510  0.00  0.00     0.000 HD
ATOM     66   O  A00 X   4       8.983  32.450  59.5270  0.00  0.00     0.000 OA
ATOM     67   S  A00 X   4       8.902  31.308  60.3840  0.00  0.00     0.000 S
ATOM     68   O  A00 X   4       8.028  31.444  61.5120  0.00  0.00     0.000 OA
ATOM     69   O  A00 X   4      10.115  30.592  60.6610  0.00  0.00     0.000 OA
ENDBRANCH 59 66
BRANCH 62 70
ATOM     70   C  A00 X   4       4.678  28.061  56.7500  0.00  0.00     0.000 C
ATOM     71   O  A00 X   4       2.084  27.789  59.2610  0.00  0.00     0.000 OA
ATOM     72   O  A00 X   4       3.030  26.158  57.8500  0.00  0.00     0.000 OA
ATOM     73   O  A00 X   4       3.889  28.404  57.9010  0.00  0.00     0.000 O
ATOM     74   O  A00 X   4       4.285  26.953  59.7820  0.00  0.00     0.000 OA
ATOM     75   S  A00 X   4       3.316  27.234  58.7730  0.00  0.00     0.000 S
ENDBRANCH 62 70
ENDBRANCH 57 61
ENDBRANCH 41 57
ENDBRANCH 40 44
ENDBRANCH 20 40
ENDBRANCH 19 23
ENDBRANCH 1 19
TORSDOF 14
ENDMDL
MODEL 88
REMARK VINA RESULT:      -1.1     53.022     57.537
ROOT
ATOM      1  C1  A00 X   1      39.727  39.128  58.9170  0.00  0.00     0.000 C
ATOM      2  C2  A00 X   1      40.879  38.999  57.8850  0.00  0.00     0.000 C
ATOM      3  C3  A00 X   1      40.875  40.039  56.7170  0.00  0.00     0.000 C
ATOM      4  C4  A00 X   1      39.550  40.820  56.5210  0.00  0.00     0.000 C
ATOM      5  C5  A00 X   1      38.351  40.080  57.1140  0.00  0.00     0.000 C
ATOM      6  O5  A00 X   1      38.634  39.997  58.5290  0.00  0.00     0.000 O
ATOM      7   O  A00 X   1      41.125  39.353  55.4920  0.00  0.00     0.000 O
ATOM      9  HD  A00 X   1      40.504  39.936  55.3360  0.00  0.00     0.000 HD
ATOM      9   O  A00 X   1      39.630  42.132  57.0780  0.00  0.00     0.000 O
ATOM     11  HD  A00 X   1      39.009  42.715  56.9210  0.00  0.00     0.000 HD
ENDROOT
BRANCH 2 11
ATOM     11   O  A00 X   1      42.124  39.105  58.6030  0.00  0.00     0.000 O
ATOM     12   O  A00 X   1      44.237  39.231  57.4690  0.00  0.00     0.000 OA
ATOM     13   O  A00 X   1      42.892  37.215  57.2590  0.00  0.00     0.000 OA
ATOM     14   O  A00 X   1      43.900  37.779  59.3380  0.00  0.00     0.000 OA
ATOM     15   S  A00 X   1      43.359  38.280  58.1030  0.00  0.00     0.000 S
ENDBRANCH 2 11
BRANCH 5 16
ATOM     16   C  A00 X   1      38.043  38.724  56.4700  0.00  0.00     0.000 C
ATOM     17   O  A00 X   1      38.519  38.477  55.3810  0.00  0.00     0.000 OA
ATOM     18   O  A00 X   1      37.349  37.888  57.0130  0.00  0.00     0.000 OA
ENDBRANCH 5 16
BRANCH 1 19
ATOM     19  O4  A00 X   2      39.242  37.844  59.3800  0.00  0.00     0.000 O
BRANCH 19 23
ATOM     20  C1  A00 X   2      38.752  39.147  63.4330  0.00  0.00     0.000 C
ATOM     21  C2  A00 X   2      40.045  38.372  63.0830  0.00  0.00     0.000 C
ATOM     22  C3  A00 X   2      40.281  38.356  61.5580  0.00  0.00     0.000 C
ATOM     23  C4  A00 X   2      39.036  37.811  60.8210  0.00  0.00     0.000 C
ATOM     24  C5  A00 X   2      37.812  38.656  61.2690  0.00  0.00     0.000 C
ATOM     25  O5  A00 X   2      37.657  38.528  62.7070  0.00  0.00     0.000 O
ATOM     26   O  A00 X   2      41.524  37.687  61.2900  0.00  0.00     0.000 O
ATOM     28  HD  A00 X   2      41.319  37.002  61.7790  0.00  0.00     0.000 HD
BRANCH 21 30
ATOM     28   N  A00 X   2      40.004  37.775  64.4210  0.00  0.00     0.000 N
ATOM     30  HD  A00 X   2      40.801  37.639  64.1100  0.00  0.00     0.000 HD
ATOM     30   O  A00 X   2      42.203  37.395  65.1150  0.00  0.00     0.000 OA
ATOM     31   S  A00 X   2      41.047  36.642  64.7780  0.00  0.00     0.000 S
ATOM     32   O  A00 X   2      40.436  35.951  65.8710  0.00  0.00     0.000 OA
ATOM     33   O  A00 X   2      41.144  35.781  63.6370  0.00  0.00     0.000 OA
ENDBRANCH 21 30
BRANCH 24 34
ATOM     34   C  A00 X   2      36.480  38.464  60.5060  0.00  0.00     0.000 C
ATOM     35   O  A00 X   2      34.738  35.280  60.2080  0.00  0.00     0.000 OA
ATOM     36   O  A00 X   2      36.217  37.069  60.2550  0.00  0.00     0.000 O
ATOM     37   O  A00 X   2      35.337  36.271  62.2700  0.00  0.00     0.000 OA
ATOM     38   S  A00 X   2      34.911  36.502  60.9230  0.00  0.00     0.000 S
ATOM     39   O  A00 X   2      33.889  37.481  60.7090  0.00  0.00     0.000 OA
ENDBRANCH 24 34
BRANCH 20 40
ATOM     40  O4  A00 X   3      38.956  40.482  62.9460  0.00  0.00     0.000 O
BRANCH 40 44
ATOM     41  C1  A00 X   3      37.585  43.317  61.1540  0.00  0.00     0.000 C
ATOM     42  C2  A00 X   3      39.017  43.247  61.7280  0.00  0.00     0.000 C
ATOM     43  C3  A00 X   3      38.998  42.815  63.2170  0.00  0.00     0.000 C
ATOM     44  C4  A00 X   3      38.178  41.563  63.5030  0.00  0.00     0.000 C
ATOM     45  C5  A00 X   3      36.753  41.712  62.9010  0.00  0.00     0.000 C
ATOM     46  O5  A00 X   3      36.818  42.130  61.4990  0.00  0.00     0.000 O
ATOM     47   O  A00 X   3      40.262  42.800  63.8770  0.00  0.00     0.000 O
ATOM     49  HD  A00 X   3      39.938  42.084  64.2400  0.00  0.00     0.000 HD
BRANCH 42 49
ATOM     49   O  A00 X   3      39.753  42.306  60.9150  0.00  0.00     0.000 O
ATOM     50   O  A00 X   3      41.959  41.378  60.9090  0.00  0.00     0.000 OA
ATOM     51   O  A00 X   3      41.692  43.681  61.3700  0.00  0.00     0.000 OA
ATOM     52   O  A00 X   3      41.224  42.907  59.1860  0.00  0.00     0.000 OA
ATOM     53   S  A00 X   3      41.247  42.569  60.5670  0.00  0.00     0.000 S
ENDBRANCH 42 49
BRANCH 45 54
ATOM     54   C  A00 X   3      35.865  42.620  63.7600  0.00  0.00     0.000 C
ATOM     55   O  A00 X   3      34.673  42.700  63.5480  0.00  0.00     0.000 OA
ATOM     56   O  A00 X   3      36.342  43.279  64.6720  0.00  0.00     0.000 OA
ENDBRANCH 45 54
BRANCH 41 57
ATOM     57  O4  A00 X   4      36.932  44.558  61.5000  0.00  0.00     0.000 O
BRANCH 57 61
ATOM     58  C1  A00 X   4      34.064  47.042  59.4390  0.00  0.00     0.000 C
ATOM     59  C2  A00 X   4      33.662  45.590  59.8010  0.00  0.00     0.000 C
ATOM     60  C3  A00 X   4      34.603  44.931  60.8310  0.00  0.00     0.000 C
ATOM     61  C4  A00 X   4      36.088  45.124  60.4570  0.00  0.00     0.000 C
ATOM     62  C5  A00 X   4      36.316  46.652  60.3530  0.00  0.00     0.000 C
ATOM     63  O5  A00 X   4      35.494  47.186  59.2830  0.00  0.00     0.000 O
BRANCH 59 66
ATOM     64   N  A00 X   4      33.733  44.742  58.5970  0.00  0.00     0.000 N
ATOM     66  HD  A00 X   4      34.289  44.975  57.9760  0.00  0.00     0.000 HD
ATOM     66   O  A00 X   4      31.544  45.562  58.0150  0.00  0.00     0.000 OA
ATOM     67   S  A00 X   4      32.372  44.412  57.8230  0.00  0.00     0.000 S
ATOM     68   O  A00 X   4      32.871  44.227  56.4920  0.00  0.00     0.000 OA
ATOM     69   O  A00 X   4      31.993  43.196  58.4840  0.00  0.00     0.000 OA
ENDBRANCH 59 66
BRANCH 62 70
ATOM     70   C  A00 X   4      37.787  47.056  60.0900  0.00  0.00     0.000 C
ATOM     71   O  A00 X   4      39.759  46.586  57.0900  0.00  0.00     0.000 OA
ATOM     72   O  A00 X   4      40.250  46.098  59.3410  0.00  0.00     0.000 OA
ATOM     73   O  A00 X   4      38.078  46.903  58.6910  0.00  0.00     0.000 O
ATOM     74   O  A00 X   4      38.723  44.658  58.1020  0.00  0.00     0.000 OA
ATOM     75   S  A00 X   4      39.268  45.965  58.2880  0.00  0.00     0.000 S
ENDBRANCH 62 70
ENDBRANCH 57 61
ENDBRANCH 41 57
ENDBRANCH 40 44
ENDBRANCH 20 40
ENDBRANCH 19 23
ENDBRANCH 1 19
TORSDOF 14
ENDMDL
MODEL 89
REMARK VINA RESULT:      -1.1     67.457     72.552
ROOT
ATOM      1  C1  A00 X   1      72.891  27.376   8.2460  0.00  0.00     0.000 C
ATOM      2  C2  A00 X   1      71.546  28.145   8.3390  0.00  0.00     0.000 C
ATOM      3  C3  A00 X   1      71.476  29.279   9.4140  0.00  0.00     0.000 C
ATOM      4  C4  A00 X   1      72.597  29.256  10.4850  0.00  0.00     0.000 C
ATOM      5  C5  A00 X   1      73.226  27.871  10.6320  0.00  0.00     0.000 C
ATOM      6  O5  A00 X   1      73.815  27.597   9.3410  0.00  0.00     0.000 O
ATOM      7   O  A00 X   1      70.241  29.166  10.1180  0.00  0.00     0.000 O
ATOM      9  HD  A00 X   1      70.853  29.348  10.7040  0.00  0.00     0.000 HD
ATOM      9   O  A00 X   1      73.611  30.219  10.1990  0.00  0.00     0.000 O
ATOM     11  HD  A00 X   1      74.223  30.401  10.7840  0.00  0.00     0.000 HD
ENDROOT
BRANCH 2 11
ATOM     11   O  A00 X   1      71.273  28.710   7.0420  0.00  0.00     0.000 O
ATOM     12   O  A00 X   1      69.203  29.825   6.5530  0.00  0.00     0.000 OA
ATOM     13   O  A00 X   1      69.178  27.454   7.0970  0.00  0.00     0.000 OA
ATOM     14   O  A00 X   1      70.144  28.213   5.0600  0.00  0.00     0.000 OA
ATOM     15   S  A00 X   1      69.841  28.539   6.4270  0.00  0.00     0.000 S
ENDBRANCH 2 11
BRANCH 5 16
ATOM     16   C  A00 X   1      72.273  26.774  11.1160  0.00  0.00     0.000 C
ATOM     17   O  A00 X   1      71.228  27.102  11.6390  0.00  0.00     0.000 OA
ATOM     18   O  A00 X   1      72.522  25.591  10.9890  0.00  0.00     0.000 OA
ENDBRANCH 5 16
BRANCH 1 19
ATOM     19  O4  A00 X   2      72.713  25.963   7.9820  0.00  0.00     0.000 O
BRANCH 19 23
ATOM     20  C1  A00 X   2      76.183  25.684   5.4830  0.00  0.00     0.000 C
ATOM     21  C2  A00 X   2      74.810  25.831   4.7840  0.00  0.00     0.000 C
ATOM     22  C3  A00 X   2      73.743  26.346   5.7730  0.00  0.00     0.000 C
ATOM     23  C4  A00 X   2      73.685  25.446   7.0280  0.00  0.00     0.000 C
ATOM     24  C5  A00 X   2      75.118  25.365   7.6210  0.00  0.00     0.000 C
ATOM     25  O5  A00 X   2      76.005  24.799   6.6210  0.00  0.00     0.000 O
ATOM     26   O  A00 X   2      72.507  26.531   5.0630  0.00  0.00     0.000 O
ATOM     28  HD  A00 X   2      72.532  25.741   4.7100  0.00  0.00     0.000 HD
BRANCH 21 30
ATOM     28   N  A00 X   2      75.309  24.973   3.7050  0.00  0.00     0.000 N
ATOM     30  HD  A00 X   2      74.597  25.364   3.4050  0.00  0.00     0.000 HD
ATOM     30   O  A00 X   2      74.285  25.639   1.7140  0.00  0.00     0.000 OA
ATOM     31   S  A00 X   2      74.303  24.511   2.5760  0.00  0.00     0.000 S
ATOM     32   O  A00 X   2      74.921  23.343   2.0300  0.00  0.00     0.000 OA
ATOM     33   O  A00 X   2      73.071  24.167   3.2220  0.00  0.00     0.000 OA
ENDBRANCH 21 30
BRANCH 24 34
ATOM     34   C  A00 X   2      75.292  24.711   9.0120  0.00  0.00     0.000 C
ATOM     35   O  A00 X   2      77.218  21.681   9.6170  0.00  0.00     0.000 OA
ATOM     36   O  A00 X   2      75.789  23.363   8.8970  0.00  0.00     0.000 O
ATOM     37   O  A00 X   2      78.092  23.617   8.5760  0.00  0.00     0.000 OA
ATOM     38   S  A00 X   2      77.190  23.106   9.5630  0.00  0.00     0.000 S
ATOM     39   O  A00 X   2      77.160  23.761  10.8360  0.00  0.00     0.000 OA
ENDBRANCH 24 34
BRANCH 20 40
ATOM     40  O4  A00 X   3      76.526  26.998   5.9450  0.00  0.00     0.000 O
BRANCH 40 44
ATOM     41  C1  A00 X   3      77.841  29.074   8.6070  0.00  0.00     0.000 C
ATOM     42  C2  A00 X   3      77.323  29.603   7.2520  0.00  0.00     0.000 C
ATOM     43  C3  A00 X   3      77.977  28.841   6.0720  0.00  0.00     0.000 C
ATOM     44  C4  A00 X   3      77.912  27.323   6.1840  0.00  0.00     0.000 C
ATOM     45  C5  A00 X   3      78.454  26.868   7.5680  0.00  0.00     0.000 C
ATOM     46  O5  A00 X   3      77.817  27.620   8.6510  0.00  0.00     0.000 O
ATOM     47   O  A00 X   3      77.638  29.305   4.7660  0.00  0.00     0.000 O
ATOM     49  HD  A00 X   3      77.636  28.458   4.5880  0.00  0.00     0.000 HD
BRANCH 42 49
ATOM     49   O  A00 X   3      75.887  29.440   7.2550  0.00  0.00     0.000 O
ATOM     50   O  A00 X   3      74.095  29.839   5.7190  0.00  0.00     0.000 OA
ATOM     51   O  A00 X   3      75.820  31.445   5.9020  0.00  0.00     0.000 OA
ATOM     52   O  A00 X   3      74.354  31.153   7.7320  0.00  0.00     0.000 OA
ATOM     53   S  A00 X   3      74.972  30.524   6.6160  0.00  0.00     0.000 S
ENDBRANCH 42 49
BRANCH 45 54
ATOM     54   C  A00 X   3      79.986  26.915   7.6210  0.00  0.00     0.000 C
ATOM     55   O  A00 X   3      80.591  26.356   8.5130  0.00  0.00     0.000 OA
ATOM     56   O  A00 X   3      80.623  27.515   6.7700  0.00  0.00     0.000 OA
ENDBRANCH 45 54
BRANCH 41 57
ATOM     57  O4  A00 X   4      79.120  29.651   8.9520  0.00  0.00     0.000 O
BRANCH 57 61
ATOM     58  C1  A00 X   4      80.959  30.686  12.7180  0.00  0.00     0.000 C
ATOM     59  C2  A00 X   4      80.597  29.203  12.4530  0.00  0.00     0.000 C
ATOM     60  C3  A00 X   4      80.290  28.901  10.9720  0.00  0.00     0.000 C
ATOM     61  C4  A00 X   4      79.311  29.931  10.3680  0.00  0.00     0.000 C
ATOM     62  C5  A00 X   4      79.969  31.320  10.5560  0.00  0.00     0.000 C
ATOM     63  O5  A00 X   4      80.113  31.592  11.9730  0.00  0.00     0.000 O
BRANCH 59 66
ATOM     64   N  A00 X   4      79.387  28.762  13.1700  0.00  0.00     0.000 N
ATOM     66  HD  A00 X   4      78.778  29.356  13.3300  0.00  0.00     0.000 HD
ATOM     66   O  A00 X   4      80.760  28.519  15.1330  0.00  0.00     0.000 OA
ATOM     67   S  A00 X   4      79.569  27.981  14.5540  0.00  0.00     0.000 S
ATOM     68   O  A00 X   4      78.347  28.336  15.2140  0.00  0.00     0.000 OA
ATOM     69   O  A00 X   4      79.608  26.627  14.0770  0.00  0.00     0.000 OA
ENDBRANCH 59 66
BRANCH 62 70
ATOM     70   C  A00 X   4      79.181  32.485   9.9100  0.00  0.00     0.000 C
ATOM     71   O  A00 X   4      76.002  33.896  10.9140  0.00  0.00     0.000 OA
ATOM     72   O  A00 X   4      76.767  33.186   8.8030  0.00  0.00     0.000 OA
ATOM     73   O  A00 X   4      78.103  32.868  10.7780  0.00  0.00     0.000 O
ATOM     74   O  A00 X   4      76.123  31.529  10.4700  0.00  0.00     0.000 OA
ATOM     75   S  A00 X   4      76.646  32.830  10.2000  0.00  0.00     0.000 S
ENDBRANCH 62 70
ENDBRANCH 57 61
ENDBRANCH 41 57
ENDBRANCH 40 44
ENDBRANCH 20 40
ENDBRANCH 19 23
ENDBRANCH 1 19
TORSDOF 14
ENDMDL
MODEL 90
REMARK VINA RESULT:      -1.1     83.682     88.900
ROOT
ATOM      1  C1  A00 X   1      79.556  57.408  10.3580  0.00  0.00     0.000 C
ATOM      2  C2  A00 X   1      79.934  57.390  11.8630  0.00  0.00     0.000 C
ATOM      3  C3  A00 X   1      81.463  57.446  12.1880  0.00  0.00     0.000 C
ATOM      4  C4  A00 X   1      82.411  57.144  10.9990  0.00  0.00     0.000 C
ATOM      5  C5  A00 X   1      81.721  56.333   9.9020  0.00  0.00     0.000 C
ATOM      6  O5  A00 X   1      80.651  57.185   9.4350  0.00  0.00     0.000 O
ATOM      7   O  A00 X   1      81.753  56.477  13.1930  0.00  0.00     0.000 O
ATOM      9  HD  A00 X   1      82.395  56.444  12.6140  0.00  0.00     0.000 HD
ATOM      9   O  A00 X   1      82.952  58.343  10.4450  0.00  0.00     0.000 O
ATOM     11  HD  A00 X   1      83.595  58.309   9.8660  0.00  0.00     0.000 HD
ENDROOT
BRANCH 2 11
ATOM     11   O  A00 X   1      79.279  58.509  12.4930  0.00  0.00     0.000 O
ATOM     12   O  A00 X   1      79.713  59.113  14.7760  0.00  0.00     0.000 OA
ATOM     13   O  A00 X   1      78.685  56.963  14.2890  0.00  0.00     0.000 OA
ATOM     14   O  A00 X   1      77.488  58.984  13.9130  0.00  0.00     0.000 OA
ATOM     15   S  A00 X   1      78.783  58.362  13.9720  0.00  0.00     0.000 S
ENDBRANCH 2 11
BRANCH 5 16
ATOM     16   C  A00 X   1      81.252  54.938  10.3260  0.00  0.00     0.000 C
ATOM     17   O  A00 X   1      81.715  54.451  11.3370  0.00  0.00     0.000 OA
ATOM     18   O  A00 X   1      80.432  54.305   9.6910  0.00  0.00     0.000 OA
ENDBRANCH 5 16
BRANCH 1 19
ATOM     19  O4  A00 X   2      78.427  56.554  10.0530  0.00  0.00     0.000 O
BRANCH 19 23
ATOM     20  C1  A00 X   2      76.712  59.311   7.2550  0.00  0.00     0.000 C
ATOM     21  C2  A00 X   2      76.136  59.300   8.6910  0.00  0.00     0.000 C
ATOM     22  C3  A00 X   2      77.106  58.603   9.6680  0.00  0.00     0.000 C
ATOM     23  C4  A00 X   2      77.471  57.191   9.1560  0.00  0.00     0.000 C
ATOM     24  C5  A00 X   2      78.017  57.337   7.7090  0.00  0.00     0.000 C
ATOM     25  O5  A00 X   2      76.987  57.935   6.8800  0.00  0.00     0.000 O
ATOM     26   O  A00 X   2      76.559  58.678  10.9950  0.00  0.00     0.000 O
ATOM     28  HD  A00 X   2      75.785  58.378  10.7470  0.00  0.00     0.000 HD
BRANCH 21 30
ATOM     28   N  A00 X   2      74.817  59.598   8.1230  0.00  0.00     0.000 N
ATOM     30  HD  A00 X   2      74.768  59.764   8.9720  0.00  0.00     0.000 HD
ATOM     30   O  A00 X   2      73.631  60.881   9.6730  0.00  0.00     0.000 OA
ATOM     31   S  A00 X   2      73.560  59.593   9.0810  0.00  0.00     0.000 S
ATOM     32   O  A00 X   2      72.457  59.397   8.1910  0.00  0.00     0.000 OA
ATOM     33   O  A00 X   2      73.699  58.467   9.9560  0.00  0.00     0.000 OA
ENDBRANCH 21 30
BRANCH 24 34
ATOM     34   C  A00 X   2      78.668  56.098   7.0510  0.00  0.00     0.000 C
ATOM     35   O  A00 X   2      77.414  54.495   4.0320  0.00  0.00     0.000 OA
ATOM     36   O  A00 X   2      77.776  55.480   6.1020  0.00  0.00     0.000 O
ATOM     37   O  A00 X   2      77.983  56.786   4.1720  0.00  0.00     0.000 OA
ATOM     38   S  A00 X   2      78.287  55.459   4.6150  0.00  0.00     0.000 S
ATOM     39   O  A00 X   2      79.666  55.077   4.6670  0.00  0.00     0.000 OA
ENDBRANCH 24 34
BRANCH 20 40
ATOM     40  O4  A00 X   3      77.945  60.041   7.3380  0.00  0.00     0.000 O
BRANCH 40 44
ATOM     41  C1  A00 X   3      81.439  60.324   6.4220  0.00  0.00     0.000 C
ATOM     42  C2  A00 X   3      80.684  61.317   7.3320  0.00  0.00     0.000 C
ATOM     43  C3  A00 X   3      79.366  61.788   6.6670  0.00  0.00     0.000 C
ATOM     44  C4  A00 X   3      78.480  60.662   6.1490  0.00  0.00     0.000 C
ATOM     45  C5  A00 X   3      79.307  59.710   5.2400  0.00  0.00     0.000 C
ATOM     46  O5  A00 X   3      80.547  59.299   5.9030  0.00  0.00     0.000 O
ATOM     47   O  A00 X   3      78.626  62.777   7.3810  0.00  0.00     0.000 O
ATOM     49  HD  A00 X   3      77.951  62.311   7.1030  0.00  0.00     0.000 HD
BRANCH 42 49
ATOM     49   O  A00 X   3      80.432  60.638   8.5820  0.00  0.00     0.000 O
ATOM     50   O  A00 X   3      79.328  61.156  10.6420  0.00  0.00     0.000 OA
ATOM     51   O  A00 X   3      80.674  62.810   9.6220  0.00  0.00     0.000 OA
ATOM     52   O  A00 X   3      81.730  60.896  10.5220  0.00  0.00     0.000 OA
ATOM     53   S  A00 X   3      80.542  61.408   9.9300  0.00  0.00     0.000 S
ENDBRANCH 42 49
BRANCH 45 54
ATOM     54   C  A00 X   3      79.538  60.312   3.8490  0.00  0.00     0.000 C
ATOM     55   O  A00 X   3      79.997  59.637   2.9500  0.00  0.00     0.000 OA
ATOM     56   O  A00 X   3      79.266  61.481   3.6200  0.00  0.00     0.000 OA
ENDBRANCH 45 54
BRANCH 41 57
ATOM     57  O4  A00 X   4      82.203  61.007   5.4040  0.00  0.00     0.000 O
BRANCH 57 61
ATOM     58  C1  A00 X   4      85.933  60.104   3.4260  0.00  0.00     0.000 C
ATOM     59  C2  A00 X   4      84.746  59.123   3.2540  0.00  0.00     0.000 C
ATOM     60  C3  A00 X   4      83.391  59.715   3.6920  0.00  0.00     0.000 C
ATOM     61  C4  A00 X   4      83.482  60.394   5.0750  0.00  0.00     0.000 C
ATOM     62  C5  A00 X   4      84.582  61.479   4.9570  0.00  0.00     0.000 C
ATOM     63  O5  A00 X   4      85.852  60.840   4.6670  0.00  0.00     0.000 O
BRANCH 59 66
ATOM     64   N  A00 X   4      84.992  57.957   4.1220  0.00  0.00     0.000 N
ATOM     66  HD  A00 X   4      85.484  58.078   4.8240  0.00  0.00     0.000 HD
ATOM     66   O  A00 X   4      86.372  57.064   2.3620  0.00  0.00     0.000 OA
ATOM     67   S  A00 X   4      85.560  56.621   3.4510  0.00  0.00     0.000 S
ATOM     68   O  A00 X   4      86.271  56.057   4.5610  0.00  0.00     0.000 OA
ATOM     69   O  A00 X   4      84.329  55.951   3.1400  0.00  0.00     0.000 OA
ENDBRANCH 59 66
BRANCH 62 70
ATOM     70   C  A00 X   4      84.748  62.351   6.2240  0.00  0.00     0.000 C
ATOM     71   O  A00 X   4      86.038  61.402   9.4710  0.00  0.00     0.000 OA
ATOM     72   O  A00 X   4      84.075  62.559   8.8790  0.00  0.00     0.000 OA
ATOM     73   O  A00 X   4      85.524  61.633   7.1970  0.00  0.00     0.000 O
ATOM     74   O  A00 X   4      84.196  60.147   8.5510  0.00  0.00     0.000 OA
ATOM     75   S  A00 X   4      84.889  61.394   8.6110  0.00  0.00     0.000 S
ENDBRANCH 62 70
ENDBRANCH 57 61
ENDBRANCH 41 57
ENDBRANCH 40 44
ENDBRANCH 20 40
ENDBRANCH 19 23
ENDBRANCH 1 19
TORSDOF 14
ENDMDL
MODEL 91
REMARK VINA RESULT:      -1.1     89.627     94.788
ROOT
ATOM      1  C1  A00 X   1      84.133  61.453  15.5340  0.00  0.00     0.000 C
ATOM      2  C2  A00 X   1      82.646  61.191  15.8910  0.00  0.00     0.000 C
ATOM      3  C3  A00 X   1      82.335  60.938  17.4030  0.00  0.00     0.000 C
ATOM      4  C4  A00 X   1      83.564  60.617  18.2930  0.00  0.00     0.000 C
ATOM      5  C5  A00 X   1      84.740  60.076  17.4800  0.00  0.00     0.000 C
ATOM      6  O5  A00 X   1      85.090  61.152  16.5810  0.00  0.00     0.000 O
ATOM      7   O  A00 X   1      81.455  59.822  17.5090  0.00  0.00     0.000 O
ATOM      9  HD  A00 X   1      82.043  59.745  18.1410  0.00  0.00     0.000 HD
ATOM      9   O  A00 X   1      83.979  61.760  19.0410  0.00  0.00     0.000 O
ATOM     11  HD  A00 X   1      84.567  61.683  19.6720  0.00  0.00     0.000 HD
ENDROOT
BRANCH 2 11
ATOM     11   O  A00 X   1      81.880  62.324  15.4370  0.00  0.00     0.000 O
ATOM     12   O  A00 X   1      79.496  62.435  15.7040  0.00  0.00     0.000 OA
ATOM     13   O  A00 X   1      80.455  60.714  14.2780  0.00  0.00     0.000 OA
ATOM     14   O  A00 X   1      80.556  63.003  13.6380  0.00  0.00     0.000 OA
ATOM     15   S  A00 X   1      80.501  62.075  14.7350  0.00  0.00     0.000 S
ENDBRANCH 2 11
BRANCH 5 16
ATOM     16   C  A00 X   1      84.478  58.744  16.7700  0.00  0.00     0.000 C
ATOM     17   O  A00 X   1      83.541  58.065  17.1350  0.00  0.00     0.000 OA
ATOM     18   O  A00 X   1      85.170  58.348  15.8530  0.00  0.00     0.000 OA
ENDBRANCH 5 16
BRANCH 1 19
ATOM     19  O4  A00 X   2      84.523  60.853  14.2750  0.00  0.00     0.000 O
BRANCH 19 23
ATOM     20  C1  A00 X   2      87.055  64.123  13.1530  0.00  0.00     0.000 C
ATOM     21  C2  A00 X   2      85.629  64.086  12.5530  0.00  0.00     0.000 C
ATOM     22  C3  A00 X   2      84.719  63.135  13.3590  0.00  0.00     0.000 C
ATOM     23  C4  A00 X   2      85.359  61.734  13.4710  0.00  0.00     0.000 C
ATOM     24  C5  A00 X   2      86.784  61.909  14.0650  0.00  0.00     0.000 C
ATOM     25  O5  A00 X   2      87.557  62.760  13.1800  0.00  0.00     0.000 O
ATOM     26   O  A00 X   2      83.392  63.188  12.8070  0.00  0.00     0.000 O
ATOM     28  HD  A00 X   2      83.670  63.059  11.9970  0.00  0.00     0.000 HD
BRANCH 21 30
ATOM     28   N  A00 X   2      86.174  64.677  11.3270  0.00  0.00     0.000 N
ATOM     30  HD  A00 X   2      85.313  64.767  11.2880  0.00  0.00     0.000 HD
ATOM     30   O  A00 X   2      84.512  66.003  10.3590  0.00  0.00     0.000 OA
ATOM     31   S  A00 X   2      85.230  64.814  10.0670  0.00  0.00     0.000 S
ATOM     32   O  A00 X   2      86.142  64.912   8.9700  0.00  0.00     0.000 OA
ATOM     33   O  A00 X   2      84.469  63.603   9.9740  0.00  0.00     0.000 OA
ENDBRANCH 21 30
BRANCH 24 34
ATOM     34   C  A00 X   2      87.553  60.637  14.4930  0.00  0.00     0.000 C
ATOM     35   O  A00 X   2      88.332  57.873  12.2540  0.00  0.00     0.000 OA
ATOM     36   O  A00 X   2      87.405  59.584  13.5190  0.00  0.00     0.000 O
ATOM     37   O  A00 X   2      88.946  60.119  11.8430  0.00  0.00     0.000 OA
ATOM     38   S  A00 X   2      88.739  59.110  12.8360  0.00  0.00     0.000 S
ATOM     39   O  A00 X   2      89.712  58.997  13.8810  0.00  0.00     0.000 OA
ENDBRANCH 24 34
BRANCH 20 40
ATOM     40  O4  A00 X   3      86.899  64.603  14.4960  0.00  0.00     0.000 O
BRANCH 40 44
ATOM     41  C1  A00 X   3      87.780  64.280  17.9950  0.00  0.00     0.000 C
ATOM     42  C2  A00 X   3      86.783  65.315  17.4300  0.00  0.00     0.000 C
ATOM     43  C3  A00 X   3      87.404  66.092  16.2410  0.00  0.00     0.000 C
ATOM     44  C4  A00 X   3      88.025  65.212  15.1640  0.00  0.00     0.000 C
ATOM     45  C5  A00 X   3      89.017  64.203  15.8080  0.00  0.00     0.000 C
ATOM     46  O5  A00 X   3      88.392  63.500  16.9310  0.00  0.00     0.000 O
ATOM     47   O  A00 X   3      86.603  67.138  15.6940  0.00  0.00     0.000 O
ATOM     49  HD  A00 X   3      86.923  66.839  14.9470  0.00  0.00     0.000 HD
BRANCH 42 49
ATOM     49   O  A00 X   3      85.601  64.589  17.0270  0.00  0.00     0.000 O
ATOM     50   O  A00 X   3      83.501  65.125  16.0120  0.00  0.00     0.000 OA
ATOM     51   O  A00 X   3      84.364  66.565  17.6760  0.00  0.00     0.000 OA
ATOM     52   O  A00 X   3      83.647  64.405  18.3160  0.00  0.00     0.000 OA
ATOM     53   S  A00 X   3      84.187  65.195  17.2630  0.00  0.00     0.000 S
ENDBRANCH 42 49
BRANCH 45 54
ATOM     54   C  A00 X   3      90.346  64.871  16.1790  0.00  0.00     0.000 C
ATOM     55   O  A00 X   3      91.293  64.206  16.5440  0.00  0.00     0.000 OA
ATOM     56   O  A00 X   3      90.475  66.084  16.1140  0.00  0.00     0.000 OA
ENDBRANCH 45 54
BRANCH 41 57
ATOM     57  O4  A00 X   4      88.729  64.890  18.8980  0.00  0.00     0.000 O
BRANCH 57 61
ATOM     58  C1  A00 X   4      90.760  63.464  22.4300  0.00  0.00     0.000 C
ATOM     59  C2  A00 X   4      91.014  62.738  21.0860  0.00  0.00     0.000 C
ATOM     60  C3  A00 X   4      90.535  63.536  19.8560  0.00  0.00     0.000 C
ATOM     61  C4  A00 X   4      89.101  64.077  20.0460  0.00  0.00     0.000 C
ATOM     62  C5  A00 X   4      89.128  64.943  21.3300  0.00  0.00     0.000 C
ATOM     63  O5  A00 X   4      89.464  64.103  22.4650  0.00  0.00     0.000 O
BRANCH 59 66
ATOM     64   N  A00 X   4      90.349  61.434  20.9130  0.00  0.00     0.000 N
ATOM     66  HD  A00 X   4      89.582  61.322  21.2990  0.00  0.00     0.000 HD
ATOM     66   O  A00 X   4      92.062  60.487  22.3170  0.00  0.00     0.000 OA
ATOM     67   S  A00 X   4      91.177  60.110  21.2590  0.00  0.00     0.000 S
ATOM     68   O  A00 X   4      90.110  59.228  21.6330  0.00  0.00     0.000 OA
ATOM     69   O  A00 X   4      91.751  59.827  19.9740  0.00  0.00     0.000 OA
ENDBRANCH 59 66
BRANCH 62 70
ATOM     70   C  A00 X   4      87.795  65.668  21.6320  0.00  0.00     0.000 C
ATOM     71   O  A00 X   4      84.636  64.247  22.6850  0.00  0.00     0.000 OA
ATOM     72   O  A00 X   4      85.132  65.781  20.9690  0.00  0.00     0.000 OA
ATOM     73   O  A00 X   4      86.884  64.747  22.2530  0.00  0.00     0.000 O
ATOM     74   O  A00 X   4      85.654  63.421  20.6610  0.00  0.00     0.000 OA
ATOM     75   S  A00 X   4      85.494  64.514  21.5650  0.00  0.00     0.000 S
ENDBRANCH 62 70
ENDBRANCH 57 61
ENDBRANCH 41 57
ENDBRANCH 40 44
ENDBRANCH 20 40
ENDBRANCH 19 23
ENDBRANCH 1 19
TORSDOF 14
ENDMDL
MODEL 92
REMARK VINA RESULT:      -1.1     63.316     67.918
ROOT
ATOM      1  C1  A00 X   1      30.472  65.926  58.3390  0.00  0.00     0.000 C
ATOM      2  C2  A00 X   1      30.201  67.177  59.2160  0.00  0.00     0.000 C
ATOM      3  C3  A00 X   1      31.252  67.471  60.3370  0.00  0.00     0.000 C
ATOM      4  C4  A00 X   1      32.213  66.303  60.6750  0.00  0.00     0.000 C
ATOM      5  C5  A00 X   1      31.638  64.946  60.2700  0.00  0.00     0.000 C
ATOM      6  O5  A00 X   1      31.492  65.023  58.8350  0.00  0.00     0.000 O
ATOM      7   O  A00 X   1      30.559  67.787  61.5430  0.00  0.00     0.000 O
ATOM      9  HD  A00 X   1      31.226  67.278  61.7570  0.00  0.00     0.000 HD
ATOM      9   O  A00 X   1      33.491  66.486  60.0660  0.00  0.00     0.000 O
ATOM     11  HD  A00 X   1      34.158  65.977  60.2810  0.00  0.00     0.000 HD
ENDROOT
BRANCH 2 11
ATOM     11   O  A00 X   1      30.119  68.317  58.3390  0.00  0.00     0.000 O
ATOM     12   O  A00 X   1      29.981  70.561  59.1840  0.00  0.00     0.000 OA
ATOM     13   O  A00 X   1      28.174  69.002  59.6490  0.00  0.00     0.000 OA
ATOM     14   O  A00 X   1      28.546  69.788  57.4350  0.00  0.00     0.000 OA
ATOM     15   S  A00 X   1      29.144  69.489  58.7080  0.00  0.00     0.000 S
ENDBRANCH 2 11
BRANCH 5 16
ATOM     16   C  A00 X   1      30.350  64.546  60.9970  0.00  0.00     0.000 C
ATOM     17   O  A00 X   1      30.058  65.125  62.0230  0.00  0.00     0.000 OA
ATOM     18   O  A00 X   1      29.610  63.677  60.5800  0.00  0.00     0.000 OA
ENDBRANCH 5 16
BRANCH 1 19
ATOM     19  O4  A00 X   2      29.260  65.212  57.9900  0.00  0.00     0.000 O
BRANCH 19 23
ATOM     20  C1  A00 X   2      30.576  64.304  54.0140  0.00  0.00     0.000 C
ATOM     21  C2  A00 X   2      29.643  65.525  54.1960  0.00  0.00     0.000 C
ATOM     22  C3  A00 X   2      29.611  65.977  55.6710  0.00  0.00     0.000 C
ATOM     23  C4  A00 X   2      29.240  64.795  56.5950  0.00  0.00     0.000 C
ATOM     24  C5  A00 X   2      30.232  63.636  56.3040  0.00  0.00     0.000 C
ATOM     25  O5  A00 X   2      30.112  63.257  54.9080  0.00  0.00     0.000 O
ATOM     26   O  A00 X   2      28.788  67.152  55.7760  0.00  0.00     0.000 O
ATOM     28  HD  A00 X   2      28.131  66.791  55.3410  0.00  0.00     0.000 HD
BRANCH 21 30
ATOM     28   N  A00 X   2      29.036  65.212  52.8980  0.00  0.00     0.000 N
ATOM     30  HD  A00 X   2      28.805  66.023  53.0940  0.00  0.00     0.000 HD
ATOM     30   O  A00 X   2      28.373  67.219  51.9030  0.00  0.00     0.000 OA
ATOM     31   S  A00 X   2      27.776  66.043  52.4300  0.00  0.00     0.000 S
ATOM     32   O  A00 X   2      27.152  65.196  51.4610  0.00  0.00     0.000 OA
ATOM     33   O  A00 X   2      26.926  66.203  53.5720  0.00  0.00     0.000 OA
ENDBRANCH 21 30
BRANCH 24 34
ATOM     34   C  A00 X   2      30.223  62.417  57.2560  0.00  0.00     0.000 C
ATOM     35   O  A00 X   2      29.374  59.030  56.2270  0.00  0.00     0.000 OA
ATOM     36   O  A00 X   2      29.519  61.303  56.6720  0.00  0.00     0.000 O
ATOM     37   O  A00 X   2      31.073  60.330  55.2190  0.00  0.00     0.000 OA
ATOM     38   S  A00 X   2      30.386  60.013  56.4340  0.00  0.00     0.000 S
ATOM     39   O  A00 X   2      31.176  59.832  57.6150  0.00  0.00     0.000 OA
ENDBRANCH 24 34
BRANCH 20 40
ATOM     40  O4  A00 X   3      31.877  64.745  54.4280  0.00  0.00     0.000 O
BRANCH 40 44
ATOM     41  C1  A00 X   3      34.874  64.000  56.3230  0.00  0.00     0.000 C
ATOM     42  C2  A00 X   3      34.619  65.319  55.5610  0.00  0.00     0.000 C
ATOM     43  C3  A00 X   3      34.185  65.041  54.0990  0.00  0.00     0.000 C
ATOM     44  C4  A00 X   3      33.046  64.040  53.9560  0.00  0.00     0.000 C
ATOM     45  C5  A00 X   3      33.377  62.740  54.7430  0.00  0.00     0.000 C
ATOM     46  O5  A00 X   3      33.792  63.051  56.1130  0.00  0.00     0.000 O
ATOM     47   O  A00 X   3      34.006  66.190  53.2730  0.00  0.00     0.000 O
ATOM     49  HD  A00 X   3      33.334  65.731  52.9750  0.00  0.00     0.000 HD
BRANCH 42 49
ATOM     49   O  A00 X   3      33.598  66.037  56.2880  0.00  0.00     0.000 O
ATOM     50   O  A00 X   3      32.380  68.078  56.0040  0.00  0.00     0.000 OA
ATOM     51   O  A00 X   3      34.693  68.051  55.5140  0.00  0.00     0.000 OA
ATOM     52   O  A00 X   3      34.016  67.813  57.7660  0.00  0.00     0.000 OA
ATOM     53   S  A00 X   3      33.661  67.587  56.4070  0.00  0.00     0.000 S
ENDBRANCH 42 49
BRANCH 45 54
ATOM     54   C  A00 X   3      34.385  61.863  53.9920  0.00  0.00     0.000 C
ATOM     55   O  A00 X   3      34.735  60.793  54.4470  0.00  0.00     0.000 OA
ATOM     56   O  A00 X   3      34.855  62.225  52.9240  0.00  0.00     0.000 OA
ENDBRANCH 45 54
BRANCH 41 57
ATOM     57  O4  A00 X   4      36.186  63.465  56.0410  0.00  0.00     0.000 O
BRANCH 57 61
ATOM     58  C1  A00 X   4      39.027  61.242  58.4130  0.00  0.00     0.000 C
ATOM     59  C2  A00 X   4      37.638  60.613  58.1360  0.00  0.00     0.000 C
ATOM     60  C3  A00 X   4      36.860  61.314  57.0050  0.00  0.00     0.000 C
ATOM     61  C4  A00 X   4      36.859  62.848  57.1750  0.00  0.00     0.000 C
ATOM     62  C5  A00 X   4      38.345  63.283  57.2170  0.00  0.00     0.000 C
ATOM     63  O5  A00 X   4      38.984  62.687  58.3750  0.00  0.00     0.000 O
BRANCH 59 66
ATOM     64   N  A00 X   4      36.479  60.312  58.9960  0.00  0.00     0.000 N
ATOM     66  HD  A00 X   4      36.218  60.928  59.5450  0.00  0.00     0.000 HD
ATOM     66   O  A00 X   4      37.891  58.767  60.1870  0.00  0.00     0.000 OA
ATOM     67   S  A00 X   4      36.512  58.973  59.8700  0.00  0.00     0.000 S
ATOM     68   O  A00 X   4      35.678  59.362  60.9700  0.00  0.00     0.000 OA
ATOM     69   O  A00 X   4      35.891  58.058  58.9550  0.00  0.00     0.000 OA
ENDBRANCH 59 66
BRANCH 62 70
ATOM     70   C  A00 X   4      38.555  64.815  57.2750  0.00  0.00     0.000 C
ATOM     71   O  A00 X   4      37.836  67.095  59.9940  0.00  0.00     0.000 OA
ATOM     72   O  A00 X   4      37.286  67.212  57.7080  0.00  0.00     0.000 OA
ATOM     73   O  A00 X   4      38.367  65.269  58.6250  0.00  0.00     0.000 O
ATOM     74   O  A00 X   4      36.058  65.694  59.1650  0.00  0.00     0.000 OA
ATOM     75   S  A00 X   4      37.282  66.372  58.8840  0.00  0.00     0.000 S
ENDBRANCH 62 70
ENDBRANCH 57 61
ENDBRANCH 41 57
ENDBRANCH 40 44
ENDBRANCH 20 40
ENDBRANCH 19 23
ENDBRANCH 1 19
TORSDOF 14
ENDMDL
MODEL 93
REMARK VINA RESULT:      -1.1      7.526     14.787
ROOT
ATOM      1  C1  A00 X   1      21.930  12.635  25.5930  0.00  0.00     0.000 C
ATOM      2  C2  A00 X   1      21.686  13.712  26.6840  0.00  0.00     0.000 C
ATOM      3  C3  A00 X   1      22.344  13.440  28.0770  0.00  0.00     0.000 C
ATOM      4  C4  A00 X   1      22.837  11.989  28.3120  0.00  0.00     0.000 C
ATOM      5  C5  A00 X   1      22.126  10.984  27.4050  0.00  0.00     0.000 C
ATOM      6  O5  A00 X   1      22.486  11.382  26.0630  0.00  0.00     0.000 O
ATOM      7   O  A00 X   1      21.386  13.713  29.0970  0.00  0.00     0.000 O
ATOM      9  HD  A00 X   1      21.805  12.991  29.3260  0.00  0.00     0.000 HD
ATOM      9   O  A00 X   1      24.249  11.882  28.1360  0.00  0.00     0.000 O
ATOM     11  HD  A00 X   1      24.668  11.160  28.3660  0.00  0.00     0.000 HD
ENDROOT
BRANCH 2 11
ATOM     11   O  A00 X   1      22.169  14.970  26.1740  0.00  0.00     0.000 O
ATOM     12   O  A00 X   1      22.358  16.917  27.5670  0.00  0.00     0.000 OA
ATOM     13   O  A00 X   1      20.160  15.968  27.1400  0.00  0.00     0.000 OA
ATOM     14   O  A00 X   1      21.377  17.022  25.3900  0.00  0.00     0.000 OA
ATOM     15   S  A00 X   1      21.462  16.293  26.6270  0.00  0.00     0.000 S
ENDBRANCH 2 11
BRANCH 5 16
ATOM     16   C  A00 X   1      20.614  10.869  27.6260  0.00  0.00     0.000 C
ATOM     17   O  A00 X   1      20.141  11.313  28.6520  0.00  0.00     0.000 OA
ATOM     18   O  A00 X   1      19.874  10.357  26.8100  0.00  0.00     0.000 OA
ENDBRANCH 5 16
BRANCH 1 19
ATOM     19  O4  A00 X   2      20.770  12.416  24.7520  0.00  0.00     0.000 O
BRANCH 19 23
ATOM     20  C1  A00 X   2      19.862  13.895  20.8340  0.00  0.00     0.000 C
ATOM     21  C2  A00 X   2      21.286  13.337  21.0750  0.00  0.00     0.000 C
ATOM     22  C3  A00 X   2      21.327  12.468  22.3490  0.00  0.00     0.000 C
ATOM     23  C4  A00 X   2      20.778  13.254  23.5610  0.00  0.00     0.000 C
ATOM     24  C5  A00 X   2      19.362  13.772  23.1880  0.00  0.00     0.000 C
ATOM     25  O5  A00 X   2      19.471  14.631  22.0230  0.00  0.00     0.000 O
ATOM     26   O  A00 X   2      22.649  11.920  22.4910  0.00  0.00     0.000 O
ATOM     28  HD  A00 X   2      23.033  12.689  22.3890  0.00  0.00     0.000 HD
BRANCH 21 30
ATOM     28   N  A00 X   2      21.795  14.348  20.1430  0.00  0.00     0.000 N
ATOM     30  HD  A00 X   2      22.424  13.761  20.2450  0.00  0.00     0.000 HD
ATOM     30   O  A00 X   2      23.668  13.463  19.0630  0.00  0.00     0.000 OA
ATOM     31   S  A00 X   2      23.359  14.506  19.9750  0.00  0.00     0.000 S
ATOM     32   O  A00 X   2      23.512  15.829  19.4540  0.00  0.00     0.000 OA
ATOM     33   O  A00 X   2      23.936  14.417  21.2830  0.00  0.00     0.000 OA
ENDBRANCH 21 30
BRANCH 24 34
ATOM     34   C  A00 X   2      18.498  14.395  24.3100  0.00  0.00     0.000 C
ATOM     35   O  A00 X   2      14.882  14.035  24.5400  0.00  0.00     0.000 OA
ATOM     36   O  A00 X   2      17.100  14.391  23.9570  0.00  0.00     0.000 O
ATOM     37   O  A00 X   2      16.387  12.214  24.4260  0.00  0.00     0.000 OA
ATOM     38   S  A00 X   2      16.172  13.546  24.9030  0.00  0.00     0.000 S
ATOM     39   O  A00 X   2      16.579  13.845  26.2430  0.00  0.00     0.000 OA
ENDBRANCH 24 34
BRANCH 20 40
ATOM     40  O4  A00 X   3      19.016  12.746  20.6810  0.00  0.00     0.000 O
BRANCH 40 44
ATOM     41  C1  A00 X   3      15.783  11.112  20.7190  0.00  0.00     0.000 C
ATOM     42  C2  A00 X   3      17.113  10.423  20.3460  0.00  0.00     0.000 C
ATOM     43  C3  A00 X   3      17.883  11.241  19.2780  0.00  0.00     0.000 C
ATOM     44  C4  A00 X   3      18.049  12.719  19.6100  0.00  0.00     0.000 C
ATOM     45  C5  A00 X   3      16.670  13.341  19.9690  0.00  0.00     0.000 C
ATOM     46  O5  A00 X   3      15.975  12.531  20.9710  0.00  0.00     0.000 O
ATOM     47   O  A00 X   3      19.089  10.654  18.7920  0.00  0.00     0.000 O
ATOM     49  HD  A00 X   3      19.366  11.474  18.8200  0.00  0.00     0.000 HD
BRANCH 42 49
ATOM     49   O  A00 X   3      17.879  10.293  21.5640  0.00  0.00     0.000 O
ATOM     50   O  A00 X   3      20.011   9.398  22.1840  0.00  0.00     0.000 OA
ATOM     51   O  A00 X   3      18.671   8.196  20.6510  0.00  0.00     0.000 OA
ATOM     52   O  A00 X   3      17.946   8.360  22.8950  0.00  0.00     0.000 OA
ATOM     53   S  A00 X   3      18.681   8.991  21.8540  0.00  0.00     0.000 S
ENDBRANCH 42 49
BRANCH 45 54
ATOM     54   C  A00 X   3      15.825  13.607  18.7170  0.00  0.00     0.000 C
ATOM     55   O  A00 X   3      14.819  14.284  18.7820  0.00  0.00     0.000 OA
ATOM     56   O  A00 X   3      16.147  13.143  17.6350  0.00  0.00     0.000 OA
ENDBRANCH 45 54
BRANCH 41 57
ATOM     57  O4  A00 X   4      14.744  10.822  19.7570  0.00  0.00     0.000 O
BRANCH 57 61
ATOM     58  C1  A00 X   4      10.466  10.346  20.0950  0.00  0.00     0.000 C
ATOM     59  C2  A00 X   4      11.086  11.731  20.4120  0.00  0.00     0.000 C
ATOM     60  C3  A00 X   4      12.539  11.882  19.9180  0.00  0.00     0.000 C
ATOM     61  C4  A00 X   4      13.409  10.670  20.3170  0.00  0.00     0.000 C
ATOM     62  C5  A00 X   4      12.716   9.420  19.7190  0.00  0.00     0.000 C
ATOM     63  O5  A00 X   4      11.404   9.269  20.3190  0.00  0.00     0.000 O
BRANCH 59 66
ATOM     64   N  A00 X   4      10.599  13.107  20.2080  0.00  0.00     0.000 N
ATOM     66  HD  A00 X   4      11.078  13.752  20.5320  0.00  0.00     0.000 HD
ATOM     66   O  A00 X   4       8.830  12.606  21.7630  0.00  0.00     0.000 OA
ATOM     67   S  A00 X   4       9.100  13.453  20.6440  0.00  0.00     0.000 S
ATOM     68   O  A00 X   4       9.233  14.849  20.9440  0.00  0.00     0.000 OA
ATOM     69   O  A00 X   4       8.409  13.178  19.4150  0.00  0.00     0.000 OA
ENDBRANCH 59 66
BRANCH 62 70
ATOM     70   C  A00 X   4      13.504   8.104  19.9200  0.00  0.00     0.000 C
ATOM     71   O  A00 X   4      14.030   6.228  22.9710  0.00  0.00     0.000 OA
ATOM     72   O  A00 X   4      15.556   6.940  21.3260  0.00  0.00     0.000 OA
ATOM     73   O  A00 X   4      13.242   7.591  21.2370  0.00  0.00     0.000 O
ATOM     74   O  A00 X   4      14.669   8.552  22.9230  0.00  0.00     0.000 OA
ATOM     75   S  A00 X   4      14.467   7.347  22.1850  0.00  0.00     0.000 S
ENDBRANCH 62 70
ENDBRANCH 57 61
ENDBRANCH 41 57
ENDBRANCH 40 44
ENDBRANCH 20 40
ENDBRANCH 19 23
ENDBRANCH 1 19
TORSDOF 14
ENDMDL
MODEL 94
REMARK VINA RESULT:      -1.1     81.279     86.105
ROOT
ATOM      1  C1  A00 X   1      87.534  40.139  21.8760  0.00  0.00     0.000 C
ATOM      2  C2  A00 X   1      88.567  39.295  21.0840  0.00  0.00     0.000 C
ATOM      3  C3  A00 X   1      88.933  39.819  19.6560  0.00  0.00     0.000 C
ATOM      4  C4  A00 X   1      87.971  40.882  19.0670  0.00  0.00     0.000 C
ATOM      5  C5  A00 X   1      86.587  40.829  19.7140  0.00  0.00     0.000 C
ATOM      6  O5  A00 X   1      86.820  41.138  21.1060  0.00  0.00     0.000 O
ATOM      7   O  A00 X   1      88.925  38.719  18.7490  0.00  0.00     0.000 O
ATOM      9  HD  A00 X   1      88.552  39.387  18.3430  0.00  0.00     0.000 HD
ATOM      9   O  A00 X   1      88.510  42.198  19.1880  0.00  0.00     0.000 O
ATOM     11  HD  A00 X   1      88.136  42.866  18.7830  0.00  0.00     0.000 HD
ENDROOT
BRANCH 2 11
ATOM     11   O  A00 X   1      89.768  39.215  21.8760  0.00  0.00     0.000 O
ATOM     12   O  A00 X   1      91.656  37.897  21.1920  0.00  0.00     0.000 OA
ATOM     13   O  A00 X   1      89.551  36.788  21.6980  0.00  0.00     0.000 OA
ATOM     14   O  A00 X   1      90.815  37.820  23.4280  0.00  0.00     0.000 OA
ATOM     15   S  A00 X   1      90.484  37.829  22.0290  0.00  0.00     0.000 S
ENDBRANCH 2 11
BRANCH 5 16
ATOM     16   C  A00 X   1      85.820  39.520  19.4970  0.00  0.00     0.000 C
ATOM     17   O  A00 X   1      84.808  39.326  20.1380  0.00  0.00     0.000 OA
ATOM     18   O  A00 X   1      86.184  38.676  18.7030  0.00  0.00     0.000 OA
ENDBRANCH 5 16
BRANCH 1 19
ATOM     19  O4  A00 X   2      86.625  39.326  22.6570  0.00  0.00     0.000 O
BRANCH 19 23
ATOM     20  C1  A00 X   2      86.474  42.093  25.9260  0.00  0.00     0.000 C
ATOM     21  C2  A00 X   2      87.434  40.885  26.0560  0.00  0.00     0.000 C
ATOM     22  C3  A00 X   2      87.701  40.246  24.6780  0.00  0.00     0.000 C
ATOM     23  C4  A00 X   2      86.372  39.883  23.9790  0.00  0.00     0.000 C
ATOM     24  C5  A00 X   2      85.497  41.166  23.9280  0.00  0.00     0.000 C
ATOM     25  O5  A00 X   2      85.259  41.623  25.2840  0.00  0.00     0.000 O
ATOM     26   O  A00 X   2      88.648  39.176  24.8420  0.00  0.00     0.000 O
ATOM     28  HD  A00 X   2      88.203  38.815  25.4910  0.00  0.00     0.000 HD
BRANCH 21 30
ATOM     28   N  A00 X   2      87.146  40.863  27.4930  0.00  0.00     0.000 N
ATOM     30  HD  A00 X   2      87.855  40.381  27.3720  0.00  0.00     0.000 HD
ATOM     30   O  A00 X   2      89.053  40.097  28.6050  0.00  0.00     0.000 OA
ATOM     31   S  A00 X   2      87.719  39.674  28.3630  0.00  0.00     0.000 S
ATOM     32   O  A00 X   2      86.872  39.658  29.5150  0.00  0.00     0.000 OA
ATOM     33   O  A00 X   2      87.548  38.472  27.6030  0.00  0.00     0.000 OA
ENDBRANCH 21 30
BRANCH 24 34
ATOM     34   C  A00 X   2      84.208  41.132  23.0740  0.00  0.00     0.000 C
ATOM     35   O  A00 X   2      80.849  41.479  24.4360  0.00  0.00     0.000 OA
ATOM     36   O  A00 X   2      83.041  40.937  23.8970  0.00  0.00     0.000 O
ATOM     37   O  A00 X   2      82.577  43.060  24.7620  0.00  0.00     0.000 OA
ATOM     38   S  A00 X   2      81.994  42.110  23.8650  0.00  0.00     0.000 S
ATOM     39   O  A00 X   2      81.855  42.491  22.4920  0.00  0.00     0.000 OA
ENDBRANCH 24 34
BRANCH 20 40
ATOM     40  O4  A00 X   3      87.141  43.027  25.0640  0.00  0.00     0.000 O
BRANCH 40 44
ATOM     41  C1  A00 X   3      86.865  45.295  22.2520  0.00  0.00     0.000 C
ATOM     42  C2  A00 X   3      88.173  44.995  23.0160  0.00  0.00     0.000 C
ATOM     43  C3  A00 X   3      87.974  45.161  24.5450  0.00  0.00     0.000 C
ATOM     44  C4  A00 X   3      86.769  44.421  25.1110  0.00  0.00     0.000 C
ATOM     45  C5  A00 X   3      85.494  44.777  24.2950  0.00  0.00     0.000 C
ATOM     46  O5  A00 X   3      85.731  44.616  22.8590  0.00  0.00     0.000 O
ATOM     47   O  A00 X   3      89.141  44.994  25.3470  0.00  0.00     0.000 O
ATOM     49  HD  A00 X   3      88.583  44.597  25.8770  0.00  0.00     0.000 HD
BRANCH 42 49
ATOM     49   O  A00 X   3      88.561  43.645  22.6780  0.00  0.00     0.000 O
ATOM     50   O  A00 X   3      90.298  42.129  23.3210  0.00  0.00     0.000 OA
ATOM     51   O  A00 X   3      90.842  44.402  22.9640  0.00  0.00     0.000 OA
ATOM     52   O  A00 X   3      90.211  43.088  21.1030  0.00  0.00     0.000 OA
ATOM     53   S  A00 X   3      90.064  43.279  22.5050  0.00  0.00     0.000 S
ENDBRANCH 42 49
BRANCH 45 54
ATOM     54   C  A00 X   3      84.952  46.163  24.6650  0.00  0.00     0.000 C
ATOM     55   O  A00 X   3      83.803  46.465  24.4160  0.00  0.00     0.000 OA
ATOM     56   O  A00 X   3      85.666  46.988  25.2150  0.00  0.00     0.000 OA
ENDBRANCH 45 54
BRANCH 41 57
ATOM     57  O4  A00 X   4      86.669  46.714  22.0660  0.00  0.00     0.000 O
BRANCH 57 61
ATOM     58  C1  A00 X   4      84.539  49.043  19.1210  0.00  0.00     0.000 C
ATOM     59  C2  A00 X   4      83.729  48.348  20.2440  0.00  0.00     0.000 C
ATOM     60  C3  A00 X   4      84.601  47.860  21.4180  0.00  0.00     0.000 C
ATOM     61  C4  A00 X   4      85.839  47.079  20.9270  0.00  0.00     0.000 C
ATOM     62  C5  A00 X   4      86.612  48.036  19.9850  0.00  0.00     0.000 C
ATOM     63  O5  A00 X   4      85.779  48.355  18.8410  0.00  0.00     0.000 O
BRANCH 59 66
ATOM     64   N  A00 X   4      83.065  47.142  19.7170  0.00  0.00     0.000 N
ATOM     66  HD  A00 X   4      83.439  46.739  19.0480  0.00  0.00     0.000 HD
ATOM     66   O  A00 X   4      81.330  48.584  18.8770  0.00  0.00     0.000 OA
ATOM     67   S  A00 X   4      81.518  47.239  19.3230  0.00  0.00     0.000 S
ATOM     68   O  A00 X   4      81.448  46.235  18.3010  0.00  0.00     0.000 OA
ATOM     69   O  A00 X   4      80.915  46.856  20.5670  0.00  0.00     0.000 OA
ENDBRANCH 59 66
BRANCH 62 70
ATOM     70   C  A00 X   4      87.956  47.468  19.4720  0.00  0.00     0.000 C
ATOM     71   O  A00 X   4      88.572  45.387  16.5740  0.00  0.00     0.000 OA
ATOM     72   O  A00 X   4      89.278  45.153  18.8080  0.00  0.00     0.000 OA
ATOM     73   O  A00 X   4      87.766  46.909  18.1620  0.00  0.00     0.000 O
ATOM     74   O  A00 X   4      86.972  44.635  18.2130  0.00  0.00     0.000 OA
ATOM     75   S  A00 X   4      88.145  45.403  17.9440  0.00  0.00     0.000 S
ENDBRANCH 62 70
ENDBRANCH 57 61
ENDBRANCH 41 57
ENDBRANCH 40 44
ENDBRANCH 20 40
ENDBRANCH 19 23
ENDBRANCH 1 19
TORSDOF 14
ENDMDL
MODEL 95
REMARK VINA RESULT:      -1.1     55.275     59.032
ROOT
ATOM      1  C1  A00 X   1      24.746  66.117  39.9380  0.00  0.00     0.000 C
ATOM      2  C2  A00 X   1      25.942  65.235  39.4920  0.00  0.00     0.000 C
ATOM      3  C3  A00 X   1      25.760  63.691  39.6670  0.00  0.00     0.000 C
ATOM      4  C4  A00 X   1      24.590  63.255  40.5860  0.00  0.00     0.000 C
ATOM      5  C5  A00 X   1      24.182  64.358  41.5630  0.00  0.00     0.000 C
ATOM      6  O5  A00 X   1      23.729  65.443  40.7220  0.00  0.00     0.000 O
ATOM      7   O  A00 X   1      26.949  63.153  40.2420  0.00  0.00     0.000 O
ATOM      9  HD  A00 X   1      26.279  62.762  40.6280  0.00  0.00     0.000 HD
ATOM      9   O  A00 X   1      23.456  62.840  39.8260  0.00  0.00     0.000 O
ATOM     11  HD  A00 X   1      22.786  62.449  40.2120  0.00  0.00     0.000 HD
ENDROOT
BRANCH 2 11
ATOM     11   O  A00 X   1      26.204  65.522  38.1040  0.00  0.00     0.000 O
ATOM     12   O  A00 X   1      28.060  64.546  36.9350  0.00  0.00     0.000 OA
ATOM     13   O  A00 X   1      28.486  66.053  38.7960  0.00  0.00     0.000 OA
ATOM     14   O  A00 X   1      27.557  66.876  36.7670  0.00  0.00     0.000 OA
ATOM     15   S  A00 X   1      27.686  65.743  37.6430  0.00  0.00     0.000 S
ENDBRANCH 2 11
BRANCH 5 16
ATOM     16   C  A00 X   1      25.265  64.770  42.5650  0.00  0.00     0.000 C
ATOM     17   O  A00 X   1      25.088  65.766  43.2360  0.00  0.00     0.000 OA
ATOM     18   O  A00 X   1      26.289  64.134  42.7160  0.00  0.00     0.000 OA
ENDBRANCH 5 16
BRANCH 1 19
ATOM     19  O4  A00 X   2      25.164  67.353  40.5670  0.00  0.00     0.000 O
BRANCH 19 23
ATOM     20  C1  A00 X   2      21.974  69.653  38.8640  0.00  0.00     0.000 C
ATOM     21  C2  A00 X   2      23.353  69.715  38.1630  0.00  0.00     0.000 C
ATOM     22  C3  A00 X   2      24.249  68.540  38.6070  0.00  0.00     0.000 C
ATOM     23  C4  A00 X   2      24.360  68.493  40.1480  0.00  0.00     0.000 C
ATOM     24  C5  A00 X   2      22.919  68.452  40.7270  0.00  0.00     0.000 C
ATOM     25  O5  A00 X   2      22.209  69.643  40.2970  0.00  0.00     0.000 O
ATOM     26   O  A00 X   2      25.487  68.603  37.8800  0.00  0.00     0.000 O
ATOM     28  HD  A00 X   2      25.615  69.438  38.0700  0.00  0.00     0.000 HD
BRANCH 21 30
ATOM     28   N  A00 X   2      23.078  71.116  37.8290  0.00  0.00     0.000 N
ATOM     30  HD  A00 X   2      23.737  70.864  37.3280  0.00  0.00     0.000 HD
ATOM     30   O  A00 X   2      24.123  71.598  35.7960  0.00  0.00     0.000 OA
ATOM     31   S  A00 X   2      24.224  71.976  37.1610  0.00  0.00     0.000 S
ATOM     32   O  A00 X   2      23.843  73.326  37.4440  0.00  0.00     0.000 OA
ATOM     33   O  A00 X   2      25.445  71.652  37.8360  0.00  0.00     0.000 OA
ENDBRANCH 21 30
BRANCH 24 34
ATOM     34   C  A00 X   2      22.752  68.170  42.2380  0.00  0.00     0.000 C
ATOM     35   O  A00 X   2      21.335  70.540  44.6120  0.00  0.00     0.000 OA
ATOM     36   O  A00 X   2      22.505  69.386  42.9720  0.00  0.00     0.000 O
ATOM     37   O  A00 X   2      20.225  69.802  42.6580  0.00  0.00     0.000 OA
ATOM     38   S  A00 X   2      21.121  69.450  43.7170  0.00  0.00     0.000 S
ATOM     39   O  A00 X   2      20.939  68.176  44.3440  0.00  0.00     0.000 OA
ENDBRANCH 24 34
BRANCH 20 40
ATOM     40  O4  A00 X   3      21.392  68.404  38.4630  0.00  0.00     0.000 O
BRANCH 40 44
ATOM     41  C1  A00 X   3      19.602  65.424  39.4800  0.00  0.00     0.000 C
ATOM     42  C2  A00 X   3      20.104  65.703  38.0470  0.00  0.00     0.000 C
ATOM     43  C3  A00 X   3      19.654  67.105  37.5640  0.00  0.00     0.000 C
ATOM     44  C4  A00 X   3      19.959  68.238  38.5350  0.00  0.00     0.000 C
ATOM     45  C5  A00 X   3      19.420  67.886  39.9500  0.00  0.00     0.000 C
ATOM     46  O5  A00 X   3      19.860  66.552  40.3610  0.00  0.00     0.000 O
ATOM     47   O  A00 X   3      19.989  67.437  36.2180  0.00  0.00     0.000 O
ATOM     49  HD  A00 X   3      20.139  68.216  36.5660  0.00  0.00     0.000 HD
BRANCH 42 49
ATOM     49   O  A00 X   3      21.544  65.591  38.0750  0.00  0.00     0.000 O
ATOM     50   O  A00 X   3      23.336  65.900  36.5180  0.00  0.00     0.000 OA
ATOM     51   O  A00 X   3      21.365  64.816  35.7890  0.00  0.00     0.000 OA
ATOM     52   O  A00 X   3      22.748  63.708  37.3530  0.00  0.00     0.000 OA
ATOM     53   S  A00 X   3      22.308  64.971  36.8690  0.00  0.00     0.000 S
ENDBRANCH 42 49
BRANCH 45 54
ATOM     54   C  A00 X   3      17.900  68.074  40.0400  0.00  0.00     0.000 C
ATOM     55   O  A00 X   3      17.220  68.107  39.0360  0.00  0.00     0.000 OA
ATOM     56   O  A00 X   3      17.349  68.196  41.1230  0.00  0.00     0.000 OA
ENDBRANCH 45 54
BRANCH 41 57
ATOM     57  O4  A00 X   4      18.227  64.977  39.4860  0.00  0.00     0.000 O
BRANCH 57 61
ATOM     58  C1  A00 X   4      15.924  62.532  42.1980  0.00  0.00     0.000 C
ATOM     59  C2  A00 X   4      16.199  64.008  42.5820  0.00  0.00     0.000 C
ATOM     60  C3  A00 X   4      16.703  64.865  41.4030  0.00  0.00     0.000 C
ATOM     61  C4  A00 X   4      17.845  64.167  40.6340  0.00  0.00     0.000 C
ATOM     62  C5  A00 X   4      17.283  62.803  40.1630  0.00  0.00     0.000 C
ATOM     63  O5  A00 X   4      16.945  62.000  41.3240  0.00  0.00     0.000 O
BRANCH 59 66
ATOM     64   N  A00 X   4      17.256  64.101  43.6050  0.00  0.00     0.000 N
ATOM     66  HD  A00 X   4      17.854  63.474  43.6200  0.00  0.00     0.000 HD
ATOM     66   O  A00 X   4      15.570  63.596  45.2490  0.00  0.00     0.000 OA
ATOM     67   S  A00 X   4      16.818  64.284  45.1320  0.00  0.00     0.000 S
ATOM     68   O  A00 X   4      17.928  63.666  45.7960  0.00  0.00     0.000 OA
ATOM     69   O  A00 X   4      16.804  65.717  45.2210  0.00  0.00     0.000 OA
ENDBRANCH 59 66
BRANCH 62 70
ATOM     70   C  A00 X   4      18.253  61.993  39.2710  0.00  0.00     0.000 C
ATOM     71   O  A00 X   4      20.839  59.666  40.2740  0.00  0.00     0.000 OA
ATOM     72   O  A00 X   4      20.906  61.480  38.7750  0.00  0.00     0.000 OA
ATOM     73   O  A00 X   4      18.936  61.017  40.0750  0.00  0.00     0.000 O
ATOM     74   O  A00 X   4      20.889  61.902  41.1750  0.00  0.00     0.000 OA
ATOM     75   S  A00 X   4      20.504  61.050  40.0960  0.00  0.00     0.000 S
ENDBRANCH 62 70
ENDBRANCH 57 61
ENDBRANCH 41 57
ENDBRANCH 40 44
ENDBRANCH 20 40
ENDBRANCH 19 23
ENDBRANCH 1 19
TORSDOF 14
ENDMDL
MODEL 96
REMARK VINA RESULT:      -1.1     35.768     40.706
ROOT
ATOM      1  C1  A00 X   1       3.835  24.753  62.0540  0.00  0.00     0.000 C
ATOM      2  C2  A00 X   1       2.383  24.209  61.9810  0.00  0.00     0.000 C
ATOM      3  C3  A00 X   1       1.553  24.633  60.7250  0.00  0.00     0.000 C
ATOM      4  C4  A00 X   1       2.133  25.816  59.9080  0.00  0.00     0.000 C
ATOM      5  C5  A00 X   1       3.071  26.688  60.7430  0.00  0.00     0.000 C
ATOM      6  O5  A00 X   1       4.156  25.808  61.1140  0.00  0.00     0.000 O
ATOM      7   O  A00 X   1       0.252  25.033  61.1490  0.00  0.00     0.000 O
ATOM      9  HD  A00 X   1       0.506  25.594  60.5410  0.00  0.00     0.000 HD
ATOM      9   O  A00 X   1       2.811  25.360  58.7380  0.00  0.00     0.000 O
ATOM     11  HD  A00 X   1       3.065  25.922  58.1290  0.00  0.00     0.000 HD
ENDROOT
BRANCH 2 11
ATOM     11   O  A00 X   1       2.451  22.771  62.0360  0.00  0.00     0.000 O
ATOM     12   O  A00 X   1       0.513  21.394  61.6940  0.00  0.00     0.000 OA
ATOM     13   O  A00 X   1       0.589  22.888  63.6130  0.00  0.00     0.000 OA
ATOM     14   O  A00 X   1       2.031  20.999  63.4980  0.00  0.00     0.000 OA
ATOM     15   S  A00 X   1       1.298  21.984  62.7490  0.00  0.00     0.000 S
ENDBRANCH 2 11
BRANCH 5 16
ATOM     16   C  A00 X   1       2.414  27.389  61.9360  0.00  0.00     0.000 C
ATOM     17   O  A00 X   1       3.127  27.921  62.7620  0.00  0.00     0.000 OA
ATOM     18   O  A00 X   1       1.209  27.437  62.0810  0.00  0.00     0.000 OA
ENDBRANCH 5 16
BRANCH 1 19
ATOM     19  O4  A00 X   2       4.235  25.106  63.4010  0.00  0.00     0.000 O
BRANCH 19 23
ATOM     20  C1  A00 X   2       8.224  23.609  62.9420  0.00  0.00     0.000 C
ATOM     21  C2  A00 X   2       7.188  22.684  63.6260  0.00  0.00     0.000 C
ATOM     22  C3  A00 X   2       5.749  23.160  63.3340  0.00  0.00     0.000 C
ATOM     23  C4  A00 X   2       5.578  24.645  63.7240  0.00  0.00     0.000 C
ATOM     24  C5  A00 X   2       6.680  25.459  62.9920  0.00  0.00     0.000 C
ATOM     25  O5  A00 X   2       7.980  24.963  63.4070  0.00  0.00     0.000 O
ATOM     26   O  A00 X   2       4.827  22.233  63.9310  0.00  0.00     0.000 O
ATOM     28  HD  A00 X   2       5.223  22.257  64.7010  0.00  0.00     0.000 HD
BRANCH 21 30
ATOM     28   N  A00 X   2       8.265  22.173  64.4800  0.00  0.00     0.000 N
ATOM     30  HD  A00 X   2       7.605  21.616  64.5480  0.00  0.00     0.000 HD
ATOM     30   O  A00 X   2       7.796  19.940  64.9840  0.00  0.00     0.000 OA
ATOM     31   S  A00 X   2       7.895  21.186  65.6580  0.00  0.00     0.000 S
ATOM     32   O  A00 X   2       9.002  21.301  66.5560  0.00  0.00     0.000 OA
ATOM     33   O  A00 X   2       6.702  21.689  66.2720  0.00  0.00     0.000 OA
ENDBRANCH 21 30
BRANCH 24 34
ATOM     34   C  A00 X   2       6.589  27.002  63.0310  0.00  0.00     0.000 C
ATOM     35   O  A00 X   2       9.068  29.153  64.6080  0.00  0.00     0.000 OA
ATOM     36   O  A00 X   2       7.496  27.555  64.0060  0.00  0.00     0.000 O
ATOM     37   O  A00 X   2       9.572  27.566  62.9280  0.00  0.00     0.000 OA
ATOM     38   S  A00 X   2       8.610  28.501  63.4250  0.00  0.00     0.000 S
ATOM     39   O  A00 X   2       7.961  29.354  62.4750  0.00  0.00     0.000 OA
ENDBRANCH 24 34
BRANCH 20 40
ATOM     40  O4  A00 X   3       7.948  23.527  61.5360  0.00  0.00     0.000 O
BRANCH 40 44
ATOM     41  C1  A00 X   3       7.539  25.293  58.3990  0.00  0.00     0.000 C
ATOM     42  C2  A00 X   3       7.362  23.770  58.5810  0.00  0.00     0.000 C
ATOM     43  C3  A00 X   3       8.585  23.152  59.3060  0.00  0.00     0.000 C
ATOM     44  C4  A00 X   3       8.986  23.864  60.5910  0.00  0.00     0.000 C
ATOM     45  C5  A00 X   3       9.150  25.387  60.3270  0.00  0.00     0.000 C
ATOM     46  O5  A00 X   3       7.978  25.926  59.6320  0.00  0.00     0.000 O
ATOM     47   O  A00 X   3       8.571  21.733  59.4530  0.00  0.00     0.000 O
ATOM     49  HD  A00 X   3       8.907  21.922  60.2280  0.00  0.00     0.000 HD
BRANCH 42 49
ATOM     49   O  A00 X   3       6.146  23.572  59.3360  0.00  0.00     0.000 O
ATOM     50   O  A00 X   3       4.964  21.707  60.2600  0.00  0.00     0.000 OA
ATOM     51   O  A00 X   3       5.910  21.503  58.1030  0.00  0.00     0.000 OA
ATOM     52   O  A00 X   3       4.080  22.969  58.3970  0.00  0.00     0.000 OA
ATOM     53   S  A00 X   3       5.210  22.370  59.0180  0.00  0.00     0.000 S
ENDBRANCH 42 49
BRANCH 45 54
ATOM     54   C  A00 X   3      10.470  25.701  59.6130  0.00  0.00     0.000 C
ATOM     55   O  A00 X   3      10.952  26.814  59.6640  0.00  0.00     0.000 OA
ATOM     56   O  A00 X   3      11.060  24.838  58.9810  0.00  0.00     0.000 OA
ENDBRANCH 45 54
BRANCH 41 57
ATOM     57  O4  A00 X   4       8.365  25.601  57.2540  0.00  0.00     0.000 O
BRANCH 57 61
ATOM     58  C1  A00 X   4       8.678  29.050  54.6760  0.00  0.00     0.000 C
ATOM     59  C2  A00 X   4       9.351  29.103  56.0700  0.00  0.00     0.000 C
ATOM     60  C3  A00 X   4       9.485  27.721  56.7410  0.00  0.00     0.000 C
ATOM     61  C4  A00 X   4       8.163  26.925  56.6840  0.00  0.00     0.000 C
ATOM     62  C5  A00 X   4       7.787  26.813  55.1860  0.00  0.00     0.000 C
ATOM     63  O5  A00 X   4       7.554  28.141  54.6520  0.00  0.00     0.000 O
BRANCH 59 66
ATOM     64   N  A00 X   4       8.548  29.912  57.0050  0.00  0.00     0.000 N
ATOM     66  HD  A00 X   4       7.694  29.950  56.8690  0.00  0.00     0.000 HD
ATOM     66   O  A00 X   4       9.569  31.865  56.0350  0.00  0.00     0.000 OA
ATOM     67   S  A00 X   4       8.988  31.428  57.2650  0.00  0.00     0.000 S
ATOM     68   O  A00 X   4       7.720  32.012  57.5900  0.00  0.00     0.000 OA
ATOM     69   O  A00 X   4       9.860  31.249  58.3920  0.00  0.00     0.000 OA
ENDBRANCH 59 66
BRANCH 62 70
ATOM     70   C  A00 X   4       6.534  25.946  54.9130  0.00  0.00     0.000 C
ATOM     71   O  A00 X   4       3.047  26.910  55.0350  0.00  0.00     0.000 OA
ATOM     72   O  A00 X   4       4.164  25.070  55.9900  0.00  0.00     0.000 OA
ATOM     73   O  A00 X   4       5.378  26.795  54.8330  0.00  0.00     0.000 O
ATOM     74   O  A00 X   4       4.414  27.280  56.9870  0.00  0.00     0.000 OA
ATOM     75   S  A00 X   4       4.186  26.505  55.8100  0.00  0.00     0.000 S
ENDBRANCH 62 70
ENDBRANCH 57 61
ENDBRANCH 41 57
ENDBRANCH 40 44
ENDBRANCH 20 40
ENDBRANCH 19 23
ENDBRANCH 1 19
TORSDOF 14
ENDMDL
MODEL 97
REMARK VINA RESULT:      -0.7      7.331     15.732
ROOT
ATOM      1  C1  A00 X   1      22.605  10.109  28.4890  0.00  0.00     0.000 C
ATOM      2  C2  A00 X   1      22.059  10.359  29.9200  0.00  0.00     0.000 C
ATOM      3  C3  A00 X   1      22.522   9.346  31.0180  0.00  0.00     0.000 C
ATOM      4  C4  A00 X   1      23.155   8.032  30.4930  0.00  0.00     0.000 C
ATOM      5  C5  A00 X   1      22.729   7.720  29.0580  0.00  0.00     0.000 C
ATOM      6  O5  A00 X   1      23.239   8.823  28.2760  0.00  0.00     0.000 O
ATOM      7   O  A00 X   1      21.390   8.967  31.7980  0.00  0.00     0.000 O
ATOM      9  HD  A00 X   1      21.858   8.251  31.6620  0.00  0.00     0.000 HD
ATOM      9   O  A00 X   1      24.579   8.069  30.5750  0.00  0.00     0.000 O
ATOM     11  HD  A00 X   1      25.047   7.353  30.4390  0.00  0.00     0.000 HD
ENDROOT
BRANCH 2 11
ATOM     11   O  A00 X   1      22.449  11.689  30.3120  0.00  0.00     0.000 O
ATOM     12   O  A00 X   1      24.086  12.947  29.0850  0.00  0.00     0.000 OA
ATOM     13   O  A00 X   1      24.755  10.890  30.1980  0.00  0.00     0.000 OA
ATOM     14   O  A00 X   1      24.142  12.804  31.4700  0.00  0.00     0.000 OA
ATOM     15   S  A00 X   1      23.963  12.088  30.2360  0.00  0.00     0.000 S
ENDBRANCH 2 11
BRANCH 5 16
ATOM     16   C  A00 X   1      21.229   7.474  28.8670  0.00  0.00     0.000 C
ATOM     17   O  A00 X   1      20.783   7.452  27.7380  0.00  0.00     0.000 OA
ATOM     18   O  A00 X   1      20.473   7.295  29.8010  0.00  0.00     0.000 OA
ENDBRANCH 5 16
BRANCH 1 19
ATOM     19  O4  A00 X   2      21.629  10.395  27.4570  0.00  0.00     0.000 O
BRANCH 19 23
ATOM     20  C1  A00 X   2      19.004  13.734  26.8890  0.00  0.00     0.000 C
ATOM     21  C2  A00 X   2      20.523  14.022  26.9550  0.00  0.00     0.000 C
ATOM     22  C3  A00 X   2      21.338  12.732  26.7250  0.00  0.00     0.000 C
ATOM     23  C4  A00 X   2      20.894  11.627  27.7090  0.00  0.00     0.000 C
ATOM     24  C5  A00 X   2      19.359  11.447  27.5600  0.00  0.00     0.000 C
ATOM     25  O5  A00 X   2      18.708  12.706  27.8720  0.00  0.00     0.000 O
ATOM     26   O  A00 X   2      22.737  13.064  26.7270  0.00  0.00     0.000 O
ATOM     28  HD  A00 X   2      22.683  13.505  27.4700  0.00  0.00     0.000 HD
BRANCH 21 30
ATOM     28   N  A00 X   2      21.821  14.560  26.5350  0.00  0.00     0.000 N
ATOM     30  HD  A00 X   2      21.293  15.238  26.6480  0.00  0.00     0.000 HD
ATOM     30   O  A00 X   2      21.851  16.846  27.0180  0.00  0.00     0.000 OA
ATOM     31   S  A00 X   2      21.870  15.998  25.8790  0.00  0.00     0.000 S
ATOM     32   O  A00 X   2      23.099  15.995  25.1480  0.00  0.00     0.000 OA
ATOM     33   O  A00 X   2      20.757  16.092  24.9810  0.00  0.00     0.000 OA
ENDBRANCH 21 30
BRANCH 24 34
ATOM     34   C  A00 X   2      18.697  10.241  28.2680  0.00  0.00     0.000 C
ATOM     35   O  A00 X   2      18.407   9.906  31.8820  0.00  0.00     0.000 OA
ATOM     36   O  A00 X   2      19.037  10.207  29.6690  0.00  0.00     0.000 O
ATOM     37   O  A00 X   2      17.592  11.757  30.6570  0.00  0.00     0.000 OA
ATOM     38   S  A00 X   2      17.823  10.345  30.6580  0.00  0.00     0.000 S
ATOM     39   O  A00 X   2      16.785   9.503  30.1440  0.00  0.00     0.000 OA
ENDBRANCH 24 34
BRANCH 20 40
ATOM     40  O4  A00 X   3      18.763  13.220  25.5710  0.00  0.00     0.000 O
BRANCH 40 44
ATOM     41  C1  A00 X   3      16.162  10.836  24.7500  0.00  0.00     0.000 C
ATOM     42  C2  A00 X   3      17.383  11.149  23.8570  0.00  0.00     0.000 C
ATOM     43  C3  A00 X   3      17.536  12.677  23.6430  0.00  0.00     0.000 C
ATOM     44  C4  A00 X   3      17.504  13.503  24.9220  0.00  0.00     0.000 C
ATOM     45  C5  A00 X   3      16.248  13.136  25.7610  0.00  0.00     0.000 C
ATOM     46  O5  A00 X   3      16.138  11.685  25.9300  0.00  0.00     0.000 O
ATOM     47   O  A00 X   3      18.582  13.080  22.7610  0.00  0.00     0.000 O
ATOM     49  HD  A00 X   3      18.678  13.713  23.3450  0.00  0.00     0.000 HD
BRANCH 42 49
ATOM     49   O  A00 X   3      18.541  10.589  24.5140  0.00  0.00     0.000 O
ATOM     50   O  A00 X   3      20.899  10.516  24.1030  0.00  0.00     0.000 OA
ATOM     51   O  A00 X   3      19.414  10.206  22.2890  0.00  0.00     0.000 OA
ATOM     52   O  A00 X   3      19.525   8.532  23.9540  0.00  0.00     0.000 OA
ATOM     53   S  A00 X   3      19.671   9.920  23.6790  0.00  0.00     0.000 S
ENDBRANCH 42 49
BRANCH 45 54
ATOM     54   C  A00 X   3      14.977  13.775  25.1900  0.00  0.00     0.000 C
ATOM     55   O  A00 X   3      13.968  13.853  25.8600  0.00  0.00     0.000 OA
ATOM     56   O  A00 X   3      14.957  14.215  24.0510  0.00  0.00     0.000 OA
ENDBRANCH 45 54
BRANCH 41 57
ATOM     57  O4  A00 X   4      14.931  10.847  23.9930  0.00  0.00     0.000 O
BRANCH 57 61
ATOM     58  C1  A00 X   4      11.014   9.176  24.7020  0.00  0.00     0.000 C
ATOM     59  C2  A00 X   4      11.382  10.517  25.3840  0.00  0.00     0.000 C
ATOM     60  C3  A00 X   4      12.636  11.187  24.7860  0.00  0.00     0.000 C
ATOM     61  C4  A00 X   4      13.804  10.188  24.6370  0.00  0.00     0.000 C
ATOM     62  C5  A00 X   4      13.279   9.034  23.7470  0.00  0.00     0.000 C
ATOM     63  O5  A00 X   4      12.182   8.369  24.4260  0.00  0.00     0.000 O
BRANCH 59 66
ATOM     64   N  A00 X   4      10.746  11.742  25.9000  0.00  0.00     0.000 N
ATOM     66  HD  A00 X   4      11.213  12.242  26.4310  0.00  0.00     0.000 HD
ATOM     66   O  A00 X   4       9.326  10.324  27.2310  0.00  0.00     0.000 OA
ATOM     67   S  A00 X   4       9.320  11.613  26.6120  0.00  0.00     0.000 S
ATOM     68   O  A00 X   4       9.377  12.729  27.5110  0.00  0.00     0.000 OA
ATOM     69   O  A00 X   4       8.454  11.809  25.4840  0.00  0.00     0.000 OA
ENDBRANCH 59 66
BRANCH 62 70
ATOM     70   C  A00 X   4      14.349   7.975  23.3890  0.00  0.00     0.000 C
ATOM     71   O  A00 X   4      15.714   5.346  25.4710  0.00  0.00     0.000 OA
ATOM     72   O  A00 X   4      16.789   6.950  24.1240  0.00  0.00     0.000 OA
ATOM     73   O  A00 X   4      14.403   6.984  24.4290  0.00  0.00     0.000 O
ATOM     74   O  A00 X   4      15.831   7.620  26.2620  0.00  0.00     0.000 OA
ATOM     75   S  A00 X   4      15.780   6.741  25.1390  0.00  0.00     0.000 S
ENDBRANCH 62 70
ENDBRANCH 57 61
ENDBRANCH 41 57
ENDBRANCH 40 44
ENDBRANCH 20 40
ENDBRANCH 19 23
ENDBRANCH 1 19
TORSDOF 14
ENDMDL
MODEL 98
REMARK VINA RESULT:      -0.6      7.957     16.540
ROOT
ATOM      1  C1  A00 X   1      22.676   9.760  28.5720  0.00  0.00     0.000 C
ATOM      2  C2  A00 X   1      22.118   9.828  30.0180  0.00  0.00     0.000 C
ATOM      3  C3  A00 X   1      22.504   8.642  30.9620  0.00  0.00     0.000 C
ATOM      4  C4  A00 X   1      23.074   7.385  30.2550  0.00  0.00     0.000 C
ATOM      5  C5  A00 X   1      22.658   7.310  28.7860  0.00  0.00     0.000 C
ATOM      6  O5  A00 X   1      23.242   8.485  28.1790  0.00  0.00     0.000 O
ATOM      7   O  A00 X   1      21.339   8.218  31.6650  0.00  0.00     0.000 O
ATOM      9  HD  A00 X   1      21.769   7.504  31.4300  0.00  0.00     0.000 HD
ATOM      9   O  A00 X   1      24.496   7.328  30.3580  0.00  0.00     0.000 O
ATOM     11  HD  A00 X   1      24.927   6.614  30.1230  0.00  0.00     0.000 HD
ENDROOT
BRANCH 2 11
ATOM     11   O  A00 X   1      22.573  11.063  30.6060  0.00  0.00     0.000 O
ATOM     12   O  A00 X   1      24.356  12.348  29.6390  0.00  0.00     0.000 OA
ATOM     13   O  A00 X   1      24.823  10.119  30.4930  0.00  0.00     0.000 OA
ATOM     14   O  A00 X   1      24.268  11.888  31.9830  0.00  0.00     0.000 OA
ATOM     15   S  A00 X   1      24.111  11.357  30.6560  0.00  0.00     0.000 S
ENDBRANCH 2 11
BRANCH 5 16
ATOM     16   C  A00 X   1      21.151   7.180  28.5450  0.00  0.00     0.000 C
ATOM     17   O  A00 X   1      20.723   7.368  27.4250  0.00  0.00     0.000 OA
ATOM     18   O  A00 X   1      20.372   6.890  29.4310  0.00  0.00     0.000 OA
ENDBRANCH 5 16
BRANCH 1 19
ATOM     19  O4  A00 X   2      21.736  10.247  27.5830  0.00  0.00     0.000 O
BRANCH 19 23
ATOM     20  C1  A00 X   2      19.433  13.857  27.4160  0.00  0.00     0.000 C
ATOM     21  C2  A00 X   2      20.967  13.995  27.5680  0.00  0.00     0.000 C
ATOM     22  C3  A00 X   2      21.678  12.681  27.1820  0.00  0.00     0.000 C
ATOM     23  C4  A00 X   2      21.099  11.494  27.9850  0.00  0.00     0.000 C
ATOM     24  C5  A00 X   2      19.562  11.477  27.7660  0.00  0.00     0.000 C
ATOM     25  O5  A00 X   2      19.009  12.734  28.2340  0.00  0.00     0.000 O
ATOM     26   O  A00 X   2      23.099  12.881  27.2730  0.00  0.00     0.000 O
ATOM     28  HD  A00 X   2      23.051  13.217  28.0700  0.00  0.00     0.000 HD
BRANCH 21 30
ATOM     28   N  A00 X   2      22.326  14.463  27.2780  0.00  0.00     0.000 N
ATOM     30  HD  A00 X   2      21.854  15.165  27.4620  0.00  0.00     0.000 HD
ATOM     30   O  A00 X   2      22.528  16.651  28.0720  0.00  0.00     0.000 OA
ATOM     31   S  A00 X   2      22.532  15.964  26.8290  0.00  0.00     0.000 S
ATOM     32   O  A00 X   2      23.792  15.946  26.1530  0.00  0.00     0.000 OA
ATOM     33   O  A00 X   2      21.479  16.280  25.9100  0.00  0.00     0.000 OA
ENDBRANCH 21 30
BRANCH 24 34
ATOM     34   C  A00 X   2      18.770  10.249  28.2750  0.00  0.00     0.000 C
ATOM     35   O  A00 X   2      18.544   9.277  31.7770  0.00  0.00     0.000 OA
ATOM     36   O  A00 X   2      19.144   9.910  29.6260  0.00  0.00     0.000 O
ATOM     37   O  A00 X   2      17.942  11.412  30.9570  0.00  0.00     0.000 OA
ATOM     38   S  A00 X   2      17.987  10.007  30.6860  0.00  0.00     0.000 S
ATOM     39   O  A00 X   2      16.833   9.411  30.0830  0.00  0.00     0.000 OA
ENDBRANCH 24 34
BRANCH 20 40
ATOM     40  O4  A00 X   3      19.206  13.556  26.0320  0.00  0.00     0.000 O
BRANCH 40 44
ATOM     41  C1  A00 X   3      17.888  12.531  22.8170  0.00  0.00     0.000 C
ATOM     42  C2  A00 X   3      18.962  13.620  23.0210  0.00  0.00     0.000 C
ATOM     43  C3  A00 X   3      18.507  14.658  24.0780  0.00  0.00     0.000 C
ATOM     44  C4  A00 X   3      18.014  14.054  25.3870  0.00  0.00     0.000 C
ATOM     45  C5  A00 X   3      16.934  12.973  25.1010  0.00  0.00     0.000 C
ATOM     46  O5  A00 X   3      17.402  12.022  24.0900  0.00  0.00     0.000 O
ATOM     47   O  A00 X   3      19.386  15.763  24.2860  0.00  0.00     0.000 O
ATOM     49  HD  A00 X   3      19.157  15.644  25.1130  0.00  0.00     0.000 HD
BRANCH 42 49
ATOM     49   O  A00 X   3      20.174  12.949  23.4280  0.00  0.00     0.000 O
ATOM     50   O  A00 X   3      22.372  13.605  24.1150  0.00  0.00     0.000 OA
ATOM     51   O  A00 X   3      21.351  14.746  22.3130  0.00  0.00     0.000 OA
ATOM     52   O  A00 X   3      21.985  12.490  22.0040  0.00  0.00     0.000 OA
ATOM     53   S  A00 X   3      21.561  13.467  22.9460  0.00  0.00     0.000 S
ENDBRANCH 42 49
BRANCH 45 54
ATOM     54   C  A00 X   3      15.579  13.602  24.7550  0.00  0.00     0.000 C
ATOM     55   O  A00 X   3      15.520  14.682  24.2050  0.00  0.00     0.000 OA
ATOM     56   O  A00 X   3      14.536  13.028  25.0280  0.00  0.00     0.000 OA
ENDBRANCH 45 54
BRANCH 41 57
ATOM     57  O4  A00 X   4      16.841  12.973  21.9240  0.00  0.00     0.000 O
BRANCH 57 61
ATOM     58  C1  A00 X   4      13.747  10.785  19.8570  0.00  0.00     0.000 C
ATOM     59  C2  A00 X   4      13.359  11.617  21.1040  0.00  0.00     0.000 C
ATOM     60  C3  A00 X   4      14.446  12.623  21.5340  0.00  0.00     0.000 C
ATOM     61  C4  A00 X   4      15.842  11.966  21.5960  0.00  0.00     0.000 C
ATOM     62  C5  A00 X   4      16.112  11.383  20.1860  0.00  0.00     0.000 C
ATOM     63  O5  A00 X   4      15.127  10.357  19.8980  0.00  0.00     0.000 O
BRANCH 59 66
ATOM     64   N  A00 X   4      12.518  11.910  22.2790  0.00  0.00     0.000 N
ATOM     66  HD  A00 X   4      12.802  11.640  23.0510  0.00  0.00     0.000 HD
ATOM     66   O  A00 X   4      10.945  10.297  21.4300  0.00  0.00     0.000 OA
ATOM     67   S  A00 X   4      10.979  11.477  22.2360  0.00  0.00     0.000 S
ATOM     68   O  A00 X   4      10.727  11.278  23.6330  0.00  0.00     0.000 OA
ATOM     69   O  A00 X   4      10.395  12.673  21.6970  0.00  0.00     0.000 OA
ENDBRANCH 59 66
BRANCH 62 70
ATOM     70   C  A00 X   4      17.523  10.772  20.0140  0.00  0.00     0.000 C
ATOM     71   O  A00 X   4      18.724   7.522  21.0640  0.00  0.00     0.000 OA
ATOM     72   O  A00 X   4      19.643   9.669  21.3680  0.00  0.00     0.000 OA
ATOM     73   O  A00 X   4      17.481   9.377  20.3540  0.00  0.00     0.000 O
ATOM     74   O  A00 X   4      17.736   8.974  22.7160  0.00  0.00     0.000 OA
ATOM     75   S  A00 X   4      18.445   8.868  21.4820  0.00  0.00     0.000 S
ENDBRANCH 62 70
ENDBRANCH 57 61
ENDBRANCH 41 57
ENDBRANCH 40 44
ENDBRANCH 20 40
ENDBRANCH 19 23
ENDBRANCH 1 19
TORSDOF 14
ENDMDL
MODEL 99
REMARK VINA RESULT:      -0.5     11.414     17.217
ROOT
ATOM      1  C1  A00 X   1      21.094  13.062  27.1620  0.00  0.00     0.000 C
ATOM      2  C2  A00 X   1      21.822  12.658  28.4710  0.00  0.00     0.000 C
ATOM      3  C3  A00 X   1      22.328  11.180  28.5480  0.00  0.00     0.000 C
ATOM      4  C4  A00 X   1      21.732  10.214  27.4920  0.00  0.00     0.000 C
ATOM      5  C5  A00 X   1      20.398  10.714  26.9400  0.00  0.00     0.000 C
ATOM      6  O5  A00 X   1      20.715  11.967  26.2920  0.00  0.00     0.000 O
ATOM      7   O  A00 X   1      21.987  10.645  29.8240  0.00  0.00     0.000 O
ATOM      9  HD  A00 X   1      21.833  10.026  29.2390  0.00  0.00     0.000 HD
ATOM      9   O  A00 X   1      22.645   9.988  26.4180  0.00  0.00     0.000 O
ATOM     11  HD  A00 X   1      22.490   9.368  25.8320  0.00  0.00     0.000 HD
ENDROOT
BRANCH 2 11
ATOM     11   O  A00 X   1      22.943  13.548  28.6420  0.00  0.00     0.000 O
ATOM     12   O  A00 X   1      23.998  13.866  30.7750  0.00  0.00     0.000 OA
ATOM     13   O  A00 X   1      21.683  14.549  30.4790  0.00  0.00     0.000 OA
ATOM     14   O  A00 X   1      23.434  15.712  29.3670  0.00  0.00     0.000 OA
ATOM     15   S  A00 X   1      23.002  14.456  29.9180  0.00  0.00     0.000 S
ENDBRANCH 2 11
BRANCH 5 16
ATOM     16   C  A00 X   1      19.271  10.826  27.9710  0.00  0.00     0.000 C
ATOM     17   O  A00 X   1      18.231  11.359  27.6410  0.00  0.00     0.000 OA
ATOM     18   O  A00 X   1      19.377  10.395  29.1020  0.00  0.00     0.000 OA
ENDBRANCH 5 16
BRANCH 1 19
ATOM     19  O4  A00 X   2      19.982  13.962  27.3930  0.00  0.00     0.000 O
BRANCH 19 23
ATOM     20  C1  A00 X   2      20.239  15.863  23.5600  0.00  0.00     0.000 C
ATOM     21  C2  A00 X   2      21.065  16.474  24.7180  0.00  0.00     0.000 C
ATOM     22  C3  A00 X   2      21.217  15.466  25.8760  0.00  0.00     0.000 C
ATOM     23  C4  A00 X   2      19.833  14.950  26.3330  0.00  0.00     0.000 C
ATOM     24  C5  A00 X   2      19.102  14.383  25.0860  0.00  0.00     0.000 C
ATOM     25  O5  A00 X   2      18.959  15.444  24.1060  0.00  0.00     0.000 O
ATOM     26   O  A00 X   2      22.046  16.054  26.8930  0.00  0.00     0.000 O
ATOM     28  HD  A00 X   2      21.586  16.787  26.9160  0.00  0.00     0.000 HD
BRANCH 21 30
ATOM     28   N  A00 X   2      22.474  16.838  24.8980  0.00  0.00     0.000 N
ATOM     30  HD  A00 X   2      22.089  17.509  24.5090  0.00  0.00     0.000 HD
ATOM     30   O  A00 X   2      22.671  19.148  24.6110  0.00  0.00     0.000 OA
ATOM     31   S  A00 X   2      23.094  17.955  23.9680  0.00  0.00     0.000 S
ATOM     32   O  A00 X   2      24.500  17.702  24.0270  0.00  0.00     0.000 OA
ATOM     33   O  A00 X   2      22.602  17.722  22.6420  0.00  0.00     0.000 OA
ENDBRANCH 21 30
BRANCH 24 34
ATOM     34   C  A00 X   2      17.790  13.596  25.3090  0.00  0.00     0.000 C
ATOM     35   O  A00 X   2      14.699  14.223  23.4900  0.00  0.00     0.000 OA
ATOM     36   O  A00 X   2      16.664  14.280  24.7240  0.00  0.00     0.000 O
ATOM     37   O  A00 X   2      16.767  13.733  22.4520  0.00  0.00     0.000 OA
ATOM     38   S  A00 X   2      15.921  13.494  23.5820  0.00  0.00     0.000 S
ATOM     39   O  A00 X   2      15.790  12.144  24.0390  0.00  0.00     0.000 OA
ENDBRANCH 24 34
BRANCH 20 40
ATOM     40  O4  A00 X   3      20.975  14.711  23.1250  0.00  0.00     0.000 O
BRANCH 40 44
ATOM     41  C1  A00 X   3      21.888  11.535  21.6390  0.00  0.00     0.000 C
ATOM     42  C2  A00 X   3      22.891  12.634  22.0530  0.00  0.00     0.000 C
ATOM     43  C3  A00 X   3      22.482  14.009  21.4650  0.00  0.00     0.000 C
ATOM     44  C4  A00 X   3      21.031  14.399  21.7160  0.00  0.00     0.000 C
ATOM     45  C5  A00 X   3      20.085  13.248  21.2710  0.00  0.00     0.000 C
ATOM     46  O5  A00 X   3      20.514  11.969  21.8400  0.00  0.00     0.000 O
ATOM     47   O  A00 X   3      23.385  15.085  21.7110  0.00  0.00     0.000 O
ATOM     49  HD  A00 X   3      22.649  15.531  21.8100  0.00  0.00     0.000 HD
BRANCH 42 49
ATOM     49   O  A00 X   3      22.914  12.663  23.4970  0.00  0.00     0.000 O
ATOM     50   O  A00 X   3      23.992  13.972  25.1860  0.00  0.00     0.000 OA
ATOM     51   O  A00 X   3      25.234  13.317  23.2840  0.00  0.00     0.000 OA
ATOM     52   O  A00 X   3      24.567  11.652  24.8230  0.00  0.00     0.000 OA
ATOM     53   S  A00 X   3      24.248  12.917  24.2570  0.00  0.00     0.000 S
ENDBRANCH 42 49
BRANCH 45 54
ATOM     54   C  A00 X   3      19.922  13.206  19.7470  0.00  0.00     0.000 C
ATOM     55   O  A00 X   3      19.187  12.393  19.2250  0.00  0.00     0.000 OA
ATOM     56   O  A00 X   3      20.530  13.987  19.0310  0.00  0.00     0.000 OA
ENDBRANCH 45 54
BRANCH 41 57
ATOM     57  O4  A00 X   4      22.158  11.040  20.3090  0.00  0.00     0.000 O
BRANCH 57 61
ATOM     58  C1  A00 X   4      21.736   7.154  18.4760  0.00  0.00     0.000 C
ATOM     59  C2  A00 X   4      20.466   7.866  19.0040  0.00  0.00     0.000 C
ATOM     60  C3  A00 X   4      20.680   9.365  19.2990  0.00  0.00     0.000 C
ATOM     61  C4  A00 X   4      21.958   9.609  20.1290  0.00  0.00     0.000 C
ATOM     62  C5  A00 X   4      23.128   9.002  19.3160  0.00  0.00     0.000 C
ATOM     63  O5  A00 X   4      22.926   7.571  19.1840  0.00  0.00     0.000 O
BRANCH 59 66
ATOM     64   N  A00 X   4      19.016   7.929  18.7450  0.00  0.00     0.000 N
ATOM     66  HD  A00 X   4      18.516   8.284  19.3560  0.00  0.00     0.000 HD
ATOM     66   O  A00 X   4      18.967   5.536  19.0060  0.00  0.00     0.000 OA
ATOM     67   S  A00 X   4      18.262   6.580  18.3320  0.00  0.00     0.000 S
ATOM     68   O  A00 X   4      16.946   6.857  18.8310  0.00  0.00     0.000 OA
ATOM     69   O  A00 X   4      18.376   6.653  16.9030  0.00  0.00     0.000 OA
ENDBRANCH 59 66
BRANCH 62 70
ATOM     70   C  A00 X   4      24.524   9.245  19.9390  0.00  0.00     0.000 C
ATOM     71   O  A00 X   4      25.936   7.819  22.9520  0.00  0.00     0.000 OA
ATOM     72   O  A00 X   4      25.826  10.054  22.2180  0.00  0.00     0.000 OA
ATOM     73   O  A00 X   4      24.749   8.289  20.9880  0.00  0.00     0.000 O
ATOM     74   O  A00 X   4      23.827   8.979  23.1040  0.00  0.00     0.000 OA
ATOM     75   S  A00 X   4      25.072   8.836  22.4210  0.00  0.00     0.000 S
ENDBRANCH 62 70
ENDBRANCH 57 61
ENDBRANCH 41 57
ENDBRANCH 40 44
ENDBRANCH 20 40
ENDBRANCH 19 23
ENDBRANCH 1 19
TORSDOF 14
ENDMDL
MODEL 100
REMARK VINA RESULT:      -0.4     27.595     31.755
ROOT
ATOM      1  C1  A00 X   1      22.073  41.917  26.3910  0.00  0.00     0.000 C
ATOM      2  C2  A00 X   1      23.519  41.504  26.0070  0.00  0.00     0.000 C
ATOM      3  C3  A00 X   1      24.629  42.578  26.2560  0.00  0.00     0.000 C
ATOM      4  C4  A00 X   1      24.119  44.022  26.5010  0.00  0.00     0.000 C
ATOM      5  C5  A00 X   1      22.719  44.244  25.9300  0.00  0.00     0.000 C
ATOM      6  O5  A00 X   1      21.874  43.327  26.6600  0.00  0.00     0.000 O
ATOM      7   O  A00 X   1      25.475  42.636  25.1100  0.00  0.00     0.000 O
ATOM      9  HD  A00 X   1      25.341  43.451  25.3700  0.00  0.00     0.000 HD
ATOM      9   O  A00 X   1      24.132  44.352  27.8890  0.00  0.00     0.000 O
ATOM     11  HD  A00 X   1      23.998  45.167  28.1500  0.00  0.00     0.000 HD
ENDROOT
BRANCH 2 11
ATOM     11   O  A00 X   1      23.845  40.312  26.7460  0.00  0.00     0.000 O
ATOM     12   O  A00 X   1      26.098  39.496  26.9110  0.00  0.00     0.000 OA
ATOM     13   O  A00 X   1      25.011  39.559  24.7360  0.00  0.00     0.000 OA
ATOM     14   O  A00 X   1      24.270  38.040  26.4100  0.00  0.00     0.000 OA
ATOM     15   S  A00 X   1      24.891  39.310  26.1460  0.00  0.00     0.000 S
ENDBRANCH 2 11
BRANCH 5 16
ATOM     16   C  A00 X   1      22.609  44.099  24.4080  0.00  0.00     0.000 C
ATOM     17   O  A00 X   1      21.505  44.064  23.9060  0.00  0.00     0.000 OA
ATOM     18   O  A00 X   1      23.585  44.026  23.6890  0.00  0.00     0.000 OA
ENDBRANCH 5 16
BRANCH 1 19
ATOM     19  O4  A00 X   2      21.080  41.412  25.4640  0.00  0.00     0.000 O
BRANCH 19 23
ATOM     20  C1  A00 X   2      16.902  40.589  25.9420  0.00  0.00     0.000 C
ATOM     21  C2  A00 X   2      17.337  42.074  25.8960  0.00  0.00     0.000 C
ATOM     22  C3  A00 X   2      18.753  42.213  25.2990  0.00  0.00     0.000 C
ATOM     23  C4  A00 X   2      19.755  41.317  26.0610  0.00  0.00     0.000 C
ATOM     24  C5  A00 X   2      19.198  39.867  26.0510  0.00  0.00     0.000 C
ATOM     25  O5  A00 X   2      17.902  39.860  26.7030  0.00  0.00     0.000 O
ATOM     26   O  A00 X   2      19.083  43.610  25.2150  0.00  0.00     0.000 O
ATOM     28  HD  A00 X   2      18.862  43.764  26.0380  0.00  0.00     0.000 HD
BRANCH 21 30
ATOM     28   N  A00 X   2      16.264  42.374  26.8500  0.00  0.00     0.000 N
ATOM     30  HD  A00 X   2      16.518  43.130  26.5110  0.00  0.00     0.000 HD
ATOM     30   O  A00 X   2      15.499  44.540  26.4250  0.00  0.00     0.000 OA
ATOM     31   S  A00 X   2      16.173  43.831  27.4550  0.00  0.00     0.000 S
ATOM     32   O  A00 X   2      15.419  43.652  28.6570  0.00  0.00     0.000 OA
ATOM     33   O  A00 X   2      17.509  44.247  27.7620  0.00  0.00     0.000 OA
ENDBRANCH 21 30
BRANCH 24 34
ATOM     34   C  A00 X   2      20.123  38.731  26.5490  0.00  0.00     0.000 C
ATOM     35   O  A00 X   2      19.499  35.191  25.9710  0.00  0.00     0.000 OA
ATOM     36   O  A00 X   2      19.459  37.453  26.4900  0.00  0.00     0.000 O
ATOM     37   O  A00 X   2      19.641  36.806  24.2500  0.00  0.00     0.000 OA
ATOM     38   S  A00 X   2      20.123  36.396  25.5330  0.00  0.00     0.000 S
ATOM     39   O  A00 X   2      21.534  36.469  25.7670  0.00  0.00     0.000 OA
ENDBRANCH 24 34
BRANCH 20 40
ATOM     40  O4  A00 X   3      16.914  40.139  24.5800  0.00  0.00     0.000 O
BRANCH 40 44
ATOM     41  C1  A00 X   3      16.474  38.857  21.2200  0.00  0.00     0.000 C
ATOM     42  C2  A00 X   3      15.871  40.179  21.7440  0.00  0.00     0.000 C
ATOM     43  C3  A00 X   3      15.116  39.954  23.0790  0.00  0.00     0.000 C
ATOM     44  C4  A00 X   3      15.911  39.200  24.1370  0.00  0.00     0.000 C
ATOM     45  C5  A00 X   3      16.479  37.883  23.5370  0.00  0.00     0.000 C
ATOM     46  O5  A00 X   3      17.174  38.141  22.2740  0.00  0.00     0.000 O
ATOM     47   O  A00 X   3      14.443  41.093  23.6140  0.00  0.00     0.000 O
ATOM     49  HD  A00 X   3      14.733  40.771  24.3640  0.00  0.00     0.000 HD
BRANCH 42 49
ATOM     49   O  A00 X   3      16.965  41.108  21.9060  0.00  0.00     0.000 O
ATOM     50   O  A00 X   3      17.215  43.388  22.5900  0.00  0.00     0.000 OA
ATOM     51   O  A00 X   3      15.412  42.813  21.1740  0.00  0.00     0.000 OA
ATOM     52   O  A00 X   3      17.608  42.701  20.3050  0.00  0.00     0.000 OA
ATOM     53   S  A00 X   3      16.805  42.595  21.4750  0.00  0.00     0.000 S
ENDBRANCH 42 49
BRANCH 45 54
ATOM     54   C  A00 X   3      15.400  36.800  23.4220  0.00  0.00     0.000 C
ATOM     55   O  A00 X   3      15.696  35.660  23.1280  0.00  0.00     0.000 OA
ATOM     56   O  A00 X   3      14.225  37.064  23.6220  0.00  0.00     0.000 OA
ENDBRANCH 45 54
BRANCH 41 57
ATOM     57  O4  A00 X   4      15.490  38.062  20.5230  0.00  0.00     0.000 O
BRANCH 57 61
ATOM     58  C1  A00 X   4      15.749  35.320  17.1980  0.00  0.00     0.000 C
ATOM     59  C2  A00 X   4      16.533  34.991  18.4920  0.00  0.00     0.000 C
ATOM     60  C3  A00 X   4      16.088  35.827  19.7090  0.00  0.00     0.000 C
ATOM     61  C4  A00 X   4      15.992  37.330  19.3680  0.00  0.00     0.000 C
ATOM     62  C5  A00 X   4      14.997  37.445  18.1860  0.00  0.00     0.000 C
ATOM     63  O5  A00 X   4      15.537  36.741  17.0380  0.00  0.00     0.000 O
BRANCH 59 66
ATOM     64   N  A00 X   4      17.602  35.464  17.5940  0.00  0.00     0.000 N
ATOM     66  HD  A00 X   4      17.363  35.816  16.8390  0.00  0.00     0.000 HD
ATOM     66   O  A00 X   4      18.173  33.155  17.2210  0.00  0.00     0.000 OA
ATOM     67   S  A00 X   4      18.779  34.450  17.2180  0.00  0.00     0.000 S
ATOM     68   O  A00 X   4      19.152  34.953  15.9280  0.00  0.00     0.000 OA
ATOM     69   O  A00 X   4      19.717  34.752  18.2610  0.00  0.00     0.000 OA
ENDBRANCH 59 66
BRANCH 62 70
ATOM     70   C  A00 X   4      14.681  38.901  17.7660  0.00  0.00     0.000 C
ATOM     71   O  A00 X   4      16.805  41.269  16.0380  0.00  0.00     0.000 OA
ATOM     72   O  A00 X   4      15.516  41.507  17.9950  0.00  0.00     0.000 OA
ATOM     73   O  A00 X   4      15.716  39.378  16.8920  0.00  0.00     0.000 O
ATOM     74   O  A00 X   4      17.614  40.270  18.0790  0.00  0.00     0.000 OA
ATOM     75   S  A00 X   4      16.484  40.680  17.3090  0.00  0.00     0.000 S
ENDBRANCH 62 70
ENDBRANCH 57 61
ENDBRANCH 41 57
ENDBRANCH 40 44
ENDBRANCH 20 40
ENDBRANCH 19 23
ENDBRANCH 1 19
TORSDOF 14
ENDMDL
