ROOT
ATOM      1  C1  Z9H D   1      25.400   8.082  -14.610  0.00  0.00     0.000 C
ATOM      2  C2  Z9H D   1      26.160   7.097  -15.530  0.00  0.00     0.000 C
ATOM      3  C3  Z9H D   1      27.380   8.007  -15.870  0.00  0.00     0.000 C
ATOM      4  C4  Z9H D   1      27.020   9.467  -16.370  0.00  0.00     0.000 C
ATOM      5  C5  Z9H D   1      25.970  10.396  -15.640  0.00  0.00     0.000 C
ATOM      6  O5  Z9H D   1      25.060   9.416  -15.080  0.00  0.00     0.000 O
ATOM      7   O  Z9H D   1      28.270   7.372  -16.790  0.00  0.00     0.000 O
ATOM      8   C  Z9H D   1      29.420   6.743  -16.200  0.00  0.00     0.000 C
ATOM      9   O  Z9H D   1      28.260  10.181  -16.410  0.00  0.00     0.000 O
ATOM     10   C  Z9H D   1      28.870  10.287  -17.700  0.00  0.00     0.000 C
ENDROOT
BRANCH 2 11
ATOM     11   O  Z9H D   1      26.650   6.157  -14.610  0.00  0.00     0.000 O
ATOM     12   O  Z9H D   1      26.410   4.293  -14.770  0.00  0.00     0.000 OA
ATOM     13   S  Z9H D   1      25.960   5.254  -15.720  0.00  0.00     0.000 S
ATOM     14   O  Z9H D   1      26.760   5.312  -16.910  0.00  0.00     0.000 OA
ATOM     15   O  Z9H D   1      24.520   5.366  -15.680  0.00  0.00     0.000 O
ENDBRANCH 2 11
BRANCH 5 16
ATOM     16   C  Z9H D   1      25.410  11.684  -16.550  0.00  0.00     0.000 C
ATOM     17   S  Z9H D   1      24.160  13.258  -16.550  0.00  0.00     0.000 S
ATOM     18   O  Z9H D   1      25.170  12.578  -15.490  0.00  0.00     0.000 O
ATOM     19   O  Z9H D   1      23.010  12.466  -16.880  0.00  0.00     0.000 O
ATOM     20   O  Z9H D   1      24.890  14.010  -17.510  0.00  0.00     0.000 OA
ATOM     21   O  Z9H D   1      23.920  14.107  -15.420  0.00  0.00     0.000 OA
ENDBRANCH 5 16
BRANCH 1 22
ATOM     22  O4  GU1 D   2      26.090   8.410  -13.350  0.00  0.00     0.000 O
BRANCH 22 26
ATOM     23  C1  GU1 D   2      25.450   8.688   -9.290  0.00  0.00     0.000 C
ATOM     24  C2  GU1 D   2      24.400   7.892  -10.050  0.00  0.00     0.000 C
ATOM     25  C3  GU1 D   2      24.930   7.541  -11.410  0.00  0.00     0.000 C
ATOM     26  C4  GU1 D   2      25.420   8.783  -12.140  0.00  0.00     0.000 C
ATOM     27  C5  GU1 D   2      26.390   9.566  -11.250  0.00  0.00     0.000 C
ATOM     28  O5  GU1 D   2      25.780   9.876  -10.000  0.00  0.00     0.000 O
ATOM     29   O  GU1 D   2      24.060   6.684   -9.380  0.00  0.00     0.000 O
ATOM     30   C  GU1 D   2      22.890   6.780   -8.580  0.00  0.00     0.000 C
ATOM     31   C  GU1 D   2      23.930   5.532  -12.280  0.00  0.00     0.000 C
ATOM     32   O  GU1 D   2      23.870   6.952  -12.170  0.00  0.00     0.000 O
BRANCH 27 33
ATOM     33   C  GU1 D   2      26.800  10.866  -11.900  0.00  0.00     0.000 C
ATOM     34   O  GU1 D   2      27.970  11.028  -12.180  0.00  0.00     0.000 OA
ATOM     35   O  GU1 D   2      25.970  11.729  -12.140  0.00  0.00     0.000 O
ENDBRANCH 27 33
BRANCH 23 36
ATOM     36  O4  GU6 D   3      25.100   9.353   -8.060  0.00  0.00     0.000 O
BRANCH 36 40
ATOM     37  C1  GU6 D   3      25.740   9.705   -4.040  0.00  0.00     0.000 C
ATOM     38  C2  GU6 D   3      26.220  10.903   -4.850  0.00  0.00     0.000 C
ATOM     39  C3  GU6 D   3      25.700  10.800   -6.260  0.00  0.00     0.000 C
ATOM     40  C4  GU6 D   3      25.060   9.542   -6.660  0.00  0.00     0.000 C
ATOM     41  C5  GU6 D   3      25.820   8.339   -6.010  0.00  0.00     0.000 C
ATOM     42  O5  GU6 D   3      26.230   8.521   -4.650  0.00  0.00     0.000 O
BRANCH 38 43
ATOM     43   O  GU6 D   3      25.780  12.111   -4.260  0.00  0.00     0.000 O
ATOM     44   S  GU6 D   3      26.690  12.642   -3.160  0.00  0.00     0.000 S
ATOM     45   O  GU6 D   3      26.380  11.927   -1.910  0.00  0.00     0.000 OA
ATOM     46   O  GU6 D   3      28.090  12.380   -3.540  0.00  0.00     0.000 O
ATOM     47   O  GU6 D   3      26.470  14.078   -3.020  0.00  0.00     0.000 OA
ENDBRANCH 38 43
BRANCH 39 48
ATOM     48   O  GU6 D   3      25.620  11.943   -7.090  0.00  0.00     0.000 O
ATOM     49   S  GU6 D   3      24.420  12.826   -7.430  0.00  0.00     0.000 S
ATOM     50   O  GU6 D   3      23.800  13.332   -6.200  0.00  0.00     0.000 OA
ATOM     51   O  GU6 D   3      25.020  13.917   -8.210  0.00  0.00     0.000 OA
ATOM     52   O  GU6 D   3      23.440  12.028   -8.200  0.00  0.00     0.000 O
ENDBRANCH 39 48
BRANCH 41 53
ATOM     53   C  GU6 D   3      26.170   7.004   -6.610  0.00  0.00     0.000 C
ATOM     54   O  GU6 D   3      27.540   7.238   -6.810  0.00  0.00     0.000 O
ATOM     55   S  GU6 D   3      28.410   6.199   -7.530  0.00  0.00     0.000 S
ATOM     56   O  GU6 D   3      27.930   6.136   -8.930  0.00  0.00     0.000 O
ATOM     57   O  GU6 D   3      29.810   6.645   -7.480  0.00  0.00     0.000 OA
ATOM     58   O  GU6 D   3      28.210   4.905   -6.840  0.00  0.00     0.000 OA
ENDBRANCH 41 53
BRANCH 37 59
ATOM     59  O4  Z9K D   4      24.370   9.457   -3.660  0.00  0.00     0.000 O
BRANCH 59 63
ATOM     60  C1  Z9K D   4      21.970   9.334   -0.550  0.00  0.00     0.000 C
ATOM     61  C2  Z9K D   4      23.260   8.700    0.040  0.00  0.00     0.000 C
ATOM     62  C3  Z9K D   4      24.280   8.920   -1.160  0.00  0.00     0.000 C
ATOM     63  C4  Z9K D   4      23.820   8.585   -2.630  0.00  0.00     0.000 C
ATOM     64  C5  Z9K D   4      22.310   8.669   -2.900  0.00  0.00     0.000 C
ATOM     65  O5  Z9K D   4      21.880   9.724   -2.000  0.00  0.00     0.000 O
ATOM     66   O  Z9K D   4      25.520   8.210   -0.990  0.00  0.00     0.000 O
ATOM     67   C  Z9K D   4      26.490   8.901   -0.220  0.00  0.00     0.000 C
BRANCH 61 68
ATOM     68   O  Z9K D   4      23.690   9.535    1.080  0.00  0.00     0.000 O
ATOM     69   O  Z9K D   4      24.410   7.112    1.480  0.00  0.00     0.000 OA
ATOM     70   S  Z9K D   4      23.470   8.127    1.850  0.00  0.00     0.000 S
ATOM     71   O  Z9K D   4      22.070   7.930    2.070  0.00  0.00     0.000 OA
ATOM     72   O  Z9K D   4      24.000   8.961    2.880  0.00  0.00     0.000 OA
ENDBRANCH 61 68
BRANCH 64 73
ATOM     73   C  Z9K D   4      22.030   8.822   -4.410  0.00  0.00     0.000 C
ATOM     74   O  Z9K D   4      22.270   7.880   -5.220  0.00  0.00     0.000 O
ATOM     75   O  Z9K D   4      21.550   9.878   -4.890  0.00  0.00     0.000 OA
ENDBRANCH 64 73
BRANCH 60 76
ATOM     76  O4  Z9L D   5      20.620   8.844   -0.480  0.00  0.00     0.000 O
BRANCH 76 80
ATOM     77  C1  Z9L D   5      16.790   9.909   -0.070  0.00  0.00     0.000 C
ATOM     78  C2  Z9L D   5      16.950   9.288   -1.540  0.00  0.00     0.000 C
ATOM     79  C3  Z9L D   5      18.410   8.434   -1.550  0.00  0.00     0.000 C
ATOM     80  C4  Z9L D   5      19.390   9.474   -0.730  0.00  0.00     0.000 C
ATOM     81  C5  Z9L D   5      19.150  10.290    0.640  0.00  0.00     0.000 C
ATOM     82  O5  Z9L D   5      17.800  10.775    0.590  0.00  0.00     0.000 O
ATOM     83   C  Z9L D   5      16.230   9.256    2.200  0.00  0.00     0.000 C
ATOM     84   C  Z9L D   5      16.230   9.256    2.200  0.00  0.00     0.000 C
BRANCH 78 85
ATOM     85   O  Z9L D   5      15.900   8.399   -1.750  0.00  0.00     0.000 O
ATOM     86   O  Z9L D   5      14.370   8.738   -2.870  0.00  0.00     0.000 OA
ATOM     87   S  Z9L D   5      15.510   9.595   -2.750  0.00  0.00     0.000 S
ATOM     88   O  Z9L D   5      16.170   9.521   -4.030  0.00  0.00     0.000 OA
ATOM     89   O  Z9L D   5      15.020  10.788   -2.150  0.00  0.00     0.000 OA
ENDBRANCH 78 85
BRANCH 79 90
ATOM     90   O  Z9L D   5      18.980   8.419   -2.820  0.00  0.00     0.000 O
ATOM     91   S  Z9L D   5      19.000   6.859   -2.500  0.00  0.00     0.000 S
ATOM     92   O  Z9L D   5      17.810   6.129   -2.150  0.00  0.00     0.000 OA
ATOM     93   O  Z9L D   5      20.280   6.503   -1.940  0.00  0.00     0.000 O
ATOM     94   O  Z9L D   5      19.130   6.800   -3.920  0.00  0.00     0.000 OA
ENDBRANCH 79 90
BRANCH 81 95
ATOM     95   C  Z9L D   5      20.360  11.343    1.130  0.00  0.00     0.000 C
ATOM     96   S  Z9L D   5      20.940  13.248    1.170  0.00  0.00     0.000 S
ATOM     97   O  Z9L D   5      20.170  12.328    0.150  0.00  0.00     0.000 O
ATOM     98   O  Z9L D   5      22.320  12.836    1.140  0.00  0.00     0.000 OA
ATOM     99   O  Z9L D   5      20.270  13.505    2.400  0.00  0.00     0.000 OA
ATOM    100   O  Z9L D   5      20.730  14.214    0.120  0.00  0.00     0.000 O
ENDBRANCH 81 95
ENDBRANCH 76 80
ENDBRANCH 60 76
ENDBRANCH 59 63
ENDBRANCH 37 59
ENDBRANCH 36 40
ENDBRANCH 23 36
ENDBRANCH 22 26
ENDBRANCH 1 22
TORSDOF 19