MODEL 1
REMARK VINA RESULT:     -10.7      0.000      0.000
ROOT
ATOM      1  C1  BGC B   1      19.309   4.300 -11.3560  0.00  0.00     0.000 C
ATOM      2  C2  BGC B   1      20.547   5.192 -11.4300  0.00  0.00     0.000 C
ATOM      3  C3  BGC B   1      20.399   6.370 -10.4860  0.00  0.00     0.000 C
ATOM      4  C4  BGC B   1      19.080   7.092 -10.7290  0.00  0.00     0.000 C
ATOM      5  C5  BGC B   1      17.948   6.083 -10.6060  0.00  0.00     0.000 C
ATOM      6  O5  BGC B   1      18.152   5.082 -11.6200  0.00  0.00     0.000 O
ATOM      7   O  BGC B   1      21.704   4.427 -11.0540  0.00  0.00     0.000 O
ATOM      9  HD  BGC B   1      22.373   4.854 -10.7070  0.00  0.00     0.000 HD
ATOM      9   O  BGC B   1      21.507   7.255 -10.6740  0.00  0.00     0.000 O
ATOM     11  HD  BGC B   1      22.176   7.681 -10.3260  0.00  0.00     0.000 HD
ATOM     11   O  BGC B   1      18.917   8.116  -9.7720  0.00  0.00     0.000 O
ATOM     13  HD  BGC B   1      19.586   8.542  -9.4240  0.00  0.00     0.000 HD
ATOM     13   C  BGC B   1      16.552   6.665 -10.7760  0.00  0.00     0.000 C
ATOM     14   O  BGC B   1      16.402   7.365 -12.0070  0.00  0.00     0.000 O
ATOM     16  HD  BGC B   1      17.071   7.792 -11.6590  0.00  0.00     0.000 HD
ENDROOT
BRANCH 1 16
ATOM     16  O4  BGC B   2      19.405   3.394 -12.4520  0.00  0.00     0.000 O
BRANCH 16 20
ATOM     17  C1  BGC B   2      18.396  -0.380 -13.5820  0.00  0.00     0.000 C
ATOM     18  C2  BGC B   2      17.201   0.546 -13.4100  0.00  0.00     0.000 C
ATOM     19  C3  BGC B   2      17.708   1.985 -13.3520  0.00  0.00     0.000 C
ATOM     20  C4  BGC B   2      18.769   2.130 -12.2790  0.00  0.00     0.000 C
ATOM     21  C5  BGC B   2      19.851   1.054 -12.3810  0.00  0.00     0.000 C
ATOM     22  O5  BGC B   2      19.217  -0.230 -12.4090  0.00  0.00     0.000 O
ATOM     23   O  BGC B   2      16.305   0.409 -14.5250  0.00  0.00     0.000 O
ATOM     25  HD  BGC B   2      16.895   1.003 -14.3040  0.00  0.00     0.000 HD
ATOM     25   O  BGC B   2      16.624   2.871 -13.0950  0.00  0.00     0.000 O
ATOM     27  HD  BGC B   2      17.214   3.465 -12.8740  0.00  0.00     0.000 HD
ATOM     27   C  BGC B   2      20.817   1.070 -11.2030  0.00  0.00     0.000 C
ATOM     28   O  BGC B   2      20.173   0.939  -9.9460  0.00  0.00     0.000 O
ATOM     30  HD  BGC B   2      20.763   1.533  -9.7250  0.00  0.00     0.000 HD
BRANCH 17 30
ATOM     30  O4  BGC B   3      17.899  -1.704 -13.5190  0.00  0.00     0.000 O
BRANCH 30 34
ATOM     31  C1  BGC B   3      18.566  -5.397 -15.2050  0.00  0.00     0.000 C
ATOM     32  C2  BGC B   3      19.638  -4.950 -14.2120  0.00  0.00     0.000 C
ATOM     33  C3  BGC B   3      19.092  -3.801 -13.3840  0.00  0.00     0.000 C
ATOM     34  C4  BGC B   3      18.610  -2.673 -14.2960  0.00  0.00     0.000 C
ATOM     35  C5  BGC B   3      17.657  -3.215 -15.3470  0.00  0.00     0.000 C
ATOM     36  O5  BGC B   3      18.286  -4.292 -16.0490  0.00  0.00     0.000 O
ATOM     37   O  BGC B   3      19.955  -6.029 -13.3360  0.00  0.00     0.000 O
ATOM     39  HD  BGC B   3      20.619  -5.564 -13.0310  0.00  0.00     0.000 HD
ATOM     39   O  BGC B   3      20.120  -3.341 -12.5190  0.00  0.00     0.000 O
ATOM     41  HD  BGC B   3      20.785  -2.876 -12.2140  0.00  0.00     0.000 HD
ATOM     41   C  BGC B   3      17.196  -2.173 -16.3600  0.00  0.00     0.000 C
ATOM     42   O  BGC B   3      18.307  -1.605 -17.0130  0.00  0.00     0.000 O
ATOM     44  HD  BGC B   3      18.971  -1.141 -16.7080  0.00  0.00     0.000 HD
BRANCH 31 44
ATOM     44  O4  BGC B   4      19.140  -6.387 -16.0190  0.00  0.00     0.000 O
BRANCH 44 48
ATOM     45  C1  BGC B   4      18.032  -9.450 -18.5080  0.00  0.00     0.000 C
ATOM     46  C2  BGC B   4      18.015  -8.069 -19.1490  0.00  0.00     0.000 C
ATOM     47  C3  BGC B   4      18.798  -7.106 -18.2910  0.00  0.00     0.000 C
ATOM     48  C4  BGC B   4      18.271  -7.127 -16.8520  0.00  0.00     0.000 C
ATOM     49  C5  BGC B   4      18.224  -8.563 -16.3160  0.00  0.00     0.000 C
ATOM     50  O5  BGC B   4      17.453  -9.387 -17.2040  0.00  0.00     0.000 O
ATOM     51   O  BGC B   4      18.613  -8.125 -20.4580  0.00  0.00     0.000 O
ATOM     53  HD  BGC B   4      19.274  -7.777 -20.0200  0.00  0.00     0.000 HD
ATOM     53   O  BGC B   4      18.664  -5.786 -18.8360  0.00  0.00     0.000 O
ATOM     55  HD  BGC B   4      19.325  -5.438 -18.3980  0.00  0.00     0.000 HD
ATOM     55   C  BGC B   4      17.605  -8.698 -14.9360  0.00  0.00     0.000 C
ATOM     56   O  BGC B   4      16.304  -8.109 -14.9830  0.00  0.00     0.000 O
ATOM     58  HD  BGC B   4      16.965  -7.760 -14.5450  0.00  0.00     0.000 HD
BRANCH 45 58
ATOM     58  O4  BGC B   5      17.073 -10.226 -19.2270  0.00  0.00     0.000 O
BRANCH 58 62
ATOM     59  C1  BGC B   5      16.375 -14.302 -19.4370  0.00  0.00     0.000 C
ATOM     60  C2  BGC B   5      15.186 -13.460 -19.0210  0.00  0.00     0.000 C
ATOM     61  C3  BGC B   5      15.417 -12.003 -19.3740  0.00  0.00     0.000 C
ATOM     62  C4  BGC B   5      16.727 -11.533 -18.7630  0.00  0.00     0.000 C
ATOM     63  C5  BGC B   5      17.876 -12.473 -19.1570  0.00  0.00     0.000 C
ATOM     64  O5  BGC B   5      17.537 -13.801 -18.7690  0.00  0.00     0.000 O
ATOM     65   O  BGC B   5      18.938 -12.152 -17.0920  0.00  0.00     0.000 O
ATOM     67  HD  BGC B   5      18.974 -11.596 -16.4290  0.00  0.00     0.000 HD
ATOM     67   O  BGC B   5      18.938 -12.152 -17.0920  0.00  0.00     0.000 O
ATOM     69  HD  BGC B   5      18.974 -11.596 -16.4290  0.00  0.00     0.000 HD
ENDBRANCH 58 62
ENDBRANCH 45 58
ENDBRANCH 44 48
ENDBRANCH 31 44
ENDBRANCH 30 34
ENDBRANCH 17 30
ENDBRANCH 16 20
ENDBRANCH 1 16
TORSDOF 8
ENDMDL
MODEL 2
REMARK VINA RESULT:     -10.0      2.047      6.179
ROOT
ATOM      1  C1  BGC B   1      18.712   9.279  -9.6050  0.00  0.00     0.000 C
ATOM      2  C2  BGC B   1      17.786   9.719  -8.4730  0.00  0.00     0.000 C
ATOM      3  C3  BGC B   1      17.649  11.230  -8.4690  0.00  0.00     0.000 C
ATOM      4  C4  BGC B   1      19.020  11.895  -8.4640  0.00  0.00     0.000 C
ATOM      5  C5  BGC B   1      19.814  11.370  -9.6520  0.00  0.00     0.000 C
ATOM      6  O5  BGC B   1      19.958   9.948  -9.4780  0.00  0.00     0.000 O
ATOM      7   O  BGC B   1      16.490   9.128  -8.6640  0.00  0.00     0.000 O
ATOM      9  HD  BGC B   1      15.804   9.549  -8.3450  0.00  0.00     0.000 HD
ATOM      9   O  BGC B   1      16.888  11.622  -7.3230  0.00  0.00     0.000 O
ATOM     11  HD  BGC B   1      16.202  12.044  -7.0040  0.00  0.00     0.000 HD
ATOM     11   O  BGC B   1      18.868  13.294  -8.5680  0.00  0.00     0.000 O
ATOM     13  HD  BGC B   1      18.182  13.715  -8.2480  0.00  0.00     0.000 HD
ATOM     13   C  BGC B   1      21.199  11.981  -9.8140  0.00  0.00     0.000 C
ATOM     14   O  BGC B   1      21.994  11.841  -8.6400  0.00  0.00     0.000 O
ATOM     16  HD  BGC B   1      21.308  12.262  -8.3210  0.00  0.00     0.000 HD
ENDROOT
BRANCH 1 16
ATOM     16  O4  BGC B   2      19.003   7.903  -9.3690  0.00  0.00     0.000 O
BRANCH 16 20
ATOM     17  C1  BGC B   2      19.676   4.397 -11.3180  0.00  0.00     0.000 C
ATOM     18  C2  BGC B   2      20.805   5.407 -11.4680  0.00  0.00     0.000 C
ATOM     19  C3  BGC B   2      20.616   6.504 -10.4230  0.00  0.00     0.000 C
ATOM     20  C4  BGC B   2      19.228   7.101 -10.5260  0.00  0.00     0.000 C
ATOM     21  C5  BGC B   2      18.135   6.032 -10.5620  0.00  0.00     0.000 C
ATOM     22  O5  BGC B   2      18.448   5.095 -11.6000  0.00  0.00     0.000 O
ATOM     23   O  BGC B   2      22.073   4.766 -11.2530  0.00  0.00     0.000 O
ATOM     25  HD  BGC B   2      21.574   5.280 -10.7660  0.00  0.00     0.000 HD
ATOM     25   O  BGC B   2      21.602   7.515 -10.5980  0.00  0.00     0.000 O
ATOM     27  HD  BGC B   2      21.103   8.029 -10.1120  0.00  0.00     0.000 HD
ATOM     27   C  BGC B   2      16.754   6.605 -10.8560  0.00  0.00     0.000 C
ATOM     28   O  BGC B   2      16.697   7.345 -12.0640  0.00  0.00     0.000 O
ATOM     30  HD  BGC B   2      16.198   7.859 -11.5780  0.00  0.00     0.000 HD
BRANCH 17 30
ATOM     30  O4  BGC B   3      19.820   3.463 -12.3710  0.00  0.00     0.000 O
BRANCH 30 34
ATOM     31  C1  BGC B   3      18.744  -0.387 -13.3440  0.00  0.00     0.000 C
ATOM     32  C2  BGC B   3      17.573   0.587 -13.2210  0.00  0.00     0.000 C
ATOM     33  C3  BGC B   3      18.109   2.007 -13.2600  0.00  0.00     0.000 C
ATOM     34  C4  BGC B   3      19.169   2.203 -12.1770  0.00  0.00     0.000 C
ATOM     35  C5  BGC B   3      20.226   1.116 -12.2700  0.00  0.00     0.000 C
ATOM     36  O5  BGC B   3      19.594  -0.168 -12.2290  0.00  0.00     0.000 O
ATOM     37   O  BGC B   3      16.687   0.408 -14.3230  0.00  0.00     0.000 O
ATOM     39  HD  BGC B   3      16.120   0.932 -13.9310  0.00  0.00     0.000 HD
ATOM     39   O  BGC B   3      17.025   2.903 -13.0680  0.00  0.00     0.000 O
ATOM     41  HD  BGC B   3      16.457   3.427 -12.6760  0.00  0.00     0.000 HD
ATOM     41   C  BGC B   3      21.278   1.179 -11.1680  0.00  0.00     0.000 C
ATOM     42   O  BGC B   3      20.662   1.098  -9.9040  0.00  0.00     0.000 O
ATOM     44  HD  BGC B   3      20.094   1.622  -9.5120  0.00  0.00     0.000 HD
BRANCH 31 44
ATOM     44  O4  BGC B   4      18.223  -1.683 -13.2000  0.00  0.00     0.000 O
BRANCH 44 48
ATOM     45  C1  BGC B   4      18.743  -5.501 -14.6000  0.00  0.00     0.000 C
ATOM     46  C2  BGC B   4      19.894  -4.969 -13.7570  0.00  0.00     0.000 C
ATOM     47  C3  BGC B   4      19.435  -3.753 -12.9900  0.00  0.00     0.000 C
ATOM     48  C4  BGC B   4      18.836  -2.716 -13.9450  0.00  0.00     0.000 C
ATOM     49  C5  BGC B   4      17.757  -3.356 -14.8280  0.00  0.00     0.000 C
ATOM     50  O5  BGC B   4      18.302  -4.494 -15.5120  0.00  0.00     0.000 O
ATOM     51   O  BGC B   4      20.330  -5.976 -12.8250  0.00  0.00     0.000 O
ATOM     53  HD  BGC B   4      19.869  -5.480 -12.2850  0.00  0.00     0.000 HD
ATOM     53   O  BGC B   4      20.561  -3.187 -12.3050  0.00  0.00     0.000 O
ATOM     55  HD  BGC B   4      20.100  -2.690 -11.7650  0.00  0.00     0.000 HD
ATOM     55   C  BGC B   4      17.185  -2.432 -15.8890  0.00  0.00     0.000 C
ATOM     56   O  BGC B   4      18.276  -1.934 -16.6660  0.00  0.00     0.000 O
ATOM     58  HD  BGC B   4      17.815  -1.438 -16.1260  0.00  0.00     0.000 HD
BRANCH 45 58
ATOM     58  O4  BGC B   5      19.317  -6.471 -15.4760  0.00  0.00     0.000 O
BRANCH 58 62
ATOM     59  C1  BGC B   5      18.313  -9.319 -18.3100  0.00  0.00     0.000 C
ATOM     60  C2  BGC B   5      17.881  -7.902 -18.6310  0.00  0.00     0.000 C
ATOM     61  C3  BGC B   5      18.638  -6.907 -17.7720  0.00  0.00     0.000 C
ATOM     62  C4  BGC B   5      18.468  -7.268 -16.3060  0.00  0.00     0.000 C
ATOM     63  C5  BGC B   5      18.846  -8.737 -16.0620  0.00  0.00     0.000 C
ATOM     64  O5  BGC B   5      18.065  -9.561 -16.9210  0.00  0.00     0.000 O
ATOM     65   O  BGC B   5      17.214  -8.951 -14.3920  0.00  0.00     0.000 O
ATOM     67  HD  BGC B   5      16.741  -8.476 -13.8440  0.00  0.00     0.000 HD
ATOM     67   O  BGC B   5      17.214  -8.951 -14.3920  0.00  0.00     0.000 O
ATOM     69  HD  BGC B   5      16.741  -8.476 -13.8440  0.00  0.00     0.000 HD
ENDBRANCH 58 62
ENDBRANCH 45 58
ENDBRANCH 44 48
ENDBRANCH 31 44
ENDBRANCH 30 34
ENDBRANCH 17 30
ENDBRANCH 16 20
ENDBRANCH 1 16
TORSDOF 8
ENDMDL
MODEL 3
REMARK VINA RESULT:      -9.7      5.633     11.385
ROOT
ATOM      1  C1  BGC B   1      20.663  -6.132 -14.3510  0.00  0.00     0.000 C
ATOM      2  C2  BGC B   1      19.772  -5.413 -13.3400  0.00  0.00     0.000 C
ATOM      3  C3  BGC B   1      20.337  -4.039 -13.0330  0.00  0.00     0.000 C
ATOM      4  C4  BGC B   1      21.804  -4.137 -12.6320  0.00  0.00     0.000 C
ATOM      5  C5  BGC B   1      22.558  -4.859 -13.7380  0.00  0.00     0.000 C
ATOM      6  O5  BGC B   1      21.993  -6.177 -13.8550  0.00  0.00     0.000 O
ATOM      7   O  BGC B   1      18.452  -5.269 -13.8890  0.00  0.00     0.000 O
ATOM      9  HD  BGC B   1      17.973  -4.601 -13.6170  0.00  0.00     0.000 HD
ATOM      9   O  BGC B   1      19.562  -3.443 -11.9880  0.00  0.00     0.000 O
ATOM     11  HD  BGC B   1      19.083  -2.775 -11.7160  0.00  0.00     0.000 HD
ATOM     11   O  BGC B   1      22.334  -2.841 -12.4550  0.00  0.00     0.000 O
ATOM     13  HD  BGC B   1      21.855  -2.173 -12.1830  0.00  0.00     0.000 HD
ATOM     13   C  BGC B   1      24.057  -4.993 -13.5070  0.00  0.00     0.000 C
ATOM     14   O  BGC B   1      24.359  -5.624 -12.2660  0.00  0.00     0.000 O
ATOM     16  HD  BGC B   1      23.880  -4.956 -11.9940  0.00  0.00     0.000 HD
ENDROOT
BRANCH 1 16
ATOM     16  O4  BGC B   2      20.227  -7.490 -14.3710  0.00  0.00     0.000 O
BRANCH 16 20
ATOM     17  C1  BGC B   2      19.666 -10.633 -16.8900  0.00  0.00     0.000 C
ATOM     18  C2  BGC B   2      21.074 -10.057 -16.9340  0.00  0.00     0.000 C
ATOM     19  C3  BGC B   2      21.267  -9.155 -15.7170  0.00  0.00     0.000 C
ATOM     20  C4  BGC B   2      20.170  -8.113 -15.6510  0.00  0.00     0.000 C
ATOM     21  C5  BGC B   2      18.776  -8.724 -15.8020  0.00  0.00     0.000 C
ATOM     22  O5  BGC B   2      18.755  -9.523 -16.9920  0.00  0.00     0.000 O
ATOM     23   O  BGC B   2      22.042 -11.118 -16.8910  0.00  0.00     0.000 O
ATOM     25  HD  BGC B   2      21.748 -10.555 -16.3030  0.00  0.00     0.000 HD
ATOM     25   O  BGC B   2      22.542  -8.525 -15.7790  0.00  0.00     0.000 O
ATOM     27  HD  BGC B   2      22.247  -7.962 -15.1910  0.00  0.00     0.000 HD
ATOM     27   C  BGC B   2      17.678  -7.675 -15.9280  0.00  0.00     0.000 C
ATOM     28   O  BGC B   2      17.887  -6.767 -16.9970  0.00  0.00     0.000 O
ATOM     30  HD  BGC B   2      17.593  -6.204 -16.4090  0.00  0.00     0.000 HD
BRANCH 17 30
ATOM     30  O4  BGC B   3      19.487 -11.369 -18.0850  0.00  0.00     0.000 O
BRANCH 30 34
ATOM     31  C1  BGC B   3      17.716 -14.832 -19.4250  0.00  0.00     0.000 C
ATOM     32  C2  BGC B   3      16.756 -13.843 -18.7640  0.00  0.00     0.000 C
ATOM     33  C3  BGC B   3      17.429 -12.484 -18.6840  0.00  0.00     0.000 C
ATOM     34  C4  BGC B   3      18.768 -12.600 -17.9560  0.00  0.00     0.000 C
ATOM     35  C5  BGC B   3      19.614 -13.698 -18.5760  0.00  0.00     0.000 C
ATOM     36  O5  BGC B   3      18.866 -14.919 -18.5990  0.00  0.00     0.000 O
ATOM     37   O  BGC B   3      15.580 -13.718 -19.5600  0.00  0.00     0.000 O
ATOM     39  HD  BGC B   3      15.215 -13.263 -18.9190  0.00  0.00     0.000 HD
ATOM     39   O  BGC B   3      16.562 -11.593 -18.0000  0.00  0.00     0.000 O
ATOM     41  HD  BGC B   3      16.197 -11.138 -17.3590  0.00  0.00     0.000 HD
ATOM     41   C  BGC B   3      20.933 -13.946 -17.8540  0.00  0.00     0.000 C
ATOM     42   O  BGC B   3      20.695 -14.272 -16.5050  0.00  0.00     0.000 O
ATOM     44  HD  BGC B   3      20.330 -13.817 -15.8650  0.00  0.00     0.000 HD
BRANCH 31 44
ATOM     44  O4  BGC B   4      17.102 -16.095 -19.3890  0.00  0.00     0.000 O
BRANCH 44 48
ATOM     45  C1  BGC B   4      17.826 -20.003 -20.3920  0.00  0.00     0.000 C
ATOM     46  C2  BGC B   4      18.529 -19.528 -19.1280  0.00  0.00     0.000 C
ATOM     47  C3  BGC B   4      17.894 -18.245 -18.6520  0.00  0.00     0.000 C
ATOM     48  C4  BGC B   4      17.881 -17.207 -19.7790  0.00  0.00     0.000 C
ATOM     49  C5  BGC B   4      17.250 -17.796 -21.0460  0.00  0.00     0.000 C
ATOM     50  O5  BGC B   4      17.931 -19.005 -21.4100  0.00  0.00     0.000 O
ATOM     51   O  BGC B   4      18.410 -20.524 -18.0940  0.00  0.00     0.000 O
ATOM     53  HD  BGC B   4      17.807 -19.967 -17.8180  0.00  0.00     0.000 HD
ATOM     53   O  BGC B   4      18.647 -17.742 -17.5390  0.00  0.00     0.000 O
ATOM     55  HD  BGC B   4      18.044 -17.185 -17.2630  0.00  0.00     0.000 HD
ATOM     55   C  BGC B   4      17.297 -16.879 -22.2550  0.00  0.00     0.000 C
ATOM     56   O  BGC B   4      18.661 -16.508 -22.4670  0.00  0.00     0.000 O
ATOM     58  HD  BGC B   4      18.058 -15.952 -22.1910  0.00  0.00     0.000 HD
BRANCH 45 58
ATOM     58  O4  BGC B   5      18.634 -21.056 -20.9170  0.00  0.00     0.000 O
BRANCH 58 62
ATOM     59  C1  BGC B   5      18.391 -24.745 -22.7820  0.00  0.00     0.000 C
ATOM     60  C2  BGC B   5      17.688 -23.608 -23.4950  0.00  0.00     0.000 C
ATOM     61  C3  BGC B   5      18.176 -22.270 -22.9760  0.00  0.00     0.000 C
ATOM     62  C4  BGC B   5      18.014 -22.221 -21.4650  0.00  0.00     0.000 C
ATOM     63  C5  BGC B   5      18.679 -23.440 -20.8100  0.00  0.00     0.000 C
ATOM     64  O5  BGC B   5      18.132 -24.625 -21.3790  0.00  0.00     0.000 O
ATOM     65   O  BGC B   5      17.050 -23.510 -19.1260  0.00  0.00     0.000 O
ATOM     67  HD  BGC B   5      16.461 -23.011 -18.7330  0.00  0.00     0.000 HD
ATOM     67   O  BGC B   5      17.050 -23.510 -19.1260  0.00  0.00     0.000 O
ATOM     69  HD  BGC B   5      16.461 -23.011 -18.7330  0.00  0.00     0.000 HD
ENDBRANCH 58 62
ENDBRANCH 45 58
ENDBRANCH 44 48
ENDBRANCH 31 44
ENDBRANCH 30 34
ENDBRANCH 17 30
ENDBRANCH 16 20
ENDBRANCH 1 16
TORSDOF 8
ENDMDL
MODEL 4
REMARK VINA RESULT:      -9.4      4.885     10.811
ROOT
ATOM      1  C1  BGC B   1      19.294  -5.743 -14.5830  0.00  0.00     0.000 C
ATOM      2  C2  BGC B   1      20.156  -5.024 -13.5470  0.00  0.00     0.000 C
ATOM      3  C3  BGC B   1      19.493  -3.726 -13.1290  0.00  0.00     0.000 C
ATOM      4  C4  BGC B   1      19.132  -2.887 -14.3490  0.00  0.00     0.000 C
ATOM      5  C5  BGC B   1      18.265  -3.729 -15.2730  0.00  0.00     0.000 C
ATOM      6  O5  BGC B   1      19.047  -4.869 -15.6750  0.00  0.00     0.000 O
ATOM      7   O  BGC B   1      20.313  -5.867 -12.3940  0.00  0.00     0.000 O
ATOM      9  HD  BGC B   1      20.445  -5.483 -11.6290  0.00  0.00     0.000 HD
ATOM      9   O  BGC B   1      20.380  -3.011 -12.2630  0.00  0.00     0.000 O
ATOM     11  HD  BGC B   1      20.512  -2.627 -11.4980  0.00  0.00     0.000 HD
ATOM     11   O  BGC B   1      18.423  -1.737 -13.9400  0.00  0.00     0.000 O
ATOM     13  HD  BGC B   1      18.555  -1.353 -13.1760  0.00  0.00     0.000 HD
ATOM     13   C  BGC B   1      17.779  -3.010 -16.5240  0.00  0.00     0.000 C
ATOM     14   O  BGC B   1      18.851  -2.460 -17.2840  0.00  0.00     0.000 O
ATOM     16  HD  BGC B   1      18.982  -2.076 -16.5190  0.00  0.00     0.000 HD
ENDROOT
BRANCH 1 16
ATOM     16  O4  BGC B   2      20.104  -6.788 -15.1180  0.00  0.00     0.000 O
BRANCH 16 20
ATOM     17  C1  BGC B   2      19.747 -10.004 -17.5820  0.00  0.00     0.000 C
ATOM     18  C2  BGC B   2      20.225  -8.743 -18.2880  0.00  0.00     0.000 C
ATOM     19  C3  BGC B   2      20.666  -7.733 -17.2300  0.00  0.00     0.000 C
ATOM     20  C4  BGC B   2      19.557  -7.502 -16.2240  0.00  0.00     0.000 C
ATOM     21  C5  BGC B   2      18.979  -8.811 -15.6830  0.00  0.00     0.000 C
ATOM     22  O5  BGC B   2      18.601  -9.635 -16.7930  0.00  0.00     0.000 O
ATOM     23   O  BGC B   2      21.341  -9.048 -19.1410  0.00  0.00     0.000 O
ATOM     25  HD  BGC B   2      21.270  -8.677 -18.3610  0.00  0.00     0.000 HD
ATOM     25   O  BGC B   2      21.029  -6.507 -17.8540  0.00  0.00     0.000 O
ATOM     27  HD  BGC B   2      20.958  -6.136 -17.0740  0.00  0.00     0.000 HD
ATOM     27   C  BGC B   2      17.742  -8.601 -14.8190  0.00  0.00     0.000 C
ATOM     28   O  BGC B   2      16.707  -7.893 -15.4810  0.00  0.00     0.000 O
ATOM     30  HD  BGC B   2      16.635  -7.522 -14.7010  0.00  0.00     0.000 HD
BRANCH 17 30
ATOM     30  O4  BGC B   3      19.244 -10.867 -18.5840  0.00  0.00     0.000 O
BRANCH 30 34
ATOM     31  C1  BGC B   3      17.804 -14.700 -18.9890  0.00  0.00     0.000 C
ATOM     32  C2  BGC B   3      16.831 -13.723 -18.3320  0.00  0.00     0.000 C
ATOM     33  C3  BGC B   3      17.302 -12.304 -18.6010  0.00  0.00     0.000 C
ATOM     34  C4  BGC B   3      18.743 -12.127 -18.1250  0.00  0.00     0.000 C
ATOM     35  C5  BGC B   3      19.629 -13.217 -18.7030  0.00  0.00     0.000 C
ATOM     36  O5  BGC B   3      19.074 -14.498 -18.3880  0.00  0.00     0.000 O
ATOM     37   O  BGC B   3      15.535 -13.884 -18.9060  0.00  0.00     0.000 O
ATOM     39  HD  BGC B   3      15.217 -13.363 -18.2920  0.00  0.00     0.000 HD
ATOM     39   O  BGC B   3      16.436 -11.407 -17.9230  0.00  0.00     0.000 O
ATOM     41  HD  BGC B   3      16.118 -10.885 -17.3090  0.00  0.00     0.000 HD
ATOM     41   C  BGC B   3      21.070 -13.173 -18.2070  0.00  0.00     0.000 C
ATOM     42   O  BGC B   3      21.103 -13.267 -16.8030  0.00  0.00     0.000 O
ATOM     44  HD  BGC B   3      20.784 -12.746 -16.1890  0.00  0.00     0.000 HD
BRANCH 31 44
ATOM     44  O4  BGC B   4      17.395 -15.996 -18.6350  0.00  0.00     0.000 O
BRANCH 44 48
ATOM     45  C1  BGC B   4      18.055 -19.849 -19.8680  0.00  0.00     0.000 C
ATOM     46  C2  BGC B   4      18.895 -19.408 -18.6770  0.00  0.00     0.000 C
ATOM     47  C3  BGC B   4      18.302 -18.156 -18.0800  0.00  0.00     0.000 C
ATOM     48  C4  BGC B   4      18.140 -17.078 -19.1560  0.00  0.00     0.000 C
ATOM     49  C5  BGC B   4      17.372 -17.632 -20.3630  0.00  0.00     0.000 C
ATOM     50  O5  BGC B   4      18.025 -18.813 -20.8510  0.00  0.00     0.000 O
ATOM     51   O  BGC B   4      18.914 -20.443 -17.6770  0.00  0.00     0.000 O
ATOM     53  HD  BGC B   4      18.340 -19.909 -17.3100  0.00  0.00     0.000 HD
ATOM     53   O  BGC B   4      19.174 -17.680 -17.0450  0.00  0.00     0.000 O
ATOM     55  HD  BGC B   4      18.599 -17.145 -16.6780  0.00  0.00     0.000 HD
ATOM     55   C  BGC B   4      17.263 -16.670 -21.5320  0.00  0.00     0.000 C
ATOM     56   O  BGC B   4      18.586 -16.265 -21.8880  0.00  0.00     0.000 O
ATOM     58  HD  BGC B   4      18.011 -15.730 -21.5220  0.00  0.00     0.000 HD
BRANCH 45 58
ATOM     58  O4  BGC B   5      18.812 -20.866 -20.5250  0.00  0.00     0.000 O
BRANCH 58 62
ATOM     59  C1  BGC B   5      18.404 -24.157 -23.0050  0.00  0.00     0.000 C
ATOM     60  C2  BGC B   5      17.819 -22.865 -23.5380  0.00  0.00     0.000 C
ATOM     61  C3  BGC B   5      18.374 -21.675 -22.7770  0.00  0.00     0.000 C
ATOM     62  C4  BGC B   5      18.139 -21.870 -21.2880  0.00  0.00     0.000 C
ATOM     63  C5  BGC B   5      18.683 -23.230 -20.8280  0.00  0.00     0.000 C
ATOM     64  O5  BGC B   5      18.084 -24.255 -21.6130  0.00  0.00     0.000 O
ATOM     65   O  BGC B   5      16.970 -23.456 -19.2440  0.00  0.00     0.000 O
ATOM     67  HD  BGC B   5      16.398 -22.986 -18.7930  0.00  0.00     0.000 HD
ATOM     67   O  BGC B   5      16.970 -23.456 -19.2440  0.00  0.00     0.000 O
ATOM     69  HD  BGC B   5      16.398 -22.986 -18.7930  0.00  0.00     0.000 HD
ENDBRANCH 58 62
ENDBRANCH 45 58
ENDBRANCH 44 48
ENDBRANCH 31 44
ENDBRANCH 30 34
ENDBRANCH 17 30
ENDBRANCH 16 20
ENDBRANCH 1 16
TORSDOF 8
ENDMDL
MODEL 5
REMARK VINA RESULT:      -9.2      8.058     16.079
ROOT
ATOM      1  C1  BGC B   1      19.256 -10.097 -17.1140  0.00  0.00     0.000 C
ATOM      2  C2  BGC B   1      18.098  -9.301 -16.5130  0.00  0.00     0.000 C
ATOM      3  C3  BGC B   1      18.441  -7.824 -16.4850  0.00  0.00     0.000 C
ATOM      4  C4  BGC B   1      19.787  -7.596 -15.8090  0.00  0.00     0.000 C
ATOM      5  C5  BGC B   1      20.834  -8.438 -16.5240  0.00  0.00     0.000 C
ATOM      6  O5  BGC B   1      20.444  -9.817 -16.3870  0.00  0.00     0.000 O
ATOM      7   O  BGC B   1      16.922  -9.498 -17.3150  0.00  0.00     0.000 O
ATOM      9  HD  BGC B   1      16.330  -8.866 -17.3240  0.00  0.00     0.000 HD
ATOM      9   O  BGC B   1      17.401  -7.121 -15.7990  0.00  0.00     0.000 O
ATOM     11  HD  BGC B   1      16.809  -6.488 -15.8080  0.00  0.00     0.000 HD
ATOM     11   O  BGC B   1      20.132  -6.230 -15.8890  0.00  0.00     0.000 O
ATOM     13  HD  BGC B   1      19.541  -5.597 -15.8990  0.00  0.00     0.000 HD
ATOM     13   C  BGC B   1      22.252  -8.281 -15.9930  0.00  0.00     0.000 C
ATOM     14   O  BGC B   1      22.339  -8.541 -14.5950  0.00  0.00     0.000 O
ATOM     16  HD  BGC B   1      21.747  -7.909 -14.6040  0.00  0.00     0.000 HD
ENDROOT
BRANCH 1 16
ATOM     16  O4  BGC B   2      18.973 -11.470 -16.8500  0.00  0.00     0.000 O
BRANCH 16 20
ATOM     17  C1  BGC B   2      19.345 -15.184 -18.4640  0.00  0.00     0.000 C
ATOM     18  C2  BGC B   2      20.677 -14.508 -18.1730  0.00  0.00     0.000 C
ATOM     19  C3  BGC B   2      20.424 -13.314 -17.2550  0.00  0.00     0.000 C
ATOM     20  C4  BGC B   2      19.377 -12.397 -17.8540  0.00  0.00     0.000 C
ATOM     21  C5  BGC B   2      18.129 -13.155 -18.3070  0.00  0.00     0.000 C
ATOM     22  O5  BGC B   2      18.533 -14.226 -19.1690  0.00  0.00     0.000 O
ATOM     23   O  BGC B   2      21.564 -15.428 -17.5150  0.00  0.00     0.000 O
ATOM     25  HD  BGC B   2      21.079 -14.765 -17.2390  0.00  0.00     0.000 HD
ATOM     25   O  BGC B   2      21.637 -12.603 -17.0400  0.00  0.00     0.000 O
ATOM     27  HD  BGC B   2      21.153 -11.940 -16.7640  0.00  0.00     0.000 HD
ATOM     27   C  BGC B   2      17.150 -12.280 -19.0810  0.00  0.00     0.000 C
ATOM     28   O  BGC B   2      17.730 -11.655 -20.2140  0.00  0.00     0.000 O
ATOM     30  HD  BGC B   2      17.246 -10.993 -19.9380  0.00  0.00     0.000 HD
BRANCH 17 30
ATOM     30  O4  BGC B   3      19.604 -16.210 -19.4030  0.00  0.00     0.000 O
BRANCH 30 34
ATOM     31  C1  BGC B   3      18.303 -19.999 -20.3420  0.00  0.00     0.000 C
ATOM     32  C2  BGC B   3      17.364 -18.877 -20.7860  0.00  0.00     0.000 C
ATOM     33  C3  BGC B   3      18.120 -17.561 -20.7490  0.00  0.00     0.000 C
ATOM     34  C4  BGC B   3      18.715 -17.331 -19.3600  0.00  0.00     0.000 C
ATOM     35  C5  BGC B   3      19.518 -18.544 -18.9230  0.00  0.00     0.000 C
ATOM     36  O5  BGC B   3      18.699 -19.714 -19.0100  0.00  0.00     0.000 O
ATOM     37   O  BGC B   3      16.937 -19.116 -22.1250  0.00  0.00     0.000 O
ATOM     39  HD  BGC B   3      16.368 -18.469 -22.0410  0.00  0.00     0.000 HD
ATOM     39   O  BGC B   3      17.220 -16.516 -21.0870  0.00  0.00     0.000 O
ATOM     41  HD  BGC B   3      16.650 -15.869 -21.0030  0.00  0.00     0.000 HD
ATOM     41   C  BGC B   3      20.075 -18.440 -17.5070  0.00  0.00     0.000 C
ATOM     42   O  BGC B   3      19.028 -18.241 -16.5870  0.00  0.00     0.000 O
ATOM     44  HD  BGC B   3      18.458 -17.594 -16.5030  0.00  0.00     0.000 HD
BRANCH 31 44
ATOM     44  O4  BGC B   4      17.544 -21.180 -20.2900  0.00  0.00     0.000 O
BRANCH 44 48
ATOM     45  C1  BGC B   4      17.920 -25.234 -20.7670  0.00  0.00     0.000 C
ATOM     46  C2  BGC B   4      18.653 -24.662 -19.5620  0.00  0.00     0.000 C
ATOM     47  C3  BGC B   4      18.134 -23.277 -19.2670  0.00  0.00     0.000 C
ATOM     48  C4  BGC B   4      18.222 -22.398 -20.5180  0.00  0.00     0.000 C
ATOM     49  C5  BGC B   4      17.549 -23.089 -21.7110  0.00  0.00     0.000 C
ATOM     50  O5  BGC B   4      18.121 -24.391 -21.9030  0.00  0.00     0.000 O
ATOM     51   O  BGC B   4      18.438 -25.500 -18.4100  0.00  0.00     0.000 O
ATOM     53  HD  BGC B   4      17.886 -24.861 -18.2200  0.00  0.00     0.000 HD
ATOM     53   O  BGC B   4      18.922 -22.702 -18.2150  0.00  0.00     0.000 O
ATOM     55  HD  BGC B   4      18.370 -22.063 -18.0240  0.00  0.00     0.000 HD
ATOM     55   C  BGC B   4      17.688 -22.345 -23.0270  0.00  0.00     0.000 C
ATOM     56   O  BGC B   4      19.080 -22.127 -23.2600  0.00  0.00     0.000 O
ATOM     58  HD  BGC B   4      18.528 -21.488 -23.0690  0.00  0.00     0.000 HD
BRANCH 45 58
ATOM     58  O4  BGC B   5      18.633 -26.413 -21.1360  0.00  0.00     0.000 O
BRANCH 58 62
ATOM     59  C1  BGC B   5      18.065 -30.346 -22.3010  0.00  0.00     0.000 C
ATOM     60  C2  BGC B   5      17.595 -29.300 -23.2920  0.00  0.00     0.000 C
ATOM     61  C3  BGC B   5      18.211 -27.951 -22.9740  0.00  0.00     0.000 C
ATOM     62  C4  BGC B   5      17.913 -27.584 -21.5290  0.00  0.00     0.000 C
ATOM     63  C5  BGC B   5      18.340 -28.718 -20.5840  0.00  0.00     0.000 C
ATOM     64  O5  BGC B   5      17.692 -29.920 -20.9870  0.00  0.00     0.000 O
ATOM     65   O  BGC B   5      16.563 -28.261 -19.1250  0.00  0.00     0.000 O
ATOM     67  HD  BGC B   5      16.013 -27.629 -18.9050  0.00  0.00     0.000 HD
ATOM     67   O  BGC B   5      16.563 -28.261 -19.1250  0.00  0.00     0.000 O
ATOM     69  HD  BGC B   5      16.013 -27.629 -18.9050  0.00  0.00     0.000 HD
ENDBRANCH 58 62
ENDBRANCH 45 58
ENDBRANCH 44 48
ENDBRANCH 31 44
ENDBRANCH 30 34
ENDBRANCH 17 30
ENDBRANCH 16 20
ENDBRANCH 1 16
TORSDOF 8
ENDMDL
MODEL 6
REMARK VINA RESULT:      -9.0      1.773     14.729
ROOT
ATOM      1  C1  BGC B   1      17.879 -10.700 -20.5270  0.00  0.00     0.000 C
ATOM      2  C2  BGC B   1      18.779 -11.630 -21.3390  0.00  0.00     0.000 C
ATOM      3  C3  BGC B   1      17.941 -12.676 -22.0490  0.00  0.00     0.000 C
ATOM      4  C4  BGC B   1      17.017 -13.385 -21.0670  0.00  0.00     0.000 C
ATOM      5  C5  BGC B   1      16.179 -12.335 -20.3510  0.00  0.00     0.000 C
ATOM      6  O5  BGC B   1      17.086 -11.474 -19.6370  0.00  0.00     0.000 O
ATOM      7   O  BGC B   1      19.498 -10.858 -22.3150  0.00  0.00     0.000 O
ATOM      9  HD  BGC B   1      19.742 -11.258 -23.0440  0.00  0.00     0.000 HD
ATOM      9   O  BGC B   1      18.815 -13.610 -22.6910  0.00  0.00     0.000 O
ATOM     11  HD  BGC B   1      19.058 -14.009 -23.4200  0.00  0.00     0.000 HD
ATOM     11   O  BGC B   1      16.176 -14.276 -21.7660  0.00  0.00     0.000 O
ATOM     13  HD  BGC B   1      16.420 -14.675 -22.4950  0.00  0.00     0.000 HD
ATOM     13   C  BGC B   1      15.164 -12.893 -19.3630  0.00  0.00     0.000 C
ATOM     14   O  BGC B   1      15.765 -13.737 -18.3860  0.00  0.00     0.000 O
ATOM     16  HD  BGC B   1      16.009 -14.136 -19.1150  0.00  0.00     0.000 HD
ENDROOT
BRANCH 1 16
ATOM     16  O4  BGC B   2      18.746  -9.940 -19.6870  0.00  0.00     0.000 O
BRANCH 16 20
ATOM     17  C1  BGC B   2      18.678  -6.812 -17.0900  0.00  0.00     0.000 C
ATOM     18  C2  BGC B   2      18.271  -8.137 -16.4620  0.00  0.00     0.000 C
ATOM     19  C3  BGC B   2      18.680  -9.266 -17.4050  0.00  0.00     0.000 C
ATOM     20  C4  BGC B   2      18.113  -9.032 -18.7900  0.00  0.00     0.000 C
ATOM     21  C5  BGC B   2      18.387  -7.617 -19.3000  0.00  0.00     0.000 C
ATOM     22  O5  BGC B   2      17.933  -6.681 -18.3150  0.00  0.00     0.000 O
ATOM     23   O  BGC B   2      18.939  -8.312 -15.2010  0.00  0.00     0.000 O
ATOM     25  HD  BGC B   2      19.065  -8.638 -15.9930  0.00  0.00     0.000 HD
ATOM     25   O  BGC B   2      18.228 -10.514 -16.8910  0.00  0.00     0.000 O
ATOM     27  HD  BGC B   2      18.354 -10.840 -17.6830  0.00  0.00     0.000 HD
ATOM     27   C  BGC B   2      17.663  -7.306 -20.6040  0.00  0.00     0.000 C
ATOM     28   O  BGC B   2      16.259  -7.489 -20.5260  0.00  0.00     0.000 O
ATOM     30  HD  BGC B   2      16.385  -7.815 -21.3180  0.00  0.00     0.000 HD
BRANCH 17 30
ATOM     30  O4  BGC B   3      18.184  -5.790 -16.2450  0.00  0.00     0.000 O
BRANCH 30 34
ATOM     31  C1  BGC B   3      19.108  -1.939 -15.1300  0.00  0.00     0.000 C
ATOM     32  C2  BGC B   3      19.200  -2.204 -16.6320  0.00  0.00     0.000 C
ATOM     33  C3  BGC B   3      18.468  -3.496 -16.9490  0.00  0.00     0.000 C
ATOM     34  C4  BGC B   3      19.024  -4.640 -16.1020  0.00  0.00     0.000 C
ATOM     35  C5  BGC B   3      19.036  -4.254 -14.6340  0.00  0.00     0.000 C
ATOM     36  O5  BGC B   3      19.746  -3.022 -14.4710  0.00  0.00     0.000 O
ATOM     37   O  BGC B   3      18.568  -1.142 -17.3420  0.00  0.00     0.000 O
ATOM     39  HD  BGC B   3      18.884  -1.468 -18.0790  0.00  0.00     0.000 HD
ATOM     39   O  BGC B   3      18.625  -3.775 -18.3320  0.00  0.00     0.000 O
ATOM     41  HD  BGC B   3      18.941  -4.101 -19.0690  0.00  0.00     0.000 HD
ATOM     41   C  BGC B   3      19.661  -5.303 -13.7220  0.00  0.00     0.000 C
ATOM     42   O  BGC B   3      20.984  -5.570 -14.1240  0.00  0.00     0.000 O
ATOM     44  HD  BGC B   3      21.300  -5.897 -14.8610  0.00  0.00     0.000 HD
BRANCH 31 44
ATOM     44  O4  BGC B   4      19.879  -0.797 -14.8610  0.00  0.00     0.000 O
BRANCH 44 48
ATOM     45  C1  BGC B   4      19.820   2.538 -12.4780  0.00  0.00     0.000 C
ATOM     46  C2  BGC B   4      20.404   1.295 -11.8220  0.00  0.00     0.000 C
ATOM     47  C3  BGC B   4      20.734   0.274 -12.8820  0.00  0.00     0.000 C
ATOM     48  C4  BGC B   4      19.504  -0.006 -13.7520  0.00  0.00     0.000 C
ATOM     49  C5  BGC B   4      18.916   1.303 -14.2910  0.00  0.00     0.000 C
ATOM     50  O5  BGC B   4      18.637   2.194 -13.2020  0.00  0.00     0.000 O
ATOM     51   O  BGC B   4      21.607   1.635 -11.1060  0.00  0.00     0.000 O
ATOM     53  HD  BGC B   4      21.963   1.278 -11.8100  0.00  0.00     0.000 HD
ATOM     53   O  BGC B   4      21.160  -0.937 -12.2410  0.00  0.00     0.000 O
ATOM     55  HD  BGC B   4      21.516  -1.294 -12.9450  0.00  0.00     0.000 HD
ATOM     55   C  BGC B   4      17.624   1.137 -15.0710  0.00  0.00     0.000 C
ATOM     56   O  BGC B   4      16.696   0.447 -14.2320  0.00  0.00     0.000 O
ATOM     58  HD  BGC B   4      17.051   0.089 -14.9360  0.00  0.00     0.000 HD
BRANCH 45 58
ATOM     58  O4  BGC B   5      19.302   3.336 -11.4140  0.00  0.00     0.000 O
BRANCH 58 62
ATOM     59  C1  BGC B   5      17.762   7.093 -10.6020  0.00  0.00     0.000 C
ATOM     60  C2  BGC B   5      16.876   6.195 -11.4410  0.00  0.00     0.000 C
ATOM     61  C3  BGC B   5      17.323   4.750 -11.3280  0.00  0.00     0.000 C
ATOM     62  C4  BGC B   5      18.796   4.644 -11.6890  0.00  0.00     0.000 C
ATOM     63  C5  BGC B   5      19.628   5.635 -10.8620  0.00  0.00     0.000 C
ATOM     64  O5  BGC B   5      19.111   6.947 -11.0580  0.00  0.00     0.000 O
ATOM     65   O  BGC B   5      21.122   5.969 -12.6370  0.00  0.00     0.000 O
ATOM     67  HD  BGC B   5      21.401   5.594 -13.3670  0.00  0.00     0.000 HD
ATOM     67   O  BGC B   5      21.122   5.969 -12.6370  0.00  0.00     0.000 O
ATOM     69  HD  BGC B   5      21.401   5.594 -13.3670  0.00  0.00     0.000 HD
ENDBRANCH 58 62
ENDBRANCH 45 58
ENDBRANCH 44 48
ENDBRANCH 31 44
ENDBRANCH 30 34
ENDBRANCH 17 30
ENDBRANCH 16 20
ENDBRANCH 1 16
TORSDOF 8
ENDMDL
MODEL 7
REMARK VINA RESULT:      -8.9      2.236     14.654
ROOT
ATOM      1  C1  BGC B   1      18.834 -11.434 -17.4470  0.00  0.00     0.000 C
ATOM      2  C2  BGC B   1      17.719 -11.977 -18.3400  0.00  0.00     0.000 C
ATOM      3  C3  BGC B   1      17.558 -13.469 -18.1220  0.00  0.00     0.000 C
ATOM      4  C4  BGC B   1      18.896 -14.183 -18.2700  0.00  0.00     0.000 C
ATOM      5  C5  BGC B   1      19.891 -13.545 -17.3120  0.00  0.00     0.000 C
ATOM      6  O5  BGC B   1      20.028 -12.163 -17.6920  0.00  0.00     0.000 O
ATOM      7   O  BGC B   1      16.486 -11.315 -18.0130  0.00  0.00     0.000 O
ATOM      9  HD  BGC B   1      15.748 -11.746 -18.1550  0.00  0.00     0.000 HD
ATOM      9   O  BGC B   1      16.605 -13.973 -19.0620  0.00  0.00     0.000 O
ATOM     11  HD  BGC B   1      15.867 -14.404 -19.2040  0.00  0.00     0.000 HD
ATOM     11   O  BGC B   1      18.739 -15.551 -17.9590  0.00  0.00     0.000 O
ATOM     13  HD  BGC B   1      18.001 -15.982 -18.1010  0.00  0.00     0.000 HD
ATOM     13   C  BGC B   1      21.272 -14.184 -17.3060  0.00  0.00     0.000 C
ATOM     14   O  BGC B   1      21.856 -14.226 -18.6050  0.00  0.00     0.000 O
ATOM     16  HD  BGC B   1      21.118 -14.657 -18.7460  0.00  0.00     0.000 HD
ENDROOT
BRANCH 1 16
ATOM     16  O4  BGC B   2      19.104 -10.112 -17.9080  0.00  0.00     0.000 O
BRANCH 16 20
ATOM     17  C1  BGC B   2      20.372  -6.469 -16.6190  0.00  0.00     0.000 C
ATOM     18  C2  BGC B   2      21.443  -7.548 -16.5510  0.00  0.00     0.000 C
ATOM     19  C3  BGC B   2      20.980  -8.743 -17.3820  0.00  0.00     0.000 C
ATOM     20  C4  BGC B   2      19.606  -9.198 -16.9350  0.00  0.00     0.000 C
ATOM     21  C5  BGC B   2      18.612  -8.041 -16.8370  0.00  0.00     0.000 C
ATOM     22  O5  BGC B   2      19.185  -7.016 -16.0160  0.00  0.00     0.000 O
ATOM     23   O  BGC B   2      22.679  -7.052 -17.0890  0.00  0.00     0.000 O
ATOM     25  HD  BGC B   2      22.062  -7.575 -17.3970  0.00  0.00     0.000 HD
ATOM     25   O  BGC B   2      21.916  -9.808 -17.2620  0.00  0.00     0.000 O
ATOM     27  HD  BGC B   2      21.299 -10.331 -17.5700  0.00  0.00     0.000 HD
ATOM     27   C  BGC B   2      17.285  -8.450 -16.2100  0.00  0.00     0.000 C
ATOM     28   O  BGC B   2      17.426  -9.030 -14.9230  0.00  0.00     0.000 O
ATOM     30  HD  BGC B   2      16.808  -9.554 -15.2310  0.00  0.00     0.000 HD
BRANCH 17 30
ATOM     30  O4  BGC B   3      20.783  -5.430 -15.7510  0.00  0.00     0.000 O
BRANCH 30 34
ATOM     31  C1  BGC B   3      19.517  -1.714 -14.5200  0.00  0.00     0.000 C
ATOM     32  C2  BGC B   3      18.831  -2.883 -13.8160  0.00  0.00     0.000 C
ATOM     33  C3  BGC B   3      19.643  -4.144 -14.0520  0.00  0.00     0.000 C
ATOM     34  C4  BGC B   3      19.836  -4.376 -15.5500  0.00  0.00     0.000 C
ATOM     35  C5  BGC B   3      20.388  -3.125 -16.2110  0.00  0.00     0.000 C
ATOM     36  O5  BGC B   3      19.540  -2.012 -15.9070  0.00  0.00     0.000 O
ATOM     37   O  BGC B   3      18.784  -2.632 -12.4130  0.00  0.00     0.000 O
ATOM     39  HD  BGC B   3      18.265  -3.320 -12.3240  0.00  0.00     0.000 HD
ATOM     39   O  BGC B   3      18.958  -5.238 -13.4600  0.00  0.00     0.000 O
ATOM     41  HD  BGC B   3      18.439  -5.925 -13.3710  0.00  0.00     0.000 HD
ATOM     41   C  BGC B   3      20.526  -3.234 -17.7260  0.00  0.00     0.000 C
ATOM     42   O  BGC B   3      19.280  -3.535 -18.3070  0.00  0.00     0.000 O
ATOM     44  HD  BGC B   3      18.761  -4.222 -18.2180  0.00  0.00     0.000 HD
BRANCH 31 44
ATOM     44  O4  BGC B   4      18.687  -0.591 -14.3660  0.00  0.00     0.000 O
BRANCH 44 48
ATOM     45  C1  BGC B   4      18.879   3.448 -13.6900  0.00  0.00     0.000 C
ATOM     46  C2  BGC B   4      19.474   2.994 -15.0150  0.00  0.00     0.000 C
ATOM     47  C3  BGC B   4      19.004   1.594 -15.3250  0.00  0.00     0.000 C
ATOM     48  C4  BGC B   4      19.316   0.657 -14.1540  0.00  0.00     0.000 C
ATOM     49  C5  BGC B   4      18.771   1.234 -12.8420  0.00  0.00     0.000 C
ATOM     50  O5  BGC B   4      19.285   2.560 -12.6460  0.00  0.00     0.000 O
ATOM     51   O  BGC B   4      19.053   3.877 -16.0730  0.00  0.00     0.000 O
ATOM     53  HD  BGC B   4      18.520   3.212 -16.2280  0.00  0.00     0.000 HD
ATOM     53   O  BGC B   4      19.674   1.132 -16.5070  0.00  0.00     0.000 O
ATOM     55  HD  BGC B   4      19.140   0.468 -16.6620  0.00  0.00     0.000 HD
ATOM     55   C  BGC B   4      19.133   0.431 -11.6050  0.00  0.00     0.000 C
ATOM     56   O  BGC B   4      20.555   0.297 -11.5740  0.00  0.00     0.000 O
ATOM     58  HD  BGC B   4      20.022  -0.367 -11.7290  0.00  0.00     0.000 HD
BRANCH 45 58
ATOM     58  O4  BGC B   5      19.564   4.652 -13.3450  0.00  0.00     0.000 O
BRANCH 58 62
ATOM     59  C1  BGC B   5      18.973   7.922 -10.8750  0.00  0.00     0.000 C
ATOM     60  C2  BGC B   5      18.139   6.701 -10.5470  0.00  0.00     0.000 C
ATOM     61  C3  BGC B   5      18.715   5.467 -11.2150  0.00  0.00     0.000 C
ATOM     62  C4  BGC B   5      18.852   5.716 -12.7090  0.00  0.00     0.000 C
ATOM     63  C5  BGC B   5      19.638   7.008 -12.9720  0.00  0.00     0.000 C
ATOM     64  O5  BGC B   5      18.995   8.084 -12.2970  0.00  0.00     0.000 O
ATOM     65   O  BGC B   5      18.371   7.469 -14.8900  0.00  0.00     0.000 O
ATOM     67  HD  BGC B   5      17.869   7.080 -15.4790  0.00  0.00     0.000 HD
ATOM     67   O  BGC B   5      18.371   7.469 -14.8900  0.00  0.00     0.000 O
ATOM     69  HD  BGC B   5      17.869   7.080 -15.4790  0.00  0.00     0.000 HD
ENDBRANCH 58 62
ENDBRANCH 45 58
ENDBRANCH 44 48
ENDBRANCH 31 44
ENDBRANCH 30 34
ENDBRANCH 17 30
ENDBRANCH 16 20
ENDBRANCH 1 16
TORSDOF 8
ENDMDL
MODEL 8
REMARK VINA RESULT:      -8.6      2.638      6.213
ROOT
ATOM      1  C1  BGC B   1      19.840  -0.517 -14.0810  0.00  0.00     0.000 C
ATOM      2  C2  BGC B   1      19.054   0.542 -14.8520  0.00  0.00     0.000 C
ATOM      3  C3  BGC B   1      19.571   1.926 -14.5100  0.00  0.00     0.000 C
ATOM      4  C4  BGC B   1      19.602   2.132 -13.0000  0.00  0.00     0.000 C
ATOM      5  C5  BGC B   1      20.429   1.015 -12.3790  0.00  0.00     0.000 C
ATOM      6  O5  BGC B   1      19.776  -0.229 -12.6920  0.00  0.00     0.000 O
ATOM      7   O  BGC B   1      19.211   0.315 -16.2630  0.00  0.00     0.000 O
ATOM      9  HD  BGC B   1      19.146   0.998 -16.7910  0.00  0.00     0.000 HD
ATOM      9   O  BGC B   1      18.734   2.901 -15.1390  0.00  0.00     0.000 O
ATOM     11  HD  BGC B   1      18.668   3.585 -15.6670  0.00  0.00     0.000 HD
ATOM     11   O  BGC B   1      20.183   3.383 -12.7040  0.00  0.00     0.000 O
ATOM     13  HD  BGC B   1      20.117   4.066 -13.2320  0.00  0.00     0.000 HD
ATOM     13   C  BGC B   1      20.596   1.108 -10.8690  0.00  0.00     0.000 C
ATOM     14   O  BGC B   1      19.347   1.179 -10.1890  0.00  0.00     0.000 O
ATOM     16  HD  BGC B   1      19.281   1.862 -10.7170  0.00  0.00     0.000 HD
ENDROOT
BRANCH 1 16
ATOM     16  O4  BGC B   2      19.124  -1.740 -14.2410  0.00  0.00     0.000 O
BRANCH 16 20
ATOM     17  C1  BGC B   2      19.701  -5.739 -14.6950  0.00  0.00     0.000 C
ATOM     18  C2  BGC B   2      20.450  -5.144 -13.5120  0.00  0.00     0.000 C
ATOM     19  C3  BGC B   2      19.881  -3.756 -13.2270  0.00  0.00     0.000 C
ATOM     20  C4  BGC B   2      19.912  -2.903 -14.4780  0.00  0.00     0.000 C
ATOM     21  C5  BGC B   2      19.316  -3.622 -15.6890  0.00  0.00     0.000 C
ATOM     22  O5  BGC B   2      19.964  -4.893 -15.8290  0.00  0.00     0.000 O
ATOM     23   O  BGC B   2      20.277  -5.971 -12.3500  0.00  0.00     0.000 O
ATOM     25  HD  BGC B   2      19.928  -5.221 -12.6060  0.00  0.00     0.000 HD
ATOM     25   O  BGC B   2      20.625  -3.132 -12.1870  0.00  0.00     0.000 O
ATOM     27  HD  BGC B   2      20.276  -2.382 -12.4420  0.00  0.00     0.000 HD
ATOM     27   C  BGC B   2      19.511  -2.855 -16.9910  0.00  0.00     0.000 C
ATOM     28   O  BGC B   2      20.869  -2.559 -17.2710  0.00  0.00     0.000 O
ATOM     30  HD  BGC B   2      20.521  -1.808 -17.5260  0.00  0.00     0.000 HD
BRANCH 17 30
ATOM     30  O4  BGC B   3      20.328  -6.971 -14.9990  0.00  0.00     0.000 O
BRANCH 30 34
ATOM     31  C1  BGC B   3      19.687 -10.210 -17.4530  0.00  0.00     0.000 C
ATOM     32  C2  BGC B   3      20.518  -9.092 -18.0820  0.00  0.00     0.000 C
ATOM     33  C3  BGC B   3      21.013  -8.169 -16.9820  0.00  0.00     0.000 C
ATOM     34  C4  BGC B   3      19.835  -7.651 -16.1580  0.00  0.00     0.000 C
ATOM     35  C5  BGC B   3      18.972  -8.807 -15.6840  0.00  0.00     0.000 C
ATOM     36  O5  BGC B   3      18.579  -9.600 -16.8090  0.00  0.00     0.000 O
ATOM     37   O  BGC B   3      21.650  -9.655 -18.7430  0.00  0.00     0.000 O
ATOM     39  HD  BGC B   3      21.816  -8.877 -19.0850  0.00  0.00     0.000 HD
ATOM     39   O  BGC B   3      21.717  -7.092 -17.5820  0.00  0.00     0.000 O
ATOM     41  HD  BGC B   3      21.883  -6.314 -17.9240  0.00  0.00     0.000 HD
ATOM     41   C  BGC B   3      17.719  -8.376 -14.9290  0.00  0.00     0.000 C
ATOM     42   O  BGC B   3      16.933  -7.531 -15.7350  0.00  0.00     0.000 O
ATOM     44  HD  BGC B   3      17.099  -6.753 -16.0770  0.00  0.00     0.000 HD
BRANCH 31 44
ATOM     44  O4  BGC B   4      19.164 -10.981 -18.5040  0.00  0.00     0.000 O
BRANCH 44 48
ATOM     45  C1  BGC B   4      17.709 -14.741 -19.2450  0.00  0.00     0.000 C
ATOM     46  C2  BGC B   4      16.721 -13.794 -18.5780  0.00  0.00     0.000 C
ATOM     47  C3  BGC B   4      17.213 -12.375 -18.7150  0.00  0.00     0.000 C
ATOM     48  C4  BGC B   4      18.643 -12.254 -18.1800  0.00  0.00     0.000 C
ATOM     49  C5  BGC B   4      19.551 -13.307 -18.8260  0.00  0.00     0.000 C
ATOM     50  O5  BGC B   4      18.993 -14.614 -18.6320  0.00  0.00     0.000 O
ATOM     51   O  BGC B   4      15.429 -13.907 -19.2050  0.00  0.00     0.000 O
ATOM     53  HD  BGC B   4      15.696 -13.169 -19.5720  0.00  0.00     0.000 HD
ATOM     53   O  BGC B   4      16.343 -11.510 -17.9710  0.00  0.00     0.000 O
ATOM     55  HD  BGC B   4      16.609 -10.772 -18.3380  0.00  0.00     0.000 HD
ATOM     55   C  BGC B   4      20.965 -13.341 -18.2730  0.00  0.00     0.000 C
ATOM     56   O  BGC B   4      20.874 -13.519 -16.8580  0.00  0.00     0.000 O
ATOM     58  HD  BGC B   4      21.141 -12.781 -17.2250  0.00  0.00     0.000 HD
BRANCH 45 58
ATOM     58  O4  BGC B   5      17.316 -16.056 -18.8540  0.00  0.00     0.000 O
BRANCH 58 62
ATOM     59  C1  BGC B   5      18.096 -20.035 -19.6930  0.00  0.00     0.000 C
ATOM     60  C2  BGC B   5      19.064 -19.371 -18.7340  0.00  0.00     0.000 C
ATOM     61  C3  BGC B   5      18.470 -18.090 -18.1800  0.00  0.00     0.000 C
ATOM     62  C4  BGC B   5      18.050 -17.187 -19.3290  0.00  0.00     0.000 C
ATOM     63  C5  BGC B   5      17.136 -17.943 -20.3050  0.00  0.00     0.000 C
ATOM     64  O5  BGC B   5      17.809 -19.115 -20.7510  0.00  0.00     0.000 O
ATOM     65   O  BGC B   5      18.001 -16.762 -22.1360  0.00  0.00     0.000 O
ATOM     67  HD  BGC B   5      18.417 -16.028 -22.3330  0.00  0.00     0.000 HD
ATOM     67   O  BGC B   5      18.001 -16.762 -22.1360  0.00  0.00     0.000 O
ATOM     69  HD  BGC B   5      18.417 -16.028 -22.3330  0.00  0.00     0.000 HD
ENDBRANCH 58 62
ENDBRANCH 45 58
ENDBRANCH 44 48
ENDBRANCH 31 44
ENDBRANCH 30 34
ENDBRANCH 17 30
ENDBRANCH 16 20
ENDBRANCH 1 16
TORSDOF 8
ENDMDL
MODEL 9
REMARK VINA RESULT:      -8.6      2.805     15.631
ROOT
ATOM      1  C1  BGC B   1      19.210 -14.246 -22.0420  0.00  0.00     0.000 C
ATOM      2  C2  BGC B   1      20.574 -14.794 -22.4610  0.00  0.00     0.000 C
ATOM      3  C3  BGC B   1      20.408 -15.807 -23.5770  0.00  0.00     0.000 C
ATOM      4  C4  BGC B   1      19.387 -16.871 -23.1920  0.00  0.00     0.000 C
ATOM      5  C5  BGC B   1      18.086 -16.176 -22.8170  0.00  0.00     0.000 C
ATOM      6  O5  BGC B   1      18.360 -15.328 -21.6870  0.00  0.00     0.000 O
ATOM      7   O  BGC B   1      21.396 -13.710 -22.9240  0.00  0.00     0.000 O
ATOM      9  HD  BGC B   1      22.012 -13.892 -23.5060  0.00  0.00     0.000 HD
ATOM      9   O  BGC B   1      21.679 -16.399 -23.8570  0.00  0.00     0.000 O
ATOM     11  HD  BGC B   1      22.295 -16.581 -24.4380  0.00  0.00     0.000 HD
ATOM     11   O  BGC B   1      19.172 -17.739 -24.2830  0.00  0.00     0.000 O
ATOM     13  HD  BGC B   1      19.788 -17.921 -24.8650  0.00  0.00     0.000 HD
ATOM     13   C  BGC B   1      16.943 -17.114 -22.4520  0.00  0.00     0.000 C
ATOM     14   O  BGC B   1      17.294 -18.014 -21.4050  0.00  0.00     0.000 O
ATOM     16  HD  BGC B   1      17.910 -18.196 -21.9870  0.00  0.00     0.000 HD
ENDROOT
BRANCH 1 16
ATOM     16  O4  BGC B   2      19.425 -13.529 -20.8280  0.00  0.00     0.000 O
BRANCH 16 20
ATOM     17  C1  BGC B   2      18.264 -10.178 -18.8380  0.00  0.00     0.000 C
ATOM     18  C2  BGC B   2      17.139 -11.179 -19.0590  0.00  0.00     0.000 C
ATOM     19  C3  BGC B   2      17.753 -12.515 -19.4700  0.00  0.00     0.000 C
ATOM     20  C4  BGC B   2      18.668 -12.333 -20.6630  0.00  0.00     0.000 C
ATOM     21  C5  BGC B   2      19.660 -11.186 -20.4670  0.00  0.00     0.000 C
ATOM     22  O5  BGC B   2      18.929 -10.008 -20.1030  0.00  0.00     0.000 O
ATOM     23   O  BGC B   2      16.392 -11.358 -17.8440  0.00  0.00     0.000 O
ATOM     25  HD  BGC B   2      16.995 -11.830 -18.2490  0.00  0.00     0.000 HD
ATOM     25   O  BGC B   2      16.723 -13.447 -19.7770  0.00  0.00     0.000 O
ATOM     27  HD  BGC B   2      17.325 -13.919 -20.1820  0.00  0.00     0.000 HD
ATOM     27   C  BGC B   2      20.457 -10.867 -21.7260  0.00  0.00     0.000 C
ATOM     28   O  BGC B   2      19.641 -10.567 -22.8470  0.00  0.00     0.000 O
ATOM     30  HD  BGC B   2      20.244 -11.039 -23.2520  0.00  0.00     0.000 HD
BRANCH 17 30
ATOM     30  O4  BGC B   3      17.654  -8.930 -18.5700  0.00  0.00     0.000 O
BRANCH 30 34
ATOM     31  C1  BGC B   3      18.597  -5.256 -16.9760  0.00  0.00     0.000 C
ATOM     32  C2  BGC B   3      19.131  -5.491 -18.3890  0.00  0.00     0.000 C
ATOM     33  C3  BGC B   3      18.398  -6.672 -19.0010  0.00  0.00     0.000 C
ATOM     34  C4  BGC B   3      18.528  -7.899 -18.0990  0.00  0.00     0.000 C
ATOM     35  C5  BGC B   3      18.116  -7.556 -16.6780  0.00  0.00     0.000 C
ATOM     36  O5  BGC B   3      18.870  -6.427 -16.2230  0.00  0.00     0.000 O
ATOM     37   O  BGC B   3      18.878  -4.338 -19.1900  0.00  0.00     0.000 O
ATOM     39  HD  BGC B   3      19.373  -4.682 -19.8110  0.00  0.00     0.000 HD
ATOM     39   O  BGC B   3      18.953  -6.930 -20.2810  0.00  0.00     0.000 O
ATOM     41  HD  BGC B   3      19.449  -7.274 -20.9030  0.00  0.00     0.000 HD
ATOM     41   C  BGC B   3      18.301  -8.699 -15.6870  0.00  0.00     0.000 C
ATOM     42   O  BGC B   3      19.644  -9.120 -15.6740  0.00  0.00     0.000 O
ATOM     44  HD  BGC B   3      20.140  -9.464 -16.2960  0.00  0.00     0.000 HD
BRANCH 31 44
ATOM     44  O4  BGC B   4      19.366  -4.227 -16.4070  0.00  0.00     0.000 O
BRANCH 44 48
ATOM     45  C1  BGC B   4      19.022  -1.008 -13.8920  0.00  0.00     0.000 C
ATOM     46  C2  BGC B   4      18.687  -2.351 -13.2590  0.00  0.00     0.000 C
ATOM     47  C3  BGC B   4      19.217  -3.464 -14.1290  0.00  0.00     0.000 C
ATOM     48  C4  BGC B   4      18.700  -3.310 -15.5630  0.00  0.00     0.000 C
ATOM     49  C5  BGC B   4      18.987  -1.899 -16.0910  0.00  0.00     0.000 C
ATOM     50  O5  BGC B   4      18.436  -0.925 -15.1930  0.00  0.00     0.000 O
ATOM     51   O  BGC B   4      19.291  -2.445 -11.9550  0.00  0.00     0.000 O
ATOM     53  HD  BGC B   4      19.849  -2.936 -12.4000  0.00  0.00     0.000 HD
ATOM     53   O  BGC B   4      18.782  -4.720 -13.5890  0.00  0.00     0.000 O
ATOM     55  HD  BGC B   4      19.340  -5.210 -14.0340  0.00  0.00     0.000 HD
ATOM     55   C  BGC B   4      18.407  -1.614 -17.4650  0.00  0.00     0.000 C
ATOM     56   O  BGC B   4      17.005  -1.883 -17.4100  0.00  0.00     0.000 O
ATOM     58  HD  BGC B   4      17.563  -2.373 -17.8560  0.00  0.00     0.000 HD
BRANCH 45 58
ATOM     58  O4  BGC B   5      18.277  -0.034 -13.1620  0.00  0.00     0.000 O
BRANCH 58 62
ATOM     59  C1  BGC B   5      18.429   3.992 -12.2070  0.00  0.00     0.000 C
ATOM     60  C2  BGC B   5      19.085   3.610 -13.5180  0.00  0.00     0.000 C
ATOM     61  C3  BGC B   5      18.622   2.237 -13.9660  0.00  0.00     0.000 C
ATOM     62  C4  BGC B   5      18.870   1.230 -12.8550  0.00  0.00     0.000 C
ATOM     63  C5  BGC B   5      18.249   1.714 -11.5370  0.00  0.00     0.000 C
ATOM     64  O5  BGC B   5      18.767   3.004 -11.2300  0.00  0.00     0.000 O
ATOM     65   O  BGC B   5      19.972   0.734 -10.2850  0.00  0.00     0.000 O
ATOM     67  HD  BGC B   5      20.581   0.120 -10.3360  0.00  0.00     0.000 HD
ATOM     67   O  BGC B   5      19.972   0.734 -10.2850  0.00  0.00     0.000 O
ATOM     69  HD  BGC B   5      20.581   0.120 -10.3360  0.00  0.00     0.000 HD
ENDBRANCH 58 62
ENDBRANCH 45 58
ENDBRANCH 44 48
ENDBRANCH 31 44
ENDBRANCH 30 34
ENDBRANCH 17 30
ENDBRANCH 16 20
ENDBRANCH 1 16
TORSDOF 8
ENDMDL
MODEL 10
REMARK VINA RESULT:      -8.3      5.535     10.514
ROOT
ATOM      1  C1  BGC B   1      21.507  -5.422 -15.3620  0.00  0.00     0.000 C
ATOM      2  C2  BGC B   1      21.849  -4.088 -16.0240  0.00  0.00     0.000 C
ATOM      3  C3  BGC B   1      22.581  -3.192 -15.0440  0.00  0.00     0.000 C
ATOM      4  C4  BGC B   1      21.804  -3.073 -13.7390  0.00  0.00     0.000 C
ATOM      5  C5  BGC B   1      21.555  -4.473 -13.1960  0.00  0.00     0.000 C
ATOM      6  O5  BGC B   1      20.768  -5.179 -14.1730  0.00  0.00     0.000 O
ATOM      7   O  BGC B   1      22.690  -4.328 -17.1650  0.00  0.00     0.000 O
ATOM      9  HD  BGC B   1      23.236  -3.699 -17.4020  0.00  0.00     0.000 HD
ATOM      9   O  BGC B   1      22.769  -1.907 -15.6440  0.00  0.00     0.000 O
ATOM     11  HD  BGC B   1      23.315  -1.278 -15.8810  0.00  0.00     0.000 HD
ATOM     11   O  BGC B   1      22.553  -2.323 -12.8080  0.00  0.00     0.000 O
ATOM     13  HD  BGC B   1      23.099  -1.694 -13.0450  0.00  0.00     0.000 HD
ATOM     13   C  BGC B   1      20.826  -4.520 -11.8610  0.00  0.00     0.000 C
ATOM     14   O  BGC B   1      19.586  -3.821 -11.8950  0.00  0.00     0.000 O
ATOM     16  HD  BGC B   1      20.131  -3.192 -12.1330  0.00  0.00     0.000 HD
ENDROOT
BRANCH 1 16
ATOM     16  O4  BGC B   2      20.595  -6.080 -16.2390  0.00  0.00     0.000 O
BRANCH 16 20
ATOM     17  C1  BGC B   2      19.236  -9.846 -16.9520  0.00  0.00     0.000 C
ATOM     18  C2  BGC B   2      18.304  -9.014 -16.0830  0.00  0.00     0.000 C
ATOM     19  C3  BGC B   2      18.722  -7.549 -16.1890  0.00  0.00     0.000 C
ATOM     20  C4  BGC B   2      20.191  -7.392 -15.8550  0.00  0.00     0.000 C
ATOM     21  C5  BGC B   2      21.071  -8.384 -16.6170  0.00  0.00     0.000 C
ATOM     22  O5  BGC B   2      20.559  -9.705 -16.4030  0.00  0.00     0.000 O
ATOM     23   O  BGC B   2      16.949  -9.150 -16.5420  0.00  0.00     0.000 O
ATOM     25  HD  BGC B   2      17.548  -8.531 -16.6270  0.00  0.00     0.000 HD
ATOM     25   O  BGC B   2      17.930  -6.755 -15.3140  0.00  0.00     0.000 O
ATOM     27  HD  BGC B   2      18.529  -6.135 -15.3990  0.00  0.00     0.000 HD
ATOM     27   C  BGC B   2      22.523  -8.368 -16.1530  0.00  0.00     0.000 C
ATOM     28   O  BGC B   2      22.672  -8.611 -14.7640  0.00  0.00     0.000 O
ATOM     30  HD  BGC B   2      23.271  -7.992 -14.8490  0.00  0.00     0.000 HD
BRANCH 17 30
ATOM     30  O4  BGC B   3      18.890 -11.202 -16.7400  0.00  0.00     0.000 O
BRANCH 30 34
ATOM     31  C1  BGC B   3      19.102 -14.848 -18.6340  0.00  0.00     0.000 C
ATOM     32  C2  BGC B   3      20.457 -14.201 -18.3490  0.00  0.00     0.000 C
ATOM     33  C3  BGC B   3      20.269 -13.098 -17.3230  0.00  0.00     0.000 C
ATOM     34  C4  BGC B   3      19.217 -12.101 -17.8050  0.00  0.00     0.000 C
ATOM     35  C5  BGC B   3      17.945 -12.826 -18.2060  0.00  0.00     0.000 C
ATOM     36  O5  BGC B   3      18.258 -13.840 -19.1670  0.00  0.00     0.000 O
ATOM     37   O  BGC B   3      21.345 -15.176 -17.8070  0.00  0.00     0.000 O
ATOM     39  HD  BGC B   3      21.993 -14.607 -17.8880  0.00  0.00     0.000 HD
ATOM     39   O  BGC B   3      21.518 -12.453 -17.1220  0.00  0.00     0.000 O
ATOM     41  HD  BGC B   3      22.165 -11.883 -17.2020  0.00  0.00     0.000 HD
ATOM     41   C  BGC B   3      16.869 -11.916 -18.7880  0.00  0.00     0.000 C
ATOM     42   O  BGC B   3      17.368 -11.232 -19.9130  0.00  0.00     0.000 O
ATOM     44  HD  BGC B   3      18.016 -10.663 -19.9930  0.00  0.00     0.000 HD
BRANCH 31 44
ATOM     44  O4  BGC B   4      19.298 -15.789 -19.6580  0.00  0.00     0.000 O
BRANCH 44 48
ATOM     45  C1  BGC B   4      18.005 -19.507 -20.8010  0.00  0.00     0.000 C
ATOM     46  C2  BGC B   4      17.095 -18.360 -21.2170  0.00  0.00     0.000 C
ATOM     47  C3  BGC B   4      17.844 -17.055 -21.1000  0.00  0.00     0.000 C
ATOM     48  C4  BGC B   4      18.429 -16.903 -19.6920  0.00  0.00     0.000 C
ATOM     49  C5  BGC B   4      19.247 -18.142 -19.3100  0.00  0.00     0.000 C
ATOM     50  O5  BGC B   4      18.438 -19.319 -19.4530  0.00  0.00     0.000 O
ATOM     51   O  BGC B   4      16.669 -18.537 -22.5810  0.00  0.00     0.000 O
ATOM     53  HD  BGC B   4      17.278 -17.933 -22.7050  0.00  0.00     0.000 HD
ATOM     53   O  BGC B   4      16.938 -15.976 -21.3680  0.00  0.00     0.000 O
ATOM     55  HD  BGC B   4      17.547 -15.372 -21.4910  0.00  0.00     0.000 HD
ATOM     55   C  BGC B   4      19.771 -18.134 -17.8860  0.00  0.00     0.000 C
ATOM     56   O  BGC B   4      18.656 -17.948 -17.0120  0.00  0.00     0.000 O
ATOM     58  HD  BGC B   4      19.265 -17.345 -17.1360  0.00  0.00     0.000 HD
BRANCH 45 58
ATOM     58  O4  BGC B   5      17.162 -20.654 -20.6910  0.00  0.00     0.000 O
BRANCH 58 62
ATOM     59  C1  BGC B   5      17.420 -24.740 -21.3100  0.00  0.00     0.000 C
ATOM     60  C2  BGC B   5      17.500 -24.296 -19.8640  0.00  0.00     0.000 C
ATOM     61  C3  BGC B   5      16.987 -22.876 -19.7140  0.00  0.00     0.000 C
ATOM     62  C4  BGC B   5      17.742 -21.960 -20.6640  0.00  0.00     0.000 C
ATOM     63  C5  BGC B   5      17.690 -22.508 -22.0980  0.00  0.00     0.000 C
ATOM     64  O5  BGC B   5      18.200 -23.838 -22.1020  0.00  0.00     0.000 O
ATOM     65   O  BGC B   5      19.840 -21.694 -22.5590  0.00  0.00     0.000 O
ATOM     67  HD  BGC B   5      20.413 -21.105 -22.2870  0.00  0.00     0.000 HD
ATOM     67   O  BGC B   5      19.840 -21.694 -22.5590  0.00  0.00     0.000 O
ATOM     69  HD  BGC B   5      20.413 -21.105 -22.2870  0.00  0.00     0.000 HD
ENDBRANCH 58 62
ENDBRANCH 45 58
ENDBRANCH 44 48
ENDBRANCH 31 44
ENDBRANCH 30 34
ENDBRANCH 17 30
ENDBRANCH 16 20
ENDBRANCH 1 16
TORSDOF 8
ENDMDL
MODEL 11
REMARK VINA RESULT:      -7.3      3.083      4.073
ROOT
ATOM      1  C1  BGC B   1      19.439   3.727 -16.1490  0.00  0.00     0.000 C
ATOM      2  C2  BGC B   1      20.245   4.508 -15.1130  0.00  0.00     0.000 C
ATOM      3  C3  BGC B   1      19.908   5.985 -15.1960  0.00  0.00     0.000 C
ATOM      4  C4  BGC B   1      20.051   6.491 -16.6260  0.00  0.00     0.000 C
ATOM      5  C5  BGC B   1      19.184   5.629 -17.5310  0.00  0.00     0.000 C
ATOM      6  O5  BGC B   1      19.673   4.278 -17.4380  0.00  0.00     0.000 O
ATOM      7   O  BGC B   1      19.923   4.023 -13.7990  0.00  0.00     0.000 O
ATOM      9  HD  BGC B   1      20.004   4.574 -13.1360  0.00  0.00     0.000 HD
ATOM      9   O  BGC B   1      20.770   6.706 -14.3110  0.00  0.00     0.000 O
ATOM     11  HD  BGC B   1      20.851   7.257 -13.6480  0.00  0.00     0.000 HD
ATOM     11   O  BGC B   1      19.632   7.836 -16.6970  0.00  0.00     0.000 O
ATOM     13  HD  BGC B   1      19.712   8.387 -16.0330  0.00  0.00     0.000 HD
ATOM     13   C  BGC B   1      19.181   6.042 -18.9960  0.00  0.00     0.000 C
ATOM     14   O  BGC B   1      20.494   6.098 -19.5460  0.00  0.00     0.000 O
ATOM     16  HD  BGC B   1      20.574   6.648 -18.8830  0.00  0.00     0.000 HD
ENDROOT
BRANCH 1 16
ATOM     16  O4  BGC B   2      20.009   2.420 -16.1940  0.00  0.00     0.000 O
BRANCH 16 20
ATOM     17  C1  BGC B   2      19.009  -1.494 -16.6600  0.00  0.00     0.000 C
ATOM     18  C2  BGC B   2      18.561  -0.607 -17.8130  0.00  0.00     0.000 C
ATOM     19  C3  BGC B   2      19.294   0.729 -17.7100  0.00  0.00     0.000 C
ATOM     20  C4  BGC B   2      19.091   1.340 -16.3380  0.00  0.00     0.000 C
ATOM     21  C5  BGC B   2      19.373   0.346 -15.2100  0.00  0.00     0.000 C
ATOM     22  O5  BGC B   2      18.602  -0.839 -15.4440  0.00  0.00     0.000 O
ATOM     23   O  BGC B   2      18.887  -1.226 -19.0680  0.00  0.00     0.000 O
ATOM     25  HD  BGC B   2      19.243  -0.583 -18.6100  0.00  0.00     0.000 HD
ATOM     25   O  BGC B   2      18.827   1.617 -18.7190  0.00  0.00     0.000 O
ATOM     27  HD  BGC B   2      19.182   2.260 -18.2610  0.00  0.00     0.000 HD
ATOM     27   C  BGC B   2      18.993   0.884 -13.8370  0.00  0.00     0.000 C
ATOM     28   O  BGC B   2      17.637   1.290 -13.7470  0.00  0.00     0.000 O
ATOM     30  HD  BGC B   2      17.992   1.934 -13.2890  0.00  0.00     0.000 HD
BRANCH 17 30
ATOM     30  O4  BGC B   3      18.228  -2.672 -16.7240  0.00  0.00     0.000 O
BRANCH 30 34
ATOM     31  C1  BGC B   3      18.617  -6.740 -16.2480  0.00  0.00     0.000 C
ATOM     32  C2  BGC B   3      18.754  -5.934 -14.9560  0.00  0.00     0.000 C
ATOM     33  C3  BGC B   3      18.205  -4.538 -15.1890  0.00  0.00     0.000 C
ATOM     34  C4  BGC B   3      18.905  -3.886 -16.3800  0.00  0.00     0.000 C
ATOM     35  C5  BGC B   3      18.855  -4.803 -17.5890  0.00  0.00     0.000 C
ATOM     36  O5  BGC B   3      19.392  -6.083 -17.2380  0.00  0.00     0.000 O
ATOM     37   O  BGC B   3      17.989  -6.554 -13.9250  0.00  0.00     0.000 O
ATOM     39  HD  BGC B   3      18.351  -6.013 -13.3540  0.00  0.00     0.000 HD
ATOM     39   O  BGC B   3      18.406  -3.773 -14.0100  0.00  0.00     0.000 O
ATOM     41  HD  BGC B   3      18.768  -3.232 -13.4380  0.00  0.00     0.000 HD
ATOM     41   C  BGC B   3      19.611  -4.272 -18.8020  0.00  0.00     0.000 C
ATOM     42   O  BGC B   3      20.960  -4.041 -18.4710  0.00  0.00     0.000 O
ATOM     44  HD  BGC B   3      21.322  -3.500 -17.8990  0.00  0.00     0.000 HD
BRANCH 31 44
ATOM     44  O4  BGC B   4      19.226  -7.986 -16.0260  0.00  0.00     0.000 O
BRANCH 44 48
ATOM     45  C1  BGC B   4      19.352 -11.568 -18.0160  0.00  0.00     0.000 C
ATOM     46  C2  BGC B   4      20.665 -10.797 -18.0060  0.00  0.00     0.000 C
ATOM     47  C3  BGC B   4      20.612  -9.728 -16.9430  0.00  0.00     0.000 C
ATOM     48  C4  BGC B   4      19.377  -8.843 -17.1390  0.00  0.00     0.000 C
ATOM     49  C5  BGC B   4      18.110  -9.701 -17.2410  0.00  0.00     0.000 C
ATOM     50  O5  BGC B   4      18.268 -10.677 -18.2820  0.00  0.00     0.000 O
ATOM     51   O  BGC B   4      21.759 -11.690 -17.7210  0.00  0.00     0.000 O
ATOM     53  HD  BGC B   4      21.679 -11.318 -16.9430  0.00  0.00     0.000 HD
ATOM     53   O  BGC B   4      21.800  -8.928 -17.0330  0.00  0.00     0.000 O
ATOM     55  HD  BGC B   4      21.720  -8.556 -16.2550  0.00  0.00     0.000 HD
ATOM     55   C  BGC B   4      16.847  -8.920 -17.5530  0.00  0.00     0.000 C
ATOM     56   O  BGC B   4      17.079  -8.177 -18.7510  0.00  0.00     0.000 O
ATOM     58  HD  BGC B   4      16.999  -7.805 -17.9730  0.00  0.00     0.000 HD
BRANCH 45 58
ATOM     58  O4  BGC B   5      19.379 -12.371 -19.1960  0.00  0.00     0.000 O
BRANCH 58 62
ATOM     59  C1  BGC B   5      17.361 -15.611 -20.8010  0.00  0.00     0.000 C
ATOM     60  C2  BGC B   5      16.926 -14.254 -21.3160  0.00  0.00     0.000 C
ATOM     61  C3  BGC B   5      17.973 -13.203 -20.9990  0.00  0.00     0.000 C
ATOM     62  C4  BGC B   5      18.266 -13.212 -19.5070  0.00  0.00     0.000 C
ATOM     63  C5  BGC B   5      18.623 -14.629 -19.0350  0.00  0.00     0.000 C
ATOM     64  O5  BGC B   5      17.563 -15.512 -19.3880  0.00  0.00     0.000 O
ATOM     65   O  BGC B   5      17.610 -14.263 -16.9520  0.00  0.00     0.000 O
ATOM     67  HD  BGC B   5      17.365 -13.623 -16.4220  0.00  0.00     0.000 HD
ATOM     67   O  BGC B   5      17.610 -14.263 -16.9520  0.00  0.00     0.000 O
ATOM     69  HD  BGC B   5      17.365 -13.623 -16.4220  0.00  0.00     0.000 HD
ENDBRANCH 58 62
ENDBRANCH 45 58
ENDBRANCH 44 48
ENDBRANCH 31 44
ENDBRANCH 30 34
ENDBRANCH 17 30
ENDBRANCH 16 20
ENDBRANCH 1 16
TORSDOF 8
ENDMDL
MODEL 12
REMARK VINA RESULT:      -7.2      4.559      8.407
ROOT
ATOM      1  C1  BGC B   1      19.160  -1.260 -19.3820  0.00  0.00     0.000 C
ATOM      2  C2  BGC B   1      18.495  -0.655 -20.6170  0.00  0.00     0.000 C
ATOM      3  C3  BGC B   1      19.062   0.724 -20.8920  0.00  0.00     0.000 C
ATOM      4  C4  BGC B   1      18.994   1.594 -19.6430  0.00  0.00     0.000 C
ATOM      5  C5  BGC B   1      19.708   0.869 -18.5110  0.00  0.00     0.000 C
ATOM      6  O5  BGC B   1      19.010  -0.370 -18.2850  0.00  0.00     0.000 O
ATOM      7   O  BGC B   1      18.742  -1.503 -21.7510  0.00  0.00     0.000 O
ATOM      9  HD  BGC B   1      18.754  -1.134 -22.5340  0.00  0.00     0.000 HD
ATOM      9   O  BGC B   1      18.331   1.319 -21.9680  0.00  0.00     0.000 O
ATOM     11  HD  BGC B   1      18.343   1.688 -22.7510  0.00  0.00     0.000 HD
ATOM     11   O  BGC B   1      19.622   2.832 -19.8930  0.00  0.00     0.000 O
ATOM     13  HD  BGC B   1      19.634   3.201 -20.6760  0.00  0.00     0.000 HD
ATOM     13   C  BGC B   1      19.769   1.636 -17.1980  0.00  0.00     0.000 C
ATOM     14   O  BGC B   1      18.479   2.030 -16.7410  0.00  0.00     0.000 O
ATOM     16  HD  BGC B   1      18.491   2.399 -17.5240  0.00  0.00     0.000 HD
ENDROOT
BRANCH 1 16
ATOM     16  O4  BGC B   2      18.389  -2.409 -19.0370  0.00  0.00     0.000 O
BRANCH 16 20
ATOM     17  C1  BGC B   2      18.790  -6.213 -17.6560  0.00  0.00     0.000 C
ATOM     18  C2  BGC B   2      18.955  -5.151 -16.5790  0.00  0.00     0.000 C
ATOM     19  C3  BGC B   2      18.431  -3.824 -17.1220  0.00  0.00     0.000 C
ATOM     20  C4  BGC B   2      19.103  -3.488 -18.4380  0.00  0.00     0.000 C
ATOM     21  C5  BGC B   2      19.076  -4.658 -19.4220  0.00  0.00     0.000 C
ATOM     22  O5  BGC B   2      19.612  -5.815 -18.7690  0.00  0.00     0.000 O
ATOM     23   O  BGC B   2      18.201  -5.511 -15.4090  0.00  0.00     0.000 O
ATOM     25  HD  BGC B   2      18.070  -4.947 -16.0540  0.00  0.00     0.000 HD
ATOM     25   O  BGC B   2      18.659  -2.788 -16.1730  0.00  0.00     0.000 O
ATOM     27  HD  BGC B   2      18.528  -2.224 -16.8170  0.00  0.00     0.000 HD
ATOM     27   C  BGC B   2      19.908  -4.402 -20.6710  0.00  0.00     0.000 C
ATOM     28   O  BGC B   2      21.262  -4.085 -20.3900  0.00  0.00     0.000 O
ATOM     30  HD  BGC B   2      21.131  -3.521 -21.0340  0.00  0.00     0.000 HD
BRANCH 17 30
ATOM     30  O4  BGC B   3      19.387  -7.396 -17.1590  0.00  0.00     0.000 O
BRANCH 30 34
ATOM     31  C1  BGC B   3      19.766 -11.318 -18.3430  0.00  0.00     0.000 C
ATOM     32  C2  BGC B   3      20.946 -10.424 -18.7200  0.00  0.00     0.000 C
ATOM     33  C3  BGC B   3      20.877  -9.146 -17.9030  0.00  0.00     0.000 C
ATOM     34  C4  BGC B   3      19.522  -8.466 -18.0990  0.00  0.00     0.000 C
ATOM     35  C5  BGC B   3      18.395  -9.452 -17.8460  0.00  0.00     0.000 C
ATOM     36  O5  BGC B   3      18.580 -10.609 -18.6680  0.00  0.00     0.000 O
ATOM     37   O  BGC B   3      22.167 -11.093 -18.4100  0.00  0.00     0.000 O
ATOM     39  HD  BGC B   3      22.596 -10.469 -18.8300  0.00  0.00     0.000 HD
ATOM     39   O  BGC B   3      21.932  -8.291 -18.3150  0.00  0.00     0.000 O
ATOM     41  HD  BGC B   3      22.361  -7.667 -18.7350  0.00  0.00     0.000 HD
ATOM     41   C  BGC B   3      17.005  -8.883 -18.1080  0.00  0.00     0.000 C
ATOM     42   O  BGC B   3      16.910  -8.426 -19.4370  0.00  0.00     0.000 O
ATOM     44  HD  BGC B   3      17.339  -7.802 -19.8570  0.00  0.00     0.000 HD
BRANCH 31 44
ATOM     44  O4  BGC B   4      19.805 -12.439 -19.1880  0.00  0.00     0.000 O
BRANCH 44 48
ATOM     45  C1  BGC B   4      18.735 -16.394 -19.2920  0.00  0.00     0.000 C
ATOM     46  C2  BGC B   4      17.568 -15.419 -19.2210  0.00  0.00     0.000 C
ATOM     47  C3  BGC B   4      18.047 -14.034 -19.5810  0.00  0.00     0.000 C
ATOM     48  C4  BGC B   4      19.238 -13.639 -18.7030  0.00  0.00     0.000 C
ATOM     49  C5  BGC B   4      20.325 -14.719 -18.7510  0.00  0.00     0.000 C
ATOM     50  O5  BGC B   4      19.763 -15.989 -18.3870  0.00  0.00     0.000 O
ATOM     51   O  BGC B   4      16.537 -15.816 -20.1450  0.00  0.00     0.000 O
ATOM     53  HD  BGC B   4      16.888 -15.168 -20.6000  0.00  0.00     0.000 HD
ATOM     53   O  BGC B   4      16.970 -13.107 -19.3830  0.00  0.00     0.000 O
ATOM     55  HD  BGC B   4      17.321 -12.460 -19.8380  0.00  0.00     0.000 HD
ATOM     55   C  BGC B   4      21.499 -14.471 -17.8200  0.00  0.00     0.000 C
ATOM     56   O  BGC B   4      20.979 -14.302 -16.5000  0.00  0.00     0.000 O
ATOM     58  HD  BGC B   4      21.330 -13.654 -16.9550  0.00  0.00     0.000 HD
BRANCH 45 58
ATOM     58  O4  BGC B   5      18.270 -17.605 -18.6980  0.00  0.00     0.000 O
BRANCH 58 62
ATOM     59  C1  BGC B   5      18.782 -21.708 -18.9370  0.00  0.00     0.000 C
ATOM     60  C2  BGC B   5      20.040 -20.884 -19.1240  0.00  0.00     0.000 C
ATOM     61  C3  BGC B   5      19.831 -19.470 -18.6140  0.00  0.00     0.000 C
ATOM     62  C4  BGC B   5      18.611 -18.862 -19.2870  0.00  0.00     0.000 C
ATOM     63  C5  BGC B   5      17.392 -19.783 -19.1300  0.00  0.00     0.000 C
ATOM     64  O5  BGC B   5      17.716 -21.069 -19.6470  0.00  0.00     0.000 O
ATOM     65   O  BGC B   5      16.562 -19.157 -21.2310  0.00  0.00     0.000 O
ATOM     67  HD  BGC B   5      16.617 -18.524 -21.8190  0.00  0.00     0.000 HD
ATOM     67   O  BGC B   5      16.562 -19.157 -21.2310  0.00  0.00     0.000 O
ATOM     69  HD  BGC B   5      16.617 -18.524 -21.8190  0.00  0.00     0.000 HD
ENDBRANCH 58 62
ENDBRANCH 45 58
ENDBRANCH 44 48
ENDBRANCH 31 44
ENDBRANCH 30 34
ENDBRANCH 17 30
ENDBRANCH 16 20
ENDBRANCH 1 16
TORSDOF 8
ENDMDL
MODEL 13
REMARK VINA RESULT:      -6.7     20.606     25.568
ROOT
ATOM      1  C1  BGC B   1      10.852  -8.447   8.2890  0.00  0.00     0.000 C
ATOM      2  C2  BGC B   1      10.858  -9.882   7.7650  0.00  0.00     0.000 C
ATOM      3  C3  BGC B   1       9.649 -10.633   8.2880  0.00  0.00     0.000 C
ATOM      4  C4  BGC B   1       9.552 -10.510   9.8030  0.00  0.00     0.000 C
ATOM      5  C5  BGC B   1       9.541  -9.032  10.1670  0.00  0.00     0.000 C
ATOM      6  O5  BGC B   1      10.782  -8.467   9.7070  0.00  0.00     0.000 O
ATOM      7   O  BGC B   1      10.818  -9.862   6.3280  0.00  0.00     0.000 O
ATOM      9  HD  BGC B   1      10.460 -10.540   5.9260  0.00  0.00     0.000 HD
ATOM      9   O  BGC B   1       9.749 -12.004   7.8930  0.00  0.00     0.000 O
ATOM     11  HD  BGC B   1       9.392 -12.683   7.4910  0.00  0.00     0.000 HD
ATOM     11   O  BGC B   1       8.365 -11.125  10.2530  0.00  0.00     0.000 O
ATOM     13  HD  BGC B   1       8.007 -11.804   9.8510  0.00  0.00     0.000 HD
ATOM     13   C  BGC B   1       9.398  -8.742  11.6540  0.00  0.00     0.000 C
ATOM     14   O  BGC B   1      10.398  -9.392  12.4320  0.00  0.00     0.000 O
ATOM     16  HD  BGC B   1      10.041 -10.071  12.0300  0.00  0.00     0.000 HD
ENDROOT
BRANCH 1 16
ATOM     16  O4  BGC B   2      12.138  -7.908   7.9870  0.00  0.00     0.000 O
BRANCH 16 20
ATOM     17  C1  BGC B   2      14.125  -4.362   7.8560  0.00  0.00     0.000 C
ATOM     18  C2  BGC B   2      14.043  -4.966   9.2500  0.00  0.00     0.000 C
ATOM     19  C3  BGC B   2      13.617  -6.427   9.1220  0.00  0.00     0.000 C
ATOM     20  C4  BGC B   2      12.337  -6.536   8.3190  0.00  0.00     0.000 C
ATOM     21  C5  BGC B   2      12.402  -5.752   7.0080  0.00  0.00     0.000 C
ATOM     22  O5  BGC B   2      12.797  -4.406   7.3010  0.00  0.00     0.000 O
ATOM     23   O  BGC B   2      15.329  -4.906   9.8900  0.00  0.00     0.000 O
ATOM     25  HD  BGC B   2      14.883  -5.541   9.5060  0.00  0.00     0.000 HD
ATOM     25   O  BGC B   2      13.439  -6.995  10.4140  0.00  0.00     0.000 O
ATOM     27  HD  BGC B   2      12.993  -7.630  10.0290  0.00  0.00     0.000 HD
ATOM     27   C  BGC B   2      11.063  -5.696   6.2830  0.00  0.00     0.000 C
ATOM     28   O  BGC B   2      10.017  -5.158   7.0740  0.00  0.00     0.000 O
ATOM     30  HD  BGC B   2       9.571  -5.793   6.6900  0.00  0.00     0.000 HD
BRANCH 17 30
ATOM     30  O4  BGC B   3      14.410  -2.986   8.0220  0.00  0.00     0.000 O
BRANCH 30 34
ATOM     31  C1  BGC B   3      16.308   0.102   6.0760  0.00  0.00     0.000 C
ATOM     32  C2  BGC B   3      15.068  -0.432   5.3600  0.00  0.00     0.000 C
ATOM     33  C3  BGC B   3      14.254  -1.260   6.3390  0.00  0.00     0.000 C
ATOM     34  C4  BGC B   3      15.119  -2.363   6.9460  0.00  0.00     0.000 C
ATOM     35  C5  BGC B   3      16.401  -1.778   7.5130  0.00  0.00     0.000 C
ATOM     36  O5  BGC B   3      17.067  -1.019   6.4980  0.00  0.00     0.000 O
ATOM     37   O  BGC B   3      14.266   0.660   4.9170  0.00  0.00     0.000 O
ATOM     39  HD  BGC B   3      13.779   0.100   4.4710  0.00  0.00     0.000 HD
ATOM     39   O  BGC B   3      13.146  -1.815   5.6460  0.00  0.00     0.000 O
ATOM     41  HD  BGC B   3      12.659  -2.375   5.2010  0.00  0.00     0.000 HD
ATOM     41   C  BGC B   3      17.370  -2.821   8.0590  0.00  0.00     0.000 C
ATOM     42   O  BGC B   3      17.706  -3.746   7.0510  0.00  0.00     0.000 O
ATOM     44  HD  BGC B   3      17.219  -4.306   6.6060  0.00  0.00     0.000 HD
BRANCH 31 44
ATOM     44  O4  BGC B   4      17.084   0.773   5.1170  0.00  0.00     0.000 O
BRANCH 44 48
ATOM     45  C1  BGC B   4      19.652   3.948   4.7550  0.00  0.00     0.000 C
ATOM     46  C2  BGC B   4      20.214   2.757   5.5200  0.00  0.00     0.000 C
ATOM     47  C3  BGC B   4      19.362   1.541   5.2530  0.00  0.00     0.000 C
ATOM     48  C4  BGC B   4      17.893   1.841   5.5680  0.00  0.00     0.000 C
ATOM     49  C5  BGC B   4      17.434   3.111   4.8400  0.00  0.00     0.000 C
ATOM     50  O5  BGC B   4      18.308   4.200   5.1690  0.00  0.00     0.000 O
ATOM     51   O  BGC B   4      21.563   2.489   5.0930  0.00  0.00     0.000 O
ATOM     53  HD  BGC B   4      21.155   1.860   4.6610  0.00  0.00     0.000 HD
ATOM     53   O  BGC B   4      19.823   0.463   6.0790  0.00  0.00     0.000 O
ATOM     55  HD  BGC B   4      19.415  -0.167   5.6460  0.00  0.00     0.000 HD
ATOM     55   C  BGC B   4      16.023   3.555   5.1820  0.00  0.00     0.000 C
ATOM     56   O  BGC B   4      15.944   3.702   6.6010  0.00  0.00     0.000 O
ATOM     58  HD  BGC B   4      15.536   3.072   6.1680  0.00  0.00     0.000 HD
BRANCH 45 58
ATOM     58  O4  BGC B   5      20.341   5.094   5.2550  0.00  0.00     0.000 O
BRANCH 58 62
ATOM     59  C1  BGC B   5      22.236   8.535   3.9440  0.00  0.00     0.000 C
ATOM     60  C2  BGC B   5      20.729   8.631   4.0730  0.00  0.00     0.000 C
ATOM     61  C3  BGC B   5      20.195   7.501   4.9330  0.00  0.00     0.000 C
ATOM     62  C4  BGC B   5      20.664   6.169   4.3700  0.00  0.00     0.000 C
ATOM     63  C5  BGC B   5      22.189   6.166   4.1900  0.00  0.00     0.000 C
ATOM     64  O5  BGC B   5      22.558   7.266   3.3650  0.00  0.00     0.000 O
ATOM     65   O  BGC B   5      22.029   4.806   2.2860  0.00  0.00     0.000 O
ATOM     67  HD  BGC B   5      21.495   4.246   1.8970  0.00  0.00     0.000 HD
ATOM     67   O  BGC B   5      22.029   4.806   2.2860  0.00  0.00     0.000 O
ATOM     69  HD  BGC B   5      21.495   4.246   1.8970  0.00  0.00     0.000 HD
ENDBRANCH 58 62
ENDBRANCH 45 58
ENDBRANCH 44 48
ENDBRANCH 31 44
ENDBRANCH 30 34
ENDBRANCH 17 30
ENDBRANCH 16 20
ENDBRANCH 1 16
TORSDOF 8
ENDMDL
MODEL 14
REMARK VINA RESULT:      -6.5     14.142     21.597
ROOT
ATOM      1  C1  BGC B   1       5.575  -6.377 -31.1150  0.00  0.00     0.000 C
ATOM      2  C2  BGC B   1       5.159  -6.241 -32.5790  0.00  0.00     0.000 C
ATOM      3  C3  BGC B   1       4.346  -7.448 -33.0040  0.00  0.00     0.000 C
ATOM      4  C4  BGC B   1       5.083  -8.739 -32.6700  0.00  0.00     0.000 C
ATOM      5  C5  BGC B   1       5.414  -8.735 -31.1850  0.00  0.00     0.000 C
ATOM      6  O5  BGC B   1       6.270  -7.604 -30.9380  0.00  0.00     0.000 O
ATOM      7   O  BGC B   1       4.362  -5.055 -32.7350  0.00  0.00     0.000 O
ATOM      9  HD  BGC B   1       3.780  -5.042 -33.3770  0.00  0.00     0.000 HD
ATOM      9   O  BGC B   1       4.084  -7.358 -34.4070  0.00  0.00     0.000 O
ATOM     11  HD  BGC B   1       3.502  -7.346 -35.0490  0.00  0.00     0.000 HD
ATOM     11   O  BGC B   1       4.264  -9.846 -32.9770  0.00  0.00     0.000 O
ATOM     13  HD  BGC B   1       3.682  -9.833 -33.6190  0.00  0.00     0.000 HD
ATOM     13   C  BGC B   1       6.115  -9.990 -30.6830  0.00  0.00     0.000 C
ATOM     14   O  BGC B   1       7.305 -10.274 -31.4120  0.00  0.00     0.000 O
ATOM     16  HD  BGC B   1       6.723 -10.262 -32.0530  0.00  0.00     0.000 HD
ENDROOT
BRANCH 1 16
ATOM     16  O4  BGC B   2       6.549  -5.362 -30.8820  0.00  0.00     0.000 O
BRANCH 16 20
ATOM     17  C1  BGC B   2       7.869  -2.892 -27.9330  0.00  0.00     0.000 C
ATOM     18  C2  BGC B   2       8.508  -4.273 -27.9050  0.00  0.00     0.000 C
ATOM     19  C3  BGC B   2       8.224  -4.965 -29.2360  0.00  0.00     0.000 C
ATOM     20  C4  BGC B   2       6.737  -4.971 -29.5240  0.00  0.00     0.000 C
ATOM     21  C5  BGC B   2       6.104  -3.590 -29.3530  0.00  0.00     0.000 C
ATOM     22  O5  BGC B   2       6.448  -3.088 -28.0550  0.00  0.00     0.000 O
ATOM     23   O  BGC B   2       9.929  -4.156 -27.7290  0.00  0.00     0.000 O
ATOM     25  HD  BGC B   2       9.424  -4.319 -28.4130  0.00  0.00     0.000 HD
ATOM     25   O  BGC B   2       8.726  -6.296 -29.2070  0.00  0.00     0.000 O
ATOM     27  HD  BGC B   2       8.221  -6.459 -29.8910  0.00  0.00     0.000 HD
ATOM     27   C  BGC B   2       4.584  -3.616 -29.4520  0.00  0.00     0.000 C
ATOM     28   O  BGC B   2       3.975  -4.505 -28.5290  0.00  0.00     0.000 O
ATOM     30  HD  BGC B   2       3.470  -4.667 -29.2140  0.00  0.00     0.000 HD
BRANCH 17 30
ATOM     30  O4  BGC B   3       8.055  -2.329 -26.6480  0.00  0.00     0.000 O
BRANCH 30 34
ATOM     31  C1  BGC B   3       8.305   1.417 -24.9660  0.00  0.00     0.000 C
ATOM     32  C2  BGC B   3       7.382   1.327 -26.1810  0.00  0.00     0.000 C
ATOM     33  C3  BGC B   3       7.067  -0.134 -26.4510  0.00  0.00     0.000 C
ATOM     34  C4  BGC B   3       8.359  -0.931 -26.6190  0.00  0.00     0.000 C
ATOM     35  C5  BGC B   3       9.290  -0.683 -25.4440  0.00  0.00     0.000 C
ATOM     36  O5  BGC B   3       9.499   0.725 -25.2920  0.00  0.00     0.000 O
ATOM     37   O  BGC B   3       6.161   2.008 -25.9020  0.00  0.00     0.000 O
ATOM     39  HD  BGC B   3       5.940   1.920 -26.7350  0.00  0.00     0.000 HD
ATOM     39   O  BGC B   3       6.273  -0.213 -27.6260  0.00  0.00     0.000 O
ATOM     41  HD  BGC B   3       6.053  -0.301 -28.4590  0.00  0.00     0.000 HD
ATOM     41   C  BGC B   3      10.645  -1.369 -25.5720  0.00  0.00     0.000 C
ATOM     42   O  BGC B   3      11.292  -0.951 -26.7510  0.00  0.00     0.000 O
ATOM     44  HD  BGC B   3      11.071  -1.040 -27.5830  0.00  0.00     0.000 HD
BRANCH 31 44
ATOM     44  O4  BGC B   4       8.655   2.768 -24.8100  0.00  0.00     0.000 O
BRANCH 44 48
ATOM     45  C1  BGC B   4       9.292   5.582 -21.8970  0.00  0.00     0.000 C
ATOM     46  C2  BGC B   4      10.276   4.420 -21.8880  0.00  0.00     0.000 C
ATOM     47  C3  BGC B   4      10.196   3.682 -23.2020  0.00  0.00     0.000 C
ATOM     48  C4  BGC B   4       8.750   3.266 -23.4910  0.00  0.00     0.000 C
ATOM     49  C5  BGC B   4       7.810   4.473 -23.3810  0.00  0.00     0.000 C
ATOM     50  O5  BGC B   4       7.964   5.092 -22.0960  0.00  0.00     0.000 O
ATOM     51   O  BGC B   4      11.617   4.911 -21.7050  0.00  0.00     0.000 O
ATOM     53  HD  BGC B   4      11.641   4.761 -22.5570  0.00  0.00     0.000 HD
ATOM     53   O  BGC B   4      11.029   2.517 -23.1290  0.00  0.00     0.000 O
ATOM     55  HD  BGC B   4      11.053   2.367 -23.9810  0.00  0.00     0.000 HD
ATOM     55   C  BGC B   4       6.337   4.137 -23.5370  0.00  0.00     0.000 C
ATOM     56   O  BGC B   4       6.016   3.128 -22.5780  0.00  0.00     0.000 O
ATOM     58  HD  BGC B   4       6.040   2.978 -23.4300  0.00  0.00     0.000 HD
BRANCH 45 58
ATOM     58  O4  BGC B   5       9.239   6.060 -20.5540  0.00  0.00     0.000 O
BRANCH 58 62
ATOM     59  C1  BGC B   5       8.784   9.549 -18.3700  0.00  0.00     0.000 C
ATOM     60  C2  BGC B   5       7.508   8.975 -18.9520  0.00  0.00     0.000 C
ATOM     61  C3  BGC B   5       7.711   7.528 -19.3560  0.00  0.00     0.000 C
ATOM     62  C4  BGC B   5       8.899   7.425 -20.2990  0.00  0.00     0.000 C
ATOM     63  C5  BGC B   5      10.137   8.095 -19.6850  0.00  0.00     0.000 C
ATOM     64  O5  BGC B   5       9.816   9.442 -19.3560  0.00  0.00     0.000 O
ATOM     65   O  BGC B   5      10.886   8.799 -21.7920  0.00  0.00     0.000 O
ATOM     67  HD  BGC B   5      10.802   8.619 -22.6350  0.00  0.00     0.000 HD
ATOM     67   O  BGC B   5      10.886   8.799 -21.7920  0.00  0.00     0.000 O
ATOM     69  HD  BGC B   5      10.802   8.619 -22.6350  0.00  0.00     0.000 HD
ENDBRANCH 58 62
ENDBRANCH 45 58
ENDBRANCH 44 48
ENDBRANCH 31 44
ENDBRANCH 30 34
ENDBRANCH 17 30
ENDBRANCH 16 20
ENDBRANCH 1 16
TORSDOF 8
ENDMDL
MODEL 15
REMARK VINA RESULT:      -6.5     25.148     28.556
ROOT
ATOM      1  C1  BGC B   1       2.184 -17.490 -27.6100  0.00  0.00     0.000 C
ATOM      2  C2  BGC B   1       1.911 -16.083 -27.0820  0.00  0.00     0.000 C
ATOM      3  C3  BGC B   1       1.600 -15.146 -28.2330  0.00  0.00     0.000 C
ATOM      4  C4  BGC B   1       2.683 -15.224 -29.3010  0.00  0.00     0.000 C
ATOM      5  C5  BGC B   1       2.828 -16.675 -29.7350  0.00  0.00     0.000 C
ATOM      6  O5  BGC B   1       3.224 -17.434 -28.5770  0.00  0.00     0.000 O
ATOM      7   O  BGC B   1       0.787 -16.123 -26.1870  0.00  0.00     0.000 O
ATOM      9  HD  BGC B   1       0.309 -15.405 -26.1090  0.00  0.00     0.000 HD
ATOM      9   O  BGC B   1       1.480 -13.813 -27.7250  0.00  0.00     0.000 O
ATOM     11  HD  BGC B   1       1.002 -13.096 -27.6470  0.00  0.00     0.000 HD
ATOM     11   O  BGC B   1       2.319 -14.426 -30.4050  0.00  0.00     0.000 O
ATOM     13  HD  BGC B   1       1.841 -13.708 -30.3270  0.00  0.00     0.000 HD
ATOM     13   C  BGC B   1       3.846 -16.913 -30.8410  0.00  0.00     0.000 C
ATOM     14   O  BGC B   1       5.136 -16.410 -30.5070  0.00  0.00     0.000 O
ATOM     16  HD  BGC B   1       4.658 -15.692 -30.4280  0.00  0.00     0.000 HD
ENDROOT
BRANCH 1 16
ATOM     16  O4  BGC B   2       2.732 -18.226 -26.5180  0.00  0.00     0.000 O
BRANCH 16 20
ATOM     17  C1  BGC B   2       2.588 -21.907 -24.7950  0.00  0.00     0.000 C
ATOM     18  C2  BGC B   2       3.509 -21.833 -26.0040  0.00  0.00     0.000 C
ATOM     19  C3  BGC B   2       3.764 -20.363 -26.3310  0.00  0.00     0.000 C
ATOM     20  C4  BGC B   2       2.453 -19.623 -26.5000  0.00  0.00     0.000 C
ATOM     21  C5  BGC B   2       1.484 -19.882 -25.3450  0.00  0.00     0.000 C
ATOM     22  O5  BGC B   2       1.341 -21.298 -25.1790  0.00  0.00     0.000 O
ATOM     23   O  BGC B   2       4.761 -22.474 -25.7110  0.00  0.00     0.000 O
ATOM     25  HD  BGC B   2       4.511 -21.646 -25.7550  0.00  0.00     0.000 HD
ATOM     25   O  BGC B   2       4.545 -20.259 -27.5160  0.00  0.00     0.000 O
ATOM     27  HD  BGC B   2       4.294 -19.431 -27.5600  0.00  0.00     0.000 HD
ATOM     27   C  BGC B   2       0.098 -19.301 -25.5910  0.00  0.00     0.000 C
ATOM     28   O  BGC B   2      -0.502 -19.763 -26.7900  0.00  0.00     0.000 O
ATOM     30  HD  BGC B   2      -0.752 -18.936 -26.8340  0.00  0.00     0.000 HD
BRANCH 17 30
ATOM     30  O4  BGC B   3       2.285 -23.274 -24.5940  0.00  0.00     0.000 O
BRANCH 30 34
ATOM     31  C1  BGC B   3       1.407 -25.829 -21.4920  0.00  0.00     0.000 C
ATOM     32  C2  BGC B   3       0.207 -25.055 -22.0350  0.00  0.00     0.000 C
ATOM     33  C3  BGC B   3       0.569 -24.476 -23.3910  0.00  0.00     0.000 C
ATOM     34  C4  BGC B   3       1.833 -23.625 -23.2820  0.00  0.00     0.000 C
ATOM     35  C5  BGC B   3       2.942 -24.410 -22.6030  0.00  0.00     0.000 C
ATOM     36  O5  BGC B   3       2.473 -24.905 -21.3450  0.00  0.00     0.000 O
ATOM     37   O  BGC B   3      -0.896 -25.943 -22.2030  0.00  0.00     0.000 O
ATOM     39  HD  BGC B   3      -1.403 -25.259 -22.3590  0.00  0.00     0.000 HD
ATOM     39   O  BGC B   3      -0.523 -23.695 -23.8530  0.00  0.00     0.000 O
ATOM     41  HD  BGC B   3      -1.030 -23.010 -24.0090  0.00  0.00     0.000 HD
ATOM     41   C  BGC B   3       4.216 -23.606 -22.3690  0.00  0.00     0.000 C
ATOM     42   O  BGC B   3       3.935 -22.466 -21.5920  0.00  0.00     0.000 O
ATOM     44  HD  BGC B   3       3.428 -21.781 -21.7470  0.00  0.00     0.000 HD
BRANCH 31 44
ATOM     44  O4  BGC B   4       1.071 -26.261 -20.1980  0.00  0.00     0.000 O
BRANCH 44 48
ATOM     45  C1  BGC B   4       2.517 -29.045 -17.5590  0.00  0.00     0.000 C
ATOM     46  C2  BGC B   4       2.784 -27.598 -17.1690  0.00  0.00     0.000 C
ATOM     47  C3  BGC B   4       1.891 -26.687 -17.9750  0.00  0.00     0.000 C
ATOM     48  C4  BGC B   4       2.058 -26.966 -19.4720  0.00  0.00     0.000 C
ATOM     49  C5  BGC B   4       1.873 -28.460 -19.7660  0.00  0.00     0.000 C
ATOM     50  O5  BGC B   4       2.772 -29.228 -18.9520  0.00  0.00     0.000 O
ATOM     51   O  BGC B   4       2.512 -27.406 -15.7680  0.00  0.00     0.000 O
ATOM     53  HD  BGC B   4       1.792 -27.053 -16.0980  0.00  0.00     0.000 HD
ATOM     53   O  BGC B   4       2.245 -25.325 -17.6930  0.00  0.00     0.000 O
ATOM     55  HD  BGC B   4       1.525 -24.973 -18.0230  0.00  0.00     0.000 HD
ATOM     55   C  BGC B   4       2.135 -28.852 -21.2090  0.00  0.00     0.000 C
ATOM     56   O  BGC B   4       3.448 -28.405 -21.5500  0.00  0.00     0.000 O
ATOM     58  HD  BGC B   4       2.729 -28.053 -21.8800  0.00  0.00     0.000 HD
BRANCH 45 58
ATOM     58  O4  BGC B   5       3.561 -29.811 -16.9580  0.00  0.00     0.000 O
BRANCH 58 62
ATOM     59  C1  BGC B   5       3.821 -33.900 -16.3550  0.00  0.00     0.000 C
ATOM     60  C2  BGC B   5       2.462 -33.393 -16.7950  0.00  0.00     0.000 C
ATOM     61  C3  BGC B   5       2.578 -31.997 -17.3790  0.00  0.00     0.000 C
ATOM     62  C4  BGC B   5       3.263 -31.083 -16.3760  0.00  0.00     0.000 C
ATOM     63  C5  BGC B   5       4.595 -31.691 -15.9110  0.00  0.00     0.000 C
ATOM     64  O5  BGC B   5       4.348 -32.990 -15.3840  0.00  0.00     0.000 O
ATOM     65   O  BGC B   5       4.338 -30.783 -13.7650  0.00  0.00     0.000 O
ATOM     67  HD  BGC B   5       3.920 -30.153 -13.3420  0.00  0.00     0.000 HD
ATOM     67   O  BGC B   5       4.338 -30.783 -13.7650  0.00  0.00     0.000 O
ATOM     69  HD  BGC B   5       3.920 -30.153 -13.3420  0.00  0.00     0.000 HD
ENDBRANCH 58 62
ENDBRANCH 45 58
ENDBRANCH 44 48
ENDBRANCH 31 44
ENDBRANCH 30 34
ENDBRANCH 17 30
ENDBRANCH 16 20
ENDBRANCH 1 16
TORSDOF 8
ENDMDL
MODEL 16
REMARK VINA RESULT:      -6.4     26.636     30.451
ROOT
ATOM      1  C1  BGC B   1       2.574 -24.444 -22.0940  0.00  0.00     0.000 C
ATOM      2  C2  BGC B   1       3.301 -23.316 -22.8260  0.00  0.00     0.000 C
ATOM      3  C3  BGC B   1       3.478 -23.674 -24.2890  0.00  0.00     0.000 C
ATOM      4  C4  BGC B   1       4.124 -25.045 -24.4340  0.00  0.00     0.000 C
ATOM      5  C5  BGC B   1       3.284 -26.058 -23.6700  0.00  0.00     0.000 C
ATOM      6  O5  BGC B   1       3.283 -25.660 -22.2870  0.00  0.00     0.000 O
ATOM      7   O  BGC B   1       2.526 -22.110 -22.7240  0.00  0.00     0.000 O
ATOM      9  HD  BGC B   1       2.607 -21.524 -23.3570  0.00  0.00     0.000 HD
ATOM      9   O  BGC B   1       4.274 -22.665 -24.9180  0.00  0.00     0.000 O
ATOM     11  HD  BGC B   1       4.356 -22.080 -25.5510  0.00  0.00     0.000 HD
ATOM     11   O  BGC B   1       4.181 -25.400 -25.7990  0.00  0.00     0.000 O
ATOM     13  HD  BGC B   1       4.263 -24.815 -26.4320  0.00  0.00     0.000 HD
ATOM     13   C  BGC B   1       3.777 -27.495 -23.7600  0.00  0.00     0.000 C
ATOM     14   O  BGC B   1       5.133 -27.630 -23.3480  0.00  0.00     0.000 O
ATOM     16  HD  BGC B   1       5.215 -27.044 -23.9810  0.00  0.00     0.000 HD
ENDROOT
BRANCH 1 16
ATOM     16  O4  BGC B   2       2.697 -24.158 -20.7020  0.00  0.00     0.000 O
BRANCH 16 20
ATOM     17  C1  BGC B   2       0.702 -24.535 -17.1790  0.00  0.00     0.000 C
ATOM     18  C2  BGC B   2       1.241 -25.851 -17.7200  0.00  0.00     0.000 C
ATOM     19  C3  BGC B   2       2.258 -25.544 -18.8170  0.00  0.00     0.000 C
ATOM     20  C4  BGC B   2       1.646 -24.641 -19.8680  0.00  0.00     0.000 C
ATOM     21  C5  BGC B   2       0.950 -23.424 -19.2580  0.00  0.00     0.000 C
ATOM     22  O5  BGC B   2       0.022 -23.880 -18.2660  0.00  0.00     0.000 O
ATOM     23   O  BGC B   2       1.889 -26.588 -16.6700  0.00  0.00     0.000 O
ATOM     25  HD  BGC B   2       2.180 -26.109 -17.3300  0.00  0.00     0.000 HD
ATOM     25   O  BGC B   2       2.711 -26.755 -19.4100  0.00  0.00     0.000 O
ATOM     27  HD  BGC B   2       3.002 -26.276 -20.0700  0.00  0.00     0.000 HD
ATOM     27   C  BGC B   2       0.170 -22.610 -20.2830  0.00  0.00     0.000 C
ATOM     28   O  BGC B   2      -0.795 -23.372 -20.9900  0.00  0.00     0.000 O
ATOM     30  HD  BGC B   2      -0.504 -22.892 -21.6500  0.00  0.00     0.000 HD
BRANCH 17 30
ATOM     30  O4  BGC B   3      -0.315 -24.860 -16.2490  0.00  0.00     0.000 O
BRANCH 30 34
ATOM     31  C1  BGC B   3      -2.670 -22.943 -13.4740  0.00  0.00     0.000 C
ATOM     32  C2  BGC B   3      -3.255 -22.980 -14.8860  0.00  0.00     0.000 C
ATOM     33  C3  BGC B   3      -2.515 -24.029 -15.6970  0.00  0.00     0.000 C
ATOM     34  C4  BGC B   3      -1.013 -23.750 -15.6760  0.00  0.00     0.000 C
ATOM     35  C5  BGC B   3      -0.525 -23.583 -14.2480  0.00  0.00     0.000 C
ATOM     36  O5  BGC B   3      -1.305 -22.576 -13.5940  0.00  0.00     0.000 O
ATOM     37   O  BGC B   3      -4.631 -23.348 -14.8210  0.00  0.00     0.000 O
ATOM     39  HD  BGC B   3      -4.705 -23.154 -15.6620  0.00  0.00     0.000 HD
ATOM     39   O  BGC B   3      -3.012 -24.003 -17.0260  0.00  0.00     0.000 O
ATOM     41  HD  BGC B   3      -3.086 -23.809 -17.8670  0.00  0.00     0.000 HD
ATOM     41   C  BGC B   3       0.949 -23.210 -14.1360  0.00  0.00     0.000 C
ATOM     42   O  BGC B   3       1.202 -22.016 -14.8380  0.00  0.00     0.000 O
ATOM     44  HD  BGC B   3       1.128 -21.822 -15.6780  0.00  0.00     0.000 HD
BRANCH 31 44
ATOM     44  O4  BGC B   4      -3.307 -21.896 -12.7880  0.00  0.00     0.000 O
BRANCH 44 48
ATOM     45  C1  BGC B   4      -3.601 -20.557  -8.9250  0.00  0.00     0.000 C
ATOM     46  C2  BGC B   4      -2.628 -19.777  -9.7980  0.00  0.00     0.000 C
ATOM     47  C3  BGC B   4      -2.892 -20.091 -11.2500  0.00  0.00     0.000 C
ATOM     48  C4  BGC B   4      -2.854 -21.605 -11.4820  0.00  0.00     0.000 C
ATOM     49  C5  BGC B   4      -3.783 -22.325 -10.4960  0.00  0.00     0.000 C
ATOM     50  O5  BGC B   4      -3.440 -21.958  -9.1520  0.00  0.00     0.000 O
ATOM     51   O  BGC B   4      -2.799 -18.363  -9.5840  0.00  0.00     0.000 O
ATOM     53  HD  BGC B   4      -3.219 -18.440 -10.3380  0.00  0.00     0.000 HD
ATOM     53   O  BGC B   4      -1.887 -19.453 -12.0510  0.00  0.00     0.000 O
ATOM     55  HD  BGC B   4      -2.307 -19.530 -12.8040  0.00  0.00     0.000 HD
ATOM     55   C  BGC B   4      -3.724 -23.840 -10.5720  0.00  0.00     0.000 C
ATOM     56   O  BGC B   4      -2.362 -24.233 -10.3960  0.00  0.00     0.000 O
ATOM     58  HD  BGC B   4      -2.782 -24.310 -11.1490  0.00  0.00     0.000 HD
BRANCH 45 58
ATOM     58  O4  BGC B   5      -3.127 -20.412  -7.5860  0.00  0.00     0.000 O
BRANCH 58 62
ATOM     59  C1  BGC B   5      -4.443 -19.550  -3.7550  0.00  0.00     0.000 C
ATOM     60  C2  BGC B   5      -4.736 -20.955  -4.2430  0.00  0.00     0.000 C
ATOM     61  C3  BGC B   5      -3.873 -21.293  -5.4440  0.00  0.00     0.000 C
ATOM     62  C4  BGC B   5      -4.061 -20.234  -6.5180  0.00  0.00     0.000 C
ATOM     63  C5  BGC B   5      -3.828 -18.830  -5.9410  0.00  0.00     0.000 C
ATOM     64  O5  BGC B   5      -4.697 -18.639  -4.8300  0.00  0.00     0.000 O
ATOM     65   O  BGC B   5      -5.452 -17.904  -7.3560  0.00  0.00     0.000 O
ATOM     67  HD  BGC B   5      -5.869 -18.059  -8.0990  0.00  0.00     0.000 HD
ATOM     67   O  BGC B   5      -5.452 -17.904  -7.3560  0.00  0.00     0.000 O
ATOM     69  HD  BGC B   5      -5.869 -18.059  -8.0990  0.00  0.00     0.000 HD
ENDBRANCH 58 62
ENDBRANCH 45 58
ENDBRANCH 44 48
ENDBRANCH 31 44
ENDBRANCH 30 34
ENDBRANCH 17 30
ENDBRANCH 16 20
ENDBRANCH 1 16
TORSDOF 8
ENDMDL
MODEL 17
REMARK VINA RESULT:      -6.4     20.512     25.505
ROOT
ATOM      1  C1  BGC B   1      12.456  -7.110   7.5170  0.00  0.00     0.000 C
ATOM      2  C2  BGC B   1      11.724  -8.022   6.5340  0.00  0.00     0.000 C
ATOM      3  C3  BGC B   1      11.129  -9.208   7.2680  0.00  0.00     0.000 C
ATOM      4  C4  BGC B   1      12.187  -9.905   8.1140  0.00  0.00     0.000 C
ATOM      5  C5  BGC B   1      12.811  -8.878   9.0470  0.00  0.00     0.000 C
ATOM      6  O5  BGC B   1      13.426  -7.868   8.2250  0.00  0.00     0.000 O
ATOM      7   O  BGC B   1      10.669  -7.282   5.8970  0.00  0.00     0.000 O
ATOM      9  HD  BGC B   1       9.978  -7.724   5.6190  0.00  0.00     0.000 HD
ATOM      9   O  BGC B   1      10.567 -10.110   6.3100  0.00  0.00     0.000 O
ATOM     11  HD  BGC B   1       9.876 -10.552   6.0310  0.00  0.00     0.000 HD
ATOM     11   O  BGC B   1      11.588 -10.937   8.8660  0.00  0.00     0.000 O
ATOM     13  HD  BGC B   1      10.897 -11.379   8.5880  0.00  0.00     0.000 HD
ATOM     13   C  BGC B   1      13.861  -9.433   9.9980  0.00  0.00     0.000 C
ATOM     14   O  BGC B   1      14.906 -10.117   9.3130  0.00  0.00     0.000 O
ATOM     16  HD  BGC B   1      14.216 -10.559   9.0340  0.00  0.00     0.000 HD
ENDROOT
BRANCH 1 16
ATOM     16  O4  BGC B   2      13.207  -6.192   6.7250  0.00  0.00     0.000 O
BRANCH 16 20
ATOM     17  C1  BGC B   2      14.594  -2.369   6.7410  0.00  0.00     0.000 C
ATOM     18  C2  BGC B   2      15.388  -3.312   7.6340  0.00  0.00     0.000 C
ATOM     19  C3  BGC B   2      15.020  -4.748   7.2710  0.00  0.00     0.000 C
ATOM     20  C4  BGC B   2      13.519  -4.943   7.3370  0.00  0.00     0.000 C
ATOM     21  C5  BGC B   2      12.756  -3.857   6.5780  0.00  0.00     0.000 C
ATOM     22  O5  BGC B   2      13.202  -2.577   7.0430  0.00  0.00     0.000 O
ATOM     23   O  BGC B   2      16.797  -3.120   7.4250  0.00  0.00     0.000 O
ATOM     25  HD  BGC B   2      16.231  -3.721   7.1630  0.00  0.00     0.000 HD
ATOM     25   O  BGC B   2      15.674  -5.653   8.1530  0.00  0.00     0.000 O
ATOM     27  HD  BGC B   2      15.108  -6.255   7.8910  0.00  0.00     0.000 HD
ATOM     27   C  BGC B   2      11.249  -3.930   6.7920  0.00  0.00     0.000 C
ATOM     28   O  BGC B   2      10.872  -3.871   8.1580  0.00  0.00     0.000 O
ATOM     30  HD  BGC B   2      10.306  -4.472   7.8960  0.00  0.00     0.000 HD
BRANCH 17 30
ATOM     30  O4  BGC B   3      14.876  -1.054   7.1820  0.00  0.00     0.000 O
BRANCH 30 34
ATOM     31  C1  BGC B   3      15.054   2.791   5.7310  0.00  0.00     0.000 C
ATOM     32  C2  BGC B   3      13.693   2.115   5.5700  0.00  0.00     0.000 C
ATOM     33  C3  BGC B   3      13.639   0.898   6.4770  0.00  0.00     0.000 C
ATOM     34  C4  BGC B   3      14.812  -0.035   6.1790  0.00  0.00     0.000 C
ATOM     35  C5  BGC B   3      16.122   0.733   6.2150  0.00  0.00     0.000 C
ATOM     36  O5  BGC B   3      16.040   1.854   5.3280  0.00  0.00     0.000 O
ATOM     37   O  BGC B   3      12.664   3.019   5.9660  0.00  0.00     0.000 O
ATOM     39  HD  BGC B   3      12.078   2.463   5.6520  0.00  0.00     0.000 HD
ATOM     39   O  BGC B   3      12.403   0.233   6.2640  0.00  0.00     0.000 O
ATOM     41  HD  BGC B   3      11.818  -0.323   5.9500  0.00  0.00     0.000 HD
ATOM     41   C  BGC B   3      17.340  -0.102   5.8380  0.00  0.00     0.000 C
ATOM     42   O  BGC B   3      17.177  -0.646   4.5500  0.00  0.00     0.000 O
ATOM     44  HD  BGC B   3      16.591  -1.202   4.2370  0.00  0.00     0.000 HD
BRANCH 31 44
ATOM     44  O4  BGC B   4      15.106   3.847   4.8060  0.00  0.00     0.000 O
BRANCH 44 48
ATOM     45  C1  BGC B   4      16.847   7.517   4.2570  0.00  0.00     0.000 C
ATOM     46  C2  BGC B   4      17.803   6.337   4.1580  0.00  0.00     0.000 C
ATOM     47  C3  BGC B   4      17.013   5.063   3.9820  0.00  0.00     0.000 C
ATOM     48  C4  BGC B   4      15.972   4.925   5.0970  0.00  0.00     0.000 C
ATOM     49  C5  BGC B   4      15.117   6.194   5.1980  0.00  0.00     0.000 C
ATOM     50  O5  BGC B   4      15.967   7.338   5.3680  0.00  0.00     0.000 O
ATOM     51   O  BGC B   4      18.680   6.505   3.0280  0.00  0.00     0.000 O
ATOM     53  HD  BGC B   4      18.130   5.928   2.6900  0.00  0.00     0.000 HD
ATOM     53   O  BGC B   4      17.916   3.949   4.0220  0.00  0.00     0.000 O
ATOM     55  HD  BGC B   4      17.366   3.372   3.6830  0.00  0.00     0.000 HD
ATOM     55   C  BGC B   4      14.132   6.198   6.3530  0.00  0.00     0.000 C
ATOM     56   O  BGC B   4      14.869   5.961   7.5540  0.00  0.00     0.000 O
ATOM     58  HD  BGC B   4      14.319   5.383   7.2160  0.00  0.00     0.000 HD
BRANCH 45 58
ATOM     58  O4  BGC B   5      17.640   8.628   4.6750  0.00  0.00     0.000 O
BRANCH 58 62
ATOM     59  C1  BGC B   5      18.009  12.654   3.7770  0.00  0.00     0.000 C
ATOM     60  C2  BGC B   5      17.273  12.339   5.0640  0.00  0.00     0.000 C
ATOM     61  C3  BGC B   5      17.552  10.915   5.5030  0.00  0.00     0.000 C
ATOM     62  C4  BGC B   5      17.215   9.958   4.3710  0.00  0.00     0.000 C
ATOM     63  C5  BGC B   5      17.929  10.378   3.0770  0.00  0.00     0.000 C
ATOM     64  O5  BGC B   5      17.581  11.725   2.7760  0.00  0.00     0.000 O
ATOM     65   O  BGC B   5      16.135   9.632   1.7650  0.00  0.00     0.000 O
ATOM     67  HD  BGC B   5      15.455   9.096   1.7900  0.00  0.00     0.000 HD
ATOM     67   O  BGC B   5      16.135   9.632   1.7650  0.00  0.00     0.000 O
ATOM     69  HD  BGC B   5      15.455   9.096   1.7900  0.00  0.00     0.000 HD
ENDBRANCH 58 62
ENDBRANCH 45 58
ENDBRANCH 44 48
ENDBRANCH 31 44
ENDBRANCH 30 34
ENDBRANCH 17 30
ENDBRANCH 16 20
ENDBRANCH 1 16
TORSDOF 8
ENDMDL
MODEL 18
REMARK VINA RESULT:      -6.2     14.710     20.438
ROOT
ATOM      1  C1  BGC B   1      14.885  10.949  -9.0030  0.00  0.00     0.000 C
ATOM      2  C2  BGC B   1      16.232  11.490  -8.5270  0.00  0.00     0.000 C
ATOM      3  C3  BGC B   1      16.973  12.134  -9.6830  0.00  0.00     0.000 C
ATOM      4  C4  BGC B   1      17.054  11.181 -10.8690  0.00  0.00     0.000 C
ATOM      5  C5  BGC B   1      15.643  10.744 -11.2340  0.00  0.00     0.000 C
ATOM      6  O5  BGC B   1      15.095  10.061 -10.0920  0.00  0.00     0.000 O
ATOM      7   O  BGC B   1      16.011  12.472  -7.5010  0.00  0.00     0.000 O
ATOM      9  HD  BGC B   1      16.605  13.095  -7.4050  0.00  0.00     0.000 HD
ATOM      9   O  BGC B   1      18.280  12.511  -9.2410  0.00  0.00     0.000 O
ATOM     11  HD  BGC B   1      18.874  13.134  -9.1460  0.00  0.00     0.000 HD
ATOM     11   O  BGC B   1      17.653  11.838 -11.9640  0.00  0.00     0.000 O
ATOM     13  HD  BGC B   1      18.247  12.461 -11.8690  0.00  0.00     0.000 HD
ATOM     13   C  BGC B   1      15.552   9.821 -12.4400  0.00  0.00     0.000 C
ATOM     14   O  BGC B   1      16.362   8.659 -12.2960  0.00  0.00     0.000 O
ATOM     16  HD  BGC B   1      16.956   9.282 -12.2000  0.00  0.00     0.000 HD
ENDROOT
BRANCH 1 16
ATOM     16  O4  BGC B   2      14.387  10.131  -7.9460  0.00  0.00     0.000 O
BRANCH 16 20
ATOM     17  C1  BGC B   2      10.870   8.962  -6.2730  0.00  0.00     0.000 C
ATOM     18  C2  BGC B   2      11.304   8.100  -7.4500  0.00  0.00     0.000 C
ATOM     19  C3  BGC B   2      12.772   8.393  -7.7500  0.00  0.00     0.000 C
ATOM     20  C4  BGC B   2      12.985   9.879  -7.9540  0.00  0.00     0.000 C
ATOM     21  C5  BGC B   2      12.362  10.716  -6.8360  0.00  0.00     0.000 C
ATOM     22  O5  BGC B   2      10.988  10.334  -6.6910  0.00  0.00     0.000 O
ATOM     23   O  BGC B   2      11.160   6.708  -7.1220  0.00  0.00     0.000 O
ATOM     25  HD  BGC B   2      11.839   7.244  -7.1650  0.00  0.00     0.000 HD
ATOM     25   O  BGC B   2      13.183   7.673  -8.9060  0.00  0.00     0.000 O
ATOM     27  HD  BGC B   2      13.862   8.209  -8.9490  0.00  0.00     0.000 HD
ATOM     27   C  BGC B   2      12.401  12.212  -7.1210  0.00  0.00     0.000 C
ATOM     28   O  BGC B   2      11.779  12.567  -8.3450  0.00  0.00     0.000 O
ATOM     30  HD  BGC B   2      12.458  13.103  -8.3880  0.00  0.00     0.000 HD
BRANCH 17 30
ATOM     30  O4  BGC B   3       9.482   8.747  -6.0980  0.00  0.00     0.000 O
BRANCH 30 34
ATOM     31  C1  BGC B   3       6.702   8.379  -3.0890  0.00  0.00     0.000 C
ATOM     32  C2  BGC B   3       7.304   9.776  -3.2290  0.00  0.00     0.000 C
ATOM     33  C3  BGC B   3       7.985   9.885  -4.5810  0.00  0.00     0.000 C
ATOM     34  C4  BGC B   3       9.015   8.768  -4.7460  0.00  0.00     0.000 C
ATOM     35  C5  BGC B   3       8.383   7.418  -4.4530  0.00  0.00     0.000 C
ATOM     36  O5  BGC B   3       7.772   7.450  -3.1580  0.00  0.00     0.000 O
ATOM     37   O  BGC B   3       6.265  10.751  -3.1670  0.00  0.00     0.000 O
ATOM     39  HD  BGC B   3       6.870  11.369  -3.1260  0.00  0.00     0.000 HD
ATOM     39   O  BGC B   3       8.608  11.157  -4.6710  0.00  0.00     0.000 O
ATOM     41  HD  BGC B   3       9.212  11.776  -4.6310  0.00  0.00     0.000 HD
ATOM     41   C  BGC B   3       9.362   6.251  -4.5030  0.00  0.00     0.000 C
ATOM     42   O  BGC B   3      10.414   6.460  -3.5910  0.00  0.00     0.000 O
ATOM     44  HD  BGC B   3      11.019   7.079  -3.5500  0.00  0.00     0.000 HD
BRANCH 31 44
ATOM     44  O4  BGC B   4       6.173   8.282  -1.7910  0.00  0.00     0.000 O
BRANCH 44 48
ATOM     45  C1  BGC B   4       4.171   5.654   0.6360  0.00  0.00     0.000 C
ATOM     46  C2  BGC B   4       5.641   5.326   0.4150  0.00  0.00     0.000 C
ATOM     47  C3  BGC B   4       6.348   6.535  -0.1440  0.00  0.00     0.000 C
ATOM     48  C4  BGC B   4       5.631   7.037  -1.4020  0.00  0.00     0.000 C
ATOM     49  C5  BGC B   4       4.137   7.246  -1.1230  0.00  0.00     0.000 C
ATOM     50  O5  BGC B   4       3.567   6.037  -0.6010  0.00  0.00     0.000 O
ATOM     51   O  BGC B   4       6.257   4.956   1.6630  0.00  0.00     0.000 O
ATOM     53  HD  BGC B   4       6.557   5.766   1.5970  0.00  0.00     0.000 HD
ATOM     53   O  BGC B   4       7.698   6.172  -0.4690  0.00  0.00     0.000 O
ATOM     55  HD  BGC B   4       7.998   6.982  -0.5360  0.00  0.00     0.000 HD
ATOM     55   C  BGC B   4       3.319   7.632  -2.3420  0.00  0.00     0.000 C
ATOM     56   O  BGC B   4       3.535   6.637  -3.3440  0.00  0.00     0.000 O
ATOM     58  HD  BGC B   4       3.835   7.447  -3.4110  0.00  0.00     0.000 HD
BRANCH 45 58
ATOM     58  O4  BGC B   5       3.529   4.410   0.9130  0.00  0.00     0.000 O
BRANCH 58 62
ATOM     59  C1  BGC B   5       0.927   2.638   3.6030  0.00  0.00     0.000 C
ATOM     60  C2  BGC B   5       0.277   3.505   2.5450  0.00  0.00     0.000 C
ATOM     61  C3  BGC B   5       1.236   3.755   1.3970  0.00  0.00     0.000 C
ATOM     62  C4  BGC B   5       2.533   4.337   1.9350  0.00  0.00     0.000 C
ATOM     63  C5  BGC B   5       3.098   3.454   3.0570  0.00  0.00     0.000 C
ATOM     64  O5  BGC B   5       2.106   3.303   4.0680  0.00  0.00     0.000 O
ATOM     65   O  BGC B   5       3.953   5.320   4.1900  0.00  0.00     0.000 O
ATOM     67  HD  BGC B   5       4.189   6.142   4.0570  0.00  0.00     0.000 HD
ATOM     67   O  BGC B   5       3.953   5.320   4.1900  0.00  0.00     0.000 O
ATOM     69  HD  BGC B   5       4.189   6.142   4.0570  0.00  0.00     0.000 HD
ENDBRANCH 58 62
ENDBRANCH 45 58
ENDBRANCH 44 48
ENDBRANCH 31 44
ENDBRANCH 30 34
ENDBRANCH 17 30
ENDBRANCH 16 20
ENDBRANCH 1 16
TORSDOF 8
ENDMDL
MODEL 19
REMARK VINA RESULT:      -6.2     26.937     30.053
ROOT
ATOM      1  C1  BGC B   1      -2.938 -20.451  -9.2270  0.00  0.00     0.000 C
ATOM      2  C2  BGC B   1      -2.980 -19.322 -10.2550  0.00  0.00     0.000 C
ATOM      3  C3  BGC B   1      -4.051 -19.601 -11.2920  0.00  0.00     0.000 C
ATOM      4  C4  BGC B   1      -3.879 -20.995 -11.8840  0.00  0.00     0.000 C
ATOM      5  C5  BGC B   1      -3.872 -22.004 -10.7460  0.00  0.00     0.000 C
ATOM      6  O5  BGC B   1      -2.752 -21.690  -9.8980  0.00  0.00     0.000 O
ATOM      7   O  BGC B   1      -3.279 -18.085  -9.5880  0.00  0.00     0.000 O
ATOM      9  HD  BGC B   1      -3.681 -17.468 -10.0440  0.00  0.00     0.000 HD
ATOM      9   O  BGC B   1      -3.979 -18.602 -12.3130  0.00  0.00     0.000 O
ATOM     11  HD  BGC B   1      -4.381 -17.985 -12.7690  0.00  0.00     0.000 HD
ATOM     11   O  BGC B   1      -4.945 -21.271 -12.7650  0.00  0.00     0.000 O
ATOM     13  HD  BGC B   1      -5.347 -20.654 -13.2220  0.00  0.00     0.000 HD
ATOM     13   C  BGC B   1      -3.755 -23.458 -11.1820  0.00  0.00     0.000 C
ATOM     14   O  BGC B   1      -2.611 -23.688 -11.9980  0.00  0.00     0.000 O
ATOM     16  HD  BGC B   1      -3.013 -23.072 -12.4550  0.00  0.00     0.000 HD
ENDROOT
BRANCH 1 16
ATOM     16  O4  BGC B   2      -1.746 -20.255  -8.4690  0.00  0.00     0.000 O
BRANCH 16 20
ATOM     17  C1  BGC B   2      -0.127 -20.998  -4.8140  0.00  0.00     0.000 C
ATOM     18  C2  BGC B   2      -0.263 -22.238  -5.6850  0.00  0.00     0.000 C
ATOM     19  C3  BGC B   2      -0.526 -21.794  -7.1220  0.00  0.00     0.000 C
ATOM     20  C4  BGC B   2      -1.716 -20.858  -7.1780  0.00  0.00     0.000 C
ATOM     21  C5  BGC B   2      -1.621 -19.732  -6.1480  0.00  0.00     0.000 C
ATOM     22  O5  BGC B   2      -1.392 -20.312  -4.8580  0.00  0.00     0.000 O
ATOM     23   O  BGC B   2       0.951 -23.006  -5.6450  0.00  0.00     0.000 O
ATOM     25  HD  BGC B   2       0.606 -22.465  -6.2270  0.00  0.00     0.000 HD
ATOM     25   O  BGC B   2      -0.753 -22.931  -7.9470  0.00  0.00     0.000 O
ATOM     27  HD  BGC B   2      -1.098 -22.390  -8.5290  0.00  0.00     0.000 HD
ATOM     27   C  BGC B   2      -2.893 -18.897  -6.0620  0.00  0.00     0.000 C
ATOM     28   O  BGC B   2      -4.052 -19.665  -5.7810  0.00  0.00     0.000 O
ATOM     30  HD  BGC B   2      -4.397 -19.124  -6.3620  0.00  0.00     0.000 HD
BRANCH 17 30
ATOM     30  O4  BGC B   3       0.002 -21.449  -3.4780  0.00  0.00     0.000 O
BRANCH 30 34
ATOM     31  C1  BGC B   3       2.015 -20.486  -0.0220  0.00  0.00     0.000 C
ATOM     32  C2  BGC B   3       0.842 -19.562  -0.3520  0.00  0.00     0.000 C
ATOM     33  C3  BGC B   3      -0.038 -20.238  -1.3880  0.00  0.00     0.000 C
ATOM     34  C4  BGC B   3       0.788 -20.621  -2.6150  0.00  0.00     0.000 C
ATOM     35  C5  BGC B   3       2.014 -21.416  -2.2000  0.00  0.00     0.000 C
ATOM     36  O5  BGC B   3       2.751 -20.677  -1.2200  0.00  0.00     0.000 O
ATOM     37   O  BGC B   3       0.067 -19.339   0.8230  0.00  0.00     0.000 O
ATOM     39  HD  BGC B   3      -0.377 -18.731   0.3950  0.00  0.00     0.000 HD
ATOM     39   O  BGC B   3      -1.080 -19.342  -1.7460  0.00  0.00     0.000 O
ATOM     41  HD  BGC B   3      -1.524 -18.734  -2.1740  0.00  0.00     0.000 HD
ATOM     41   C  BGC B   3       2.947 -21.763  -3.3540  0.00  0.00     0.000 C
ATOM     42   O  BGC B   3       3.374 -20.589  -4.0040  0.00  0.00     0.000 O
ATOM     44  HD  BGC B   3       2.930 -19.981  -4.4320  0.00  0.00     0.000 HD
BRANCH 31 44
ATOM     44  O4  BGC B   4       2.858 -19.788   0.8580  0.00  0.00     0.000 O
BRANCH 44 48
ATOM     45  C1  BGC B   4       5.670 -20.479   3.7600  0.00  0.00     0.000 C
ATOM     46  C2  BGC B   4       6.175 -20.633   2.3320  0.00  0.00     0.000 C
ATOM     47  C3  BGC B   4       5.199 -19.986   1.3810  0.00  0.00     0.000 C
ATOM     48  C4  BGC B   4       3.791 -20.546   1.6020  0.00  0.00     0.000 C
ATOM     49  C5  BGC B   4       3.397 -20.446   3.0810  0.00  0.00     0.000 C
ATOM     50  O5  BGC B   4       4.388 -21.095   3.8910  0.00  0.00     0.000 O
ATOM     51   O  BGC B   4       7.460 -19.997   2.1930  0.00  0.00     0.000 O
ATOM     53  HD  BGC B   4       6.966 -19.391   1.8200  0.00  0.00     0.000 HD
ATOM     53   O  BGC B   4       5.621 -20.252   0.0350  0.00  0.00     0.000 O
ATOM     55  HD  BGC B   4       5.127 -19.647  -0.3380  0.00  0.00     0.000 HD
ATOM     55   C  BGC B   4       2.061 -21.083   3.4190  0.00  0.00     0.000 C
ATOM     56   O  BGC B   4       2.100 -22.439   2.9730  0.00  0.00     0.000 O
ATOM     58  HD  BGC B   4       1.606 -21.834   2.6000  0.00  0.00     0.000 HD
BRANCH 45 58
ATOM     58  O4  BGC B   5       6.495 -21.325   4.5610  0.00  0.00     0.000 O
BRANCH 58 62
ATOM     59  C1  BGC B   5       8.734 -21.280   8.0440  0.00  0.00     0.000 C
ATOM     60  C2  BGC B   5       7.249 -21.517   8.2290  0.00  0.00     0.000 C
ATOM     61  C3  BGC B   5       6.607 -21.925   6.9160  0.00  0.00     0.000 C
ATOM     62  C4  BGC B   5       6.920 -20.885   5.8530  0.00  0.00     0.000 C
ATOM     63  C5  BGC B   5       8.433 -20.633   5.7710  0.00  0.00     0.000 C
ATOM     64  O5  BGC B   5       8.907 -20.256   7.0590  0.00  0.00     0.000 O
ATOM     65   O  BGC B   5       8.097 -18.374   5.2440  0.00  0.00     0.000 O
ATOM     67  HD  BGC B   5       7.499 -17.835   4.9240  0.00  0.00     0.000 HD
ATOM     67   O  BGC B   5       8.097 -18.374   5.2440  0.00  0.00     0.000 O
ATOM     69  HD  BGC B   5       7.499 -17.835   4.9240  0.00  0.00     0.000 HD
ENDBRANCH 58 62
ENDBRANCH 45 58
ENDBRANCH 44 48
ENDBRANCH 31 44
ENDBRANCH 30 34
ENDBRANCH 17 30
ENDBRANCH 16 20
ENDBRANCH 1 16
TORSDOF 8
ENDMDL
MODEL 20
REMARK VINA RESULT:      -6.2     12.579     21.656
ROOT
ATOM      1  C1  BGC B   1      17.123 -14.840 -21.1930  0.00  0.00     0.000 C
ATOM      2  C2  BGC B   1      16.413 -13.923 -22.1880  0.00  0.00     0.000 C
ATOM      3  C3  BGC B   1      16.687 -12.472 -21.8460  0.00  0.00     0.000 C
ATOM      4  C4  BGC B   1      16.364 -12.192 -20.3840  0.00  0.00     0.000 C
ATOM      5  C5  BGC B   1      17.152 -13.168 -19.5210  0.00  0.00     0.000 C
ATOM      6  O5  BGC B   1      16.724 -14.496 -19.8730  0.00  0.00     0.000 O
ATOM      7   O  BGC B   1      16.900 -14.197 -23.5130  0.00  0.00     0.000 O
ATOM      9  HD  BGC B   1      16.877 -13.553 -24.0910  0.00  0.00     0.000 HD
ATOM      9   O  BGC B   1      15.907 -11.638 -22.7080  0.00  0.00     0.000 O
ATOM     11  HD  BGC B   1      15.884 -10.994 -23.2870  0.00  0.00     0.000 HD
ATOM     11   O  BGC B   1      16.725 -10.867 -20.0630  0.00  0.00     0.000 O
ATOM     13  HD  BGC B   1      16.702 -10.222 -20.6410  0.00  0.00     0.000 HD
ATOM     13   C  BGC B   1      16.972 -12.983 -18.0210  0.00  0.00     0.000 C
ATOM     14   O  BGC B   1      15.604 -13.035 -17.6280  0.00  0.00     0.000 O
ATOM     16  HD  BGC B   1      15.581 -12.391 -18.2070  0.00  0.00     0.000 HD
ENDROOT
BRANCH 1 16
ATOM     16  O4  BGC B   2      16.597 -16.148 -21.4120  0.00  0.00     0.000 O
BRANCH 16 20
ATOM     17  C1  BGC B   2      17.682 -20.067 -21.3880  0.00  0.00     0.000 C
ATOM     18  C2  BGC B   2      18.059 -19.321 -20.1170  0.00  0.00     0.000 C
ATOM     19  C3  BGC B   2      17.296 -17.998 -20.0860  0.00  0.00     0.000 C
ATOM     20  C4  BGC B   2      17.537 -17.218 -21.3620  0.00  0.00     0.000 C
ATOM     21  C5  BGC B   2      17.327 -18.070 -22.6150  0.00  0.00     0.000 C
ATOM     22  O5  BGC B   2      18.119 -19.258 -22.4960  0.00  0.00     0.000 O
ATOM     23   O  BGC B   2      17.699 -20.098 -18.9630  0.00  0.00     0.000 O
ATOM     25  HD  BGC B   2      17.346 -19.410 -19.3530  0.00  0.00     0.000 HD
ATOM     25   O  BGC B   2      17.699 -17.233 -18.9570  0.00  0.00     0.000 O
ATOM     27  HD  BGC B   2      17.345 -16.545 -19.3470  0.00  0.00     0.000 HD
ATOM     27   C  BGC B   2      17.748 -17.358 -23.8950  0.00  0.00     0.000 C
ATOM     28   O  BGC B   2      19.095 -16.915 -23.8750  0.00  0.00     0.000 O
ATOM     30  HD  BGC B   2      18.741 -16.227 -24.2650  0.00  0.00     0.000 HD
BRANCH 17 30
ATOM     30  O4  BGC B   3      18.490 -21.228 -21.4360  0.00  0.00     0.000 O
BRANCH 30 34
ATOM     31  C1  BGC B   3      18.309 -25.102 -22.8090  0.00  0.00     0.000 C
ATOM     32  C2  BGC B   3      17.773 -24.056 -23.7870  0.00  0.00     0.000 C
ATOM     33  C3  BGC B   3      18.253 -22.683 -23.3500  0.00  0.00     0.000 C
ATOM     34  C4  BGC B   3      17.843 -22.417 -21.9020  0.00  0.00     0.000 C
ATOM     35  C5  BGC B   3      18.283 -23.564 -21.0080  0.00  0.00     0.000 C
ATOM     36  O5  BGC B   3      17.774 -24.796 -21.5310  0.00  0.00     0.000 O
ATOM     37   O  BGC B   3      18.284 -24.319 -25.0920  0.00  0.00     0.000 O
ATOM     39  HD  BGC B   3      17.743 -23.721 -25.4060  0.00  0.00     0.000 HD
ATOM     39   O  BGC B   3      17.688 -21.712 -24.2170  0.00  0.00     0.000 O
ATOM     41  HD  BGC B   3      17.146 -21.114 -24.5320  0.00  0.00     0.000 HD
ATOM     41   C  BGC B   3      17.835 -23.426 -19.5580  0.00  0.00     0.000 C
ATOM     42   O  BGC B   3      16.433 -23.318 -19.4900  0.00  0.00     0.000 O
ATOM     44  HD  BGC B   3      15.891 -22.720 -19.8050  0.00  0.00     0.000 HD
BRANCH 31 44
ATOM     44  O4  BGC B   4      17.762 -26.340 -23.1850  0.00  0.00     0.000 O
BRANCH 44 48
ATOM     45  C1  BGC B   4      18.736 -30.321 -23.2720  0.00  0.00     0.000 C
ATOM     46  C2  BGC B   4      18.264 -29.809 -21.9180  0.00  0.00     0.000 C
ATOM     47  C3  BGC B   4      17.575 -28.479 -22.0960  0.00  0.00     0.000 C
ATOM     48  C4  BGC B   4      18.490 -27.502 -22.8410  0.00  0.00     0.000 C
ATOM     49  C5  BGC B   4      19.003 -28.130 -24.1420  0.00  0.00     0.000 C
ATOM     50  O5  BGC B   4      19.642 -29.383 -23.8560  0.00  0.00     0.000 O
ATOM     51   O  BGC B   4      17.337 -30.744 -21.3340  0.00  0.00     0.000 O
ATOM     53  HD  BGC B   4      16.773 -30.150 -21.6150  0.00  0.00     0.000 HD
ATOM     53   O  BGC B   4      17.253 -27.949 -20.8020  0.00  0.00     0.000 O
ATOM     55  HD  BGC B   4      16.689 -27.355 -21.0830  0.00  0.00     0.000 HD
ATOM     55   C  BGC B   4      20.011 -27.280 -24.8950  0.00  0.00     0.000 C
ATOM     56   O  BGC B   4      21.081 -26.976 -23.9970  0.00  0.00     0.000 O
ATOM     58  HD  BGC B   4      20.517 -26.382 -24.2790  0.00  0.00     0.000 HD
BRANCH 45 58
ATOM     58  O4  BGC B   5      19.589 -31.431 -22.9940  0.00  0.00     0.000 O
BRANCH 58 62
ATOM     59  C1  BGC B   5      21.722 -34.455 -24.8530  0.00  0.00     0.000 C
ATOM     60  C2  BGC B   5      22.250 -33.053 -25.0800  0.00  0.00     0.000 C
ATOM     61  C3  BGC B   5      21.678 -32.096 -24.0520  0.00  0.00     0.000 C
ATOM     62  C4  BGC B   5      20.160 -32.175 -24.0740  0.00  0.00     0.000 C
ATOM     63  C5  BGC B   5      19.691 -33.630 -23.9200  0.00  0.00     0.000 C
ATOM     64  O5  BGC B   5      20.294 -34.418 -24.9410  0.00  0.00     0.000 O
ATOM     65   O  BGC B   5      17.844 -33.254 -25.3130  0.00  0.00     0.000 O
ATOM     67  HD  BGC B   5      17.345 -32.615 -25.6180  0.00  0.00     0.000 HD
ATOM     67   O  BGC B   5      17.844 -33.254 -25.3130  0.00  0.00     0.000 O
ATOM     69  HD  BGC B   5      17.345 -32.615 -25.6180  0.00  0.00     0.000 HD
ENDBRANCH 58 62
ENDBRANCH 45 58
ENDBRANCH 44 48
ENDBRANCH 31 44
ENDBRANCH 30 34
ENDBRANCH 17 30
ENDBRANCH 16 20
ENDBRANCH 1 16
TORSDOF 8
ENDMDL
MODEL 21
REMARK VINA RESULT:      -6.1     11.717     19.118
ROOT
ATOM      1  C1  BGC B   1       7.877  -4.247 -28.9510  0.00  0.00     0.000 C
ATOM      2  C2  BGC B   1       8.147  -5.750 -29.0090  0.00  0.00     0.000 C
ATOM      3  C3  BGC B   1       7.250  -6.400 -30.0450  0.00  0.00     0.000 C
ATOM      4  C4  BGC B   1       5.793  -6.025 -29.8090  0.00  0.00     0.000 C
ATOM      5  C5  BGC B   1       5.682  -4.507 -29.7920  0.00  0.00     0.000 C
ATOM      6  O5  BGC B   1       6.495  -4.029 -28.7050  0.00  0.00     0.000 O
ATOM      7   O  BGC B   1       9.521  -5.970 -29.3680  0.00  0.00     0.000 O
ATOM      9  HD  BGC B   1       9.716  -6.706 -29.7800  0.00  0.00     0.000 HD
ATOM      9   O  BGC B   1       7.427  -7.819 -29.9850  0.00  0.00     0.000 O
ATOM     11  HD  BGC B   1       7.622  -8.554 -30.3980  0.00  0.00     0.000 HD
ATOM     11   O  BGC B   1       4.993  -6.554 -30.8440  0.00  0.00     0.000 O
ATOM     13  HD  BGC B   1       5.188  -7.290 -31.2560  0.00  0.00     0.000 HD
ATOM     13   C  BGC B   1       4.269  -3.971 -29.6130  0.00  0.00     0.000 C
ATOM     14   O  BGC B   1       3.640  -4.484 -28.4420  0.00  0.00     0.000 O
ATOM     16  HD  BGC B   1       3.835  -5.219 -28.8550  0.00  0.00     0.000 HD
ENDROOT
BRANCH 1 16
ATOM     16  O4  BGC B   2       8.543  -3.768 -27.7840  0.00  0.00     0.000 O
BRANCH 16 20
ATOM     17  C1  BGC B   2      10.216  -0.412 -26.2100  0.00  0.00     0.000 C
ATOM     18  C2  BGC B   2       8.781  -0.219 -26.6780  0.00  0.00     0.000 C
ATOM     19  C3  BGC B   2       8.153  -1.593 -26.8980  0.00  0.00     0.000 C
ATOM     20  C4  BGC B   2       9.008  -2.422 -27.8350  0.00  0.00     0.000 C
ATOM     21  C5  BGC B   2      10.481  -2.430 -27.4270  0.00  0.00     0.000 C
ATOM     22  O5  BGC B   2      10.920  -1.074 -27.2780  0.00  0.00     0.000 O
ATOM     23   O  BGC B   2       8.027   0.488 -25.6790  0.00  0.00     0.000 O
ATOM     25  HD  BGC B   2       8.073  -0.344 -25.9140  0.00  0.00     0.000 HD
ATOM     25   O  BGC B   2       6.841  -1.446 -27.4280  0.00  0.00     0.000 O
ATOM     27  HD  BGC B   2       6.886  -2.278 -27.6630  0.00  0.00     0.000 HD
ATOM     27   C  BGC B   2      11.380  -3.098 -28.4590  0.00  0.00     0.000 C
ATOM     28   O  BGC B   2      11.277  -2.523 -29.7510  0.00  0.00     0.000 O
ATOM     30  HD  BGC B   2      11.323  -3.355 -29.9860  0.00  0.00     0.000 HD
BRANCH 17 30
ATOM     30  O4  BGC B   3      10.797   0.875 -26.1260  0.00  0.00     0.000 O
BRANCH 30 34
ATOM     31  C1  BGC B   3      13.361   3.035 -23.7420  0.00  0.00     0.000 C
ATOM     32  C2  BGC B   3      13.986   1.800 -24.3900  0.00  0.00     0.000 C
ATOM     33  C3  BGC B   3      13.091   1.335 -25.5260  0.00  0.00     0.000 C
ATOM     34  C4  BGC B   3      11.672   1.092 -25.0150  0.00  0.00     0.000 C
ATOM     35  C5  BGC B   3      11.167   2.308 -24.2570  0.00  0.00     0.000 C
ATOM     36  O5  BGC B   3      12.099   2.646 -23.2250  0.00  0.00     0.000 O
ATOM     37   O  BGC B   3      15.261   2.140 -24.9300  0.00  0.00     0.000 O
ATOM     39  HD  BGC B   3      15.406   1.298 -25.0740  0.00  0.00     0.000 HD
ATOM     39   O  BGC B   3      13.638   0.144 -26.0710  0.00  0.00     0.000 O
ATOM     41  HD  BGC B   3      13.784  -0.697 -26.2150  0.00  0.00     0.000 HD
ATOM     41   C  BGC B   3       9.790   2.120 -23.6310  0.00  0.00     0.000 C
ATOM     42   O  BGC B   3       9.801   1.019 -22.7540  0.00  0.00     0.000 O
ATOM     44  HD  BGC B   3       9.946   0.177 -22.8970  0.00  0.00     0.000 HD
BRANCH 31 44
ATOM     44  O4  BGC B   4      14.159   3.373 -22.6370  0.00  0.00     0.000 O
BRANCH 44 48
ATOM     45  C1  BGC B   4      15.508   6.640 -20.5610  0.00  0.00     0.000 C
ATOM     46  C2  BGC B   4      13.993   6.523 -20.6530  0.00  0.00     0.000 C
ATOM     47  C3  BGC B   4      13.621   5.123 -21.0750  0.00  0.00     0.000 C
ATOM     48  C4  BGC B   4      14.350   4.747 -22.3690  0.00  0.00     0.000 C
ATOM     49  C5  BGC B   4      15.858   4.989 -22.2280  0.00  0.00     0.000 C
ATOM     50  O5  BGC B   4      16.095   6.347 -21.8290  0.00  0.00     0.000 O
ATOM     51   O  BGC B   4      13.398   6.801 -19.3710  0.00  0.00     0.000 O
ATOM     53  HD  BGC B   4      13.339   5.937 -19.3650  0.00  0.00     0.000 HD
ATOM     53   O  BGC B   4      12.202   5.065 -21.2840  0.00  0.00     0.000 O
ATOM     55  HD  BGC B   4      12.143   4.201 -21.2780  0.00  0.00     0.000 HD
ATOM     55   C  BGC B   4      16.652   4.754 -23.5000  0.00  0.00     0.000 C
ATOM     56   O  BGC B   4      16.081   5.566 -24.5270  0.00  0.00     0.000 O
ATOM     58  HD  BGC B   4      16.022   4.702 -24.5210  0.00  0.00     0.000 HD
BRANCH 45 58
ATOM     58  O4  BGC B   5      15.785   8.032 -20.4140  0.00  0.00     0.000 O
BRANCH 58 62
ATOM     59  C1  BGC B   5      18.582  10.579 -18.7290  0.00  0.00     0.000 C
ATOM     60  C2  BGC B   5      19.135   9.284 -19.2890  0.00  0.00     0.000 C
ATOM     61  C3  BGC B   5      18.134   8.638 -20.2280  0.00  0.00     0.000 C
ATOM     62  C4  BGC B   5      16.805   8.462 -19.5100  0.00  0.00     0.000 C
ATOM     63  C5  BGC B   5      16.340   9.792 -18.8990  0.00  0.00     0.000 C
ATOM     64  O5  BGC B   5      17.362  10.287 -18.0410  0.00  0.00     0.000 O
ATOM     65   O  BGC B   5      15.358   8.690 -17.0780  0.00  0.00     0.000 O
ATOM     67  HD  BGC B   5      15.051   7.915 -16.8410  0.00  0.00     0.000 HD
ATOM     67   O  BGC B   5      15.358   8.690 -17.0780  0.00  0.00     0.000 O
ATOM     69  HD  BGC B   5      15.051   7.915 -16.8410  0.00  0.00     0.000 HD
ENDBRANCH 58 62
ENDBRANCH 45 58
ENDBRANCH 44 48
ENDBRANCH 31 44
ENDBRANCH 30 34
ENDBRANCH 17 30
ENDBRANCH 16 20
ENDBRANCH 1 16
TORSDOF 8
ENDMDL
MODEL 22
REMARK VINA RESULT:      -6.1     22.644     28.203
ROOT
ATOM      1  C1  BGC B   1       7.091 -23.614   1.5530  0.00  0.00     0.000 C
ATOM      2  C2  BGC B   1       6.553 -24.825   2.3110  0.00  0.00     0.000 C
ATOM      3  C3  BGC B   1       5.394 -25.442   1.5520  0.00  0.00     0.000 C
ATOM      4  C4  BGC B   1       4.348 -24.387   1.2140  0.00  0.00     0.000 C
ATOM      5  C5  BGC B   1       5.029 -23.261   0.4510  0.00  0.00     0.000 C
ATOM      6  O5  BGC B   1       6.031 -22.698   1.3190  0.00  0.00     0.000 O
ATOM      7   O  BGC B   1       7.600 -25.800   2.4510  0.00  0.00     0.000 O
ATOM      9  HD  BGC B   1       7.369 -26.632   2.5160  0.00  0.00     0.000 HD
ATOM      9   O  BGC B   1       4.825 -26.488   2.3450  0.00  0.00     0.000 O
ATOM     11  HD  BGC B   1       4.595 -27.320   2.4110  0.00  0.00     0.000 HD
ATOM     11   O  BGC B   1       3.335 -24.963   0.4180  0.00  0.00     0.000 O
ATOM     13  HD  BGC B   1       3.104 -25.795   0.4840  0.00  0.00     0.000 HD
ATOM     13   C  BGC B   1       4.100 -22.144  -0.0030  0.00  0.00     0.000 C
ATOM     14   O  BGC B   1       3.363 -21.579   1.0770  0.00  0.00     0.000 O
ATOM     16  HD  BGC B   1       3.132 -22.411   1.1420  0.00  0.00     0.000 HD
ENDROOT
BRANCH 1 16
ATOM     16  O4  BGC B   2       7.972 -22.941   2.4510  0.00  0.00     0.000 O
BRANCH 16 20
ATOM     17  C1  BGC B   2      11.357 -20.688   2.5260  0.00  0.00     0.000 C
ATOM     18  C2  BGC B   2      10.164 -19.979   1.9030  0.00  0.00     0.000 C
ATOM     19  C3  BGC B   2       8.898 -20.756   2.2560  0.00  0.00     0.000 C
ATOM     20  C4  BGC B   2       9.040 -22.210   1.8530  0.00  0.00     0.000 C
ATOM     21  C5  BGC B   2      10.349 -22.826   2.3450  0.00  0.00     0.000 C
ATOM     22  O5  BGC B   2      11.434 -21.992   1.9200  0.00  0.00     0.000 O
ATOM     23   O  BGC B   2      10.056 -18.643   2.4230  0.00  0.00     0.000 O
ATOM     25  HD  BGC B   2       9.632 -19.381   2.5820  0.00  0.00     0.000 HD
ATOM     25   O  BGC B   2       7.774 -20.172   1.6080  0.00  0.00     0.000 O
ATOM     27  HD  BGC B   2       7.350 -20.910   1.7670  0.00  0.00     0.000 HD
ATOM     27   C  BGC B   2      10.594 -24.224   1.7900  0.00  0.00     0.000 C
ATOM     28   O  BGC B   2      10.579 -24.277   0.3730  0.00  0.00     0.000 O
ATOM     30  HD  BGC B   2      10.154 -25.015   0.5320  0.00  0.00     0.000 HD
BRANCH 17 30
ATOM     30  O4  BGC B   3      12.515 -20.006   2.0850  0.00  0.00     0.000 O
BRANCH 30 34
ATOM     31  C1  BGC B   3      16.235 -18.892   3.4450  0.00  0.00     0.000 C
ATOM     32  C2  BGC B   3      16.025 -20.401   3.3350  0.00  0.00     0.000 C
ATOM     33  C3  BGC B   3      14.807 -20.667   2.4680  0.00  0.00     0.000 C
ATOM     34  C4  BGC B   3      13.590 -19.931   3.0270  0.00  0.00     0.000 C
ATOM     35  C5  BGC B   3      13.914 -18.464   3.2450  0.00  0.00     0.000 C
ATOM     36  O5  BGC B   3      15.080 -18.350   4.0670  0.00  0.00     0.000 O
ATOM     37   O  BGC B   3      17.162 -20.995   2.7110  0.00  0.00     0.000 O
ATOM     39  HD  BGC B   3      16.842 -21.775   2.9100  0.00  0.00     0.000 HD
ATOM     39   O  BGC B   3      14.575 -22.067   2.4350  0.00  0.00     0.000 O
ATOM     41  HD  BGC B   3      14.256 -22.847   2.6330  0.00  0.00     0.000 HD
ATOM     41   C  BGC B   3      12.783 -17.669   3.8880  0.00  0.00     0.000 C
ATOM     42   O  BGC B   3      12.432 -18.239   5.1270  0.00  0.00     0.000 O
ATOM     44  HD  BGC B   3      12.113 -19.019   5.3250  0.00  0.00     0.000 HD
BRANCH 31 44
ATOM     44  O4  BGC B   4      17.302 -18.684   4.3330  0.00  0.00     0.000 O
BRANCH 44 48
ATOM     45  C1  BGC B   4      19.610 -15.540   5.5980  0.00  0.00     0.000 C
ATOM     46  C2  BGC B   4      18.508 -15.952   6.5640  0.00  0.00     0.000 C
ATOM     47  C3  BGC B   4      18.000 -17.324   6.1930  0.00  0.00     0.000 C
ATOM     48  C4  BGC B   4      17.575 -17.352   4.7210  0.00  0.00     0.000 C
ATOM     49  C5  BGC B   4      18.702 -16.827   3.8240  0.00  0.00     0.000 C
ATOM     50  O5  BGC B   4      19.102 -15.521   4.2620  0.00  0.00     0.000 O
ATOM     51   O  BGC B   4      19.021 -15.989   7.9090  0.00  0.00     0.000 O
ATOM     53  HD  BGC B   4      19.019 -16.838   7.7400  0.00  0.00     0.000 HD
ATOM     53   O  BGC B   4      16.878 -17.642   7.0280  0.00  0.00     0.000 O
ATOM     55  HD  BGC B   4      16.875 -18.492   6.8590  0.00  0.00     0.000 HD
ATOM     55   C  BGC B   4      18.332 -16.709   2.3560  0.00  0.00     0.000 C
ATOM     56   O  BGC B   4      17.162 -15.893   2.2670  0.00  0.00     0.000 O
ATOM     58  HD  BGC B   4      17.159 -16.743   2.0970  0.00  0.00     0.000 HD
BRANCH 45 58
ATOM     58  O4  BGC B   5      19.852 -14.156   5.8480  0.00  0.00     0.000 O
BRANCH 58 62
ATOM     59  C1  BGC B   5      22.902 -11.361   5.6630  0.00  0.00     0.000 C
ATOM     60  C2  BGC B   5      22.936 -12.432   4.5910  0.00  0.00     0.000 C
ATOM     61  C3  BGC B   5      21.592 -13.129   4.4920  0.00  0.00     0.000 C
ATOM     62  C4  BGC B   5      21.193 -13.661   5.8590  0.00  0.00     0.000 C
ATOM     63  C5  BGC B   5      21.256 -12.546   6.9130  0.00  0.00     0.000 C
ATOM     64  O5  BGC B   5      22.563 -11.981   6.9070  0.00  0.00     0.000 O
ATOM     65   O  BGC B   5      21.928 -14.059   8.5720  0.00  0.00     0.000 O
ATOM     67  HD  BGC B   5      21.917 -14.904   8.7620  0.00  0.00     0.000 HD
ATOM     67   O  BGC B   5      21.928 -14.059   8.5720  0.00  0.00     0.000 O
ATOM     69  HD  BGC B   5      21.917 -14.904   8.7620  0.00  0.00     0.000 HD
ENDBRANCH 58 62
ENDBRANCH 45 58
ENDBRANCH 44 48
ENDBRANCH 31 44
ENDBRANCH 30 34
ENDBRANCH 17 30
ENDBRANCH 16 20
ENDBRANCH 1 16
TORSDOF 8
ENDMDL
MODEL 23
REMARK VINA RESULT:      -6.1      4.352      5.820
ROOT
ATOM      1  C1  BGC B   1      19.315   3.229 -18.3210  0.00  0.00     0.000 C
ATOM      2  C2  BGC B   1      20.208   4.251 -17.6200  0.00  0.00     0.000 C
ATOM      3  C3  BGC B   1      19.813   5.656 -18.0320  0.00  0.00     0.000 C
ATOM      4  C4  BGC B   1      19.773   5.782 -19.5500  0.00  0.00     0.000 C
ATOM      5  C5  BGC B   1      18.836   4.714 -20.0970  0.00  0.00     0.000 C
ATOM      6  O5  BGC B   1      19.379   3.434 -19.7250  0.00  0.00     0.000 O
ATOM      7   O  BGC B   1      20.057   4.115 -16.1980  0.00  0.00     0.000 O
ATOM      9  HD  BGC B   1      20.194   4.817 -15.7090  0.00  0.00     0.000 HD
ATOM      9   O  BGC B   1      20.746   6.583 -17.4690  0.00  0.00     0.000 O
ATOM     11  HD  BGC B   1      20.883   7.285 -16.9810  0.00  0.00     0.000 HD
ATOM     11   O  BGC B   1      19.302   7.063 -19.9070  0.00  0.00     0.000 O
ATOM     13  HD  BGC B   1      19.439   7.765 -19.4190  0.00  0.00     0.000 HD
ATOM     13   C  BGC B   1      18.651   4.741 -21.6080  0.00  0.00     0.000 C
ATOM     14   O  BGC B   1      19.888   4.659 -22.3080  0.00  0.00     0.000 O
ATOM     16  HD  BGC B   1      20.026   5.361 -21.8190  0.00  0.00     0.000 HD
ENDROOT
BRANCH 1 16
ATOM     16  O4  BGC B   2      19.920   1.956 -18.1030  0.00  0.00     0.000 O
BRANCH 16 20
ATOM     17  C1  BGC B   2      18.994  -1.955 -17.4810  0.00  0.00     0.000 C
ATOM     18  C2  BGC B   2      18.316  -1.353 -18.7030  0.00  0.00     0.000 C
ATOM     19  C3  BGC B   2      19.007  -0.033 -19.0400  0.00  0.00     0.000 C
ATOM     20  C4  BGC B   2      19.031   0.876 -17.8290  0.00  0.00     0.000 C
ATOM     21  C5  BGC B   2      19.545   0.166 -16.5760  0.00  0.00     0.000 C
ATOM     22  O5  BGC B   2      18.789  -1.037 -16.3910  0.00  0.00     0.000 O
ATOM     23   O  BGC B   2      18.435  -2.245 -19.8230  0.00  0.00     0.000 O
ATOM     25  HD  BGC B   2      18.843  -1.516 -19.5950  0.00  0.00     0.000 HD
ATOM     25   O  BGC B   2      18.335   0.603 -20.1210  0.00  0.00     0.000 O
ATOM     27  HD  BGC B   2      18.743   1.332 -19.8930  0.00  0.00     0.000 HD
ATOM     27   C  BGC B   2      19.398   1.006 -15.3140  0.00  0.00     0.000 C
ATOM     28   O  BGC B   2      18.066   1.430 -15.0730  0.00  0.00     0.000 O
ATOM     30  HD  BGC B   2      18.474   2.159 -14.8450  0.00  0.00     0.000 HD
BRANCH 17 30
ATOM     30  O4  BGC B   3      18.258  -3.112 -17.1330  0.00  0.00     0.000 O
BRANCH 30 34
ATOM     31  C1  BGC B   3      19.134  -6.918 -15.8380  0.00  0.00     0.000 C
ATOM     32  C2  BGC B   3      18.699  -5.956 -14.7340  0.00  0.00     0.000 C
ATOM     33  C3  BGC B   3      18.035  -4.747 -15.3680  0.00  0.00     0.000 C
ATOM     34  C4  BGC B   3      18.973  -4.104 -16.3880  0.00  0.00     0.000 C
ATOM     35  C5  BGC B   3      19.481  -5.145 -17.3700  0.00  0.00     0.000 C
ATOM     36  O5  BGC B   3      20.074  -6.230 -16.6490  0.00  0.00     0.000 O
ATOM     37   O  BGC B   3      17.748  -6.601 -13.8890  0.00  0.00     0.000 O
ATOM     39  HD  BGC B   3      17.805  -5.933 -13.3420  0.00  0.00     0.000 HD
ATOM     39   O  BGC B   3      17.704  -3.825 -14.3410  0.00  0.00     0.000 O
ATOM     41  HD  BGC B   3      17.760  -3.156 -13.7940  0.00  0.00     0.000 HD
ATOM     41   C  BGC B   3      20.498  -4.609 -18.3720  0.00  0.00     0.000 C
ATOM     42   O  BGC B   3      21.602  -4.057 -17.6940  0.00  0.00     0.000 O
ATOM     44  HD  BGC B   3      21.659  -3.389 -17.1470  0.00  0.00     0.000 HD
BRANCH 31 44
ATOM     44  O4  BGC B   4      19.832  -7.970 -15.2230  0.00  0.00     0.000 O
BRANCH 44 48
ATOM     45  C1  BGC B   4      21.368 -11.586 -16.3940  0.00  0.00     0.000 C
ATOM     46  C2  BGC B   4      22.408 -10.506 -16.1310  0.00  0.00     0.000 C
ATOM     47  C3  BGC B   4      21.778  -9.381 -15.3470  0.00  0.00     0.000 C
ATOM     48  C4  BGC B   4      20.524  -8.870 -16.0630  0.00  0.00     0.000 C
ATOM     49  C5  BGC B   4      19.575 -10.032 -16.3830  0.00  0.00     0.000 C
ATOM     50  O5  BGC B   4      20.274 -11.037 -17.1310  0.00  0.00     0.000 O
ATOM     51   O  BGC B   4      23.504 -11.052 -15.3720  0.00  0.00     0.000 O
ATOM     53  HD  BGC B   4      23.091 -10.634 -14.7360  0.00  0.00     0.000 HD
ATOM     53   O  BGC B   4      22.731  -8.316 -15.2200  0.00  0.00     0.000 O
ATOM     55  HD  BGC B   4      22.319  -7.898 -14.5830  0.00  0.00     0.000 HD
ATOM     55   C  BGC B   4      18.355  -9.640 -17.1970  0.00  0.00     0.000 C
ATOM     56   O  BGC B   4      18.815  -8.991 -18.3850  0.00  0.00     0.000 O
ATOM     58  HD  BGC B   4      18.402  -8.573 -17.7480  0.00  0.00     0.000 HD
BRANCH 45 58
ATOM     58  O4  BGC B   5      21.957 -12.473 -17.3440  0.00  0.00     0.000 O
BRANCH 58 62
ATOM     59  C1  BGC B   5      21.959 -16.461 -18.4600  0.00  0.00     0.000 C
ATOM     60  C2  BGC B   5      20.608 -15.895 -18.0740  0.00  0.00     0.000 C
ATOM     61  C3  BGC B   5      20.641 -14.379 -18.0920  0.00  0.00     0.000 C
ATOM     62  C4  BGC B   5      21.773 -13.884 -17.2060  0.00  0.00     0.000 C
ATOM     63  C5  BGC B   5      23.098 -14.555 -17.5970  0.00  0.00     0.000 C
ATOM     64  O5  BGC B   5      22.934 -15.968 -17.5350  0.00  0.00     0.000 O
ATOM     65   O  BGC B   5      23.834 -14.554 -15.3710  0.00  0.00     0.000 O
ATOM     67  HD  BGC B   5      23.698 -14.157 -14.6130  0.00  0.00     0.000 HD
ATOM     67   O  BGC B   5      23.834 -14.554 -15.3710  0.00  0.00     0.000 O
ATOM     69  HD  BGC B   5      23.698 -14.157 -14.6130  0.00  0.00     0.000 HD
ENDBRANCH 58 62
ENDBRANCH 45 58
ENDBRANCH 44 48
ENDBRANCH 31 44
ENDBRANCH 30 34
ENDBRANCH 17 30
ENDBRANCH 16 20
ENDBRANCH 1 16
TORSDOF 8
ENDMDL
MODEL 24
REMARK VINA RESULT:      -6.1     11.431     13.115
ROOT
ATOM      1  C1  BGC B   1      18.388   7.134 -21.5600  0.00  0.00     0.000 C
ATOM      2  C2  BGC B   1      18.865   8.360 -22.3380  0.00  0.00     0.000 C
ATOM      3  C3  BGC B   1      20.065   8.980 -21.6490  0.00  0.00     0.000 C
ATOM      4  C4  BGC B   1      19.768   9.238 -20.1770  0.00  0.00     0.000 C
ATOM      5  C5  BGC B   1      19.322   7.930 -19.5390  0.00  0.00     0.000 C
ATOM      6  O5  BGC B   1      18.124   7.507 -20.2150  0.00  0.00     0.000 O
ATOM      7   O  BGC B   1      19.238   7.960 -23.6680  0.00  0.00     0.000 O
ATOM      9  HD  BGC B   1      19.838   8.432 -24.0770  0.00  0.00     0.000 HD
ATOM      9   O  BGC B   1      20.407  10.196 -22.3200  0.00  0.00     0.000 O
ATOM     11  HD  BGC B   1      21.007  10.667 -22.7290  0.00  0.00     0.000 HD
ATOM     11   O  BGC B   1      20.930   9.715 -19.5350  0.00  0.00     0.000 O
ATOM     13  HD  BGC B   1      21.530  10.187 -19.9440  0.00  0.00     0.000 HD
ATOM     13   C  BGC B   1      19.033   8.013 -18.0470  0.00  0.00     0.000 C
ATOM     14   O  BGC B   1      18.073   9.018 -17.7370  0.00  0.00     0.000 O
ATOM     16  HD  BGC B   1      18.673   9.490 -18.1450  0.00  0.00     0.000 HD
ENDROOT
BRANCH 1 16
ATOM     16  O4  BGC B   2      17.117   6.786 -22.1060  0.00  0.00     0.000 O
BRANCH 16 20
ATOM     17  C1  BGC B   2      14.766   3.580 -22.9580  0.00  0.00     0.000 C
ATOM     18  C2  BGC B   2      15.100   3.717 -21.4800  0.00  0.00     0.000 C
ATOM     19  C3  BGC B   2      15.657   5.118 -21.2370  0.00  0.00     0.000 C
ATOM     20  C4  BGC B   2      16.821   5.393 -22.1680  0.00  0.00     0.000 C
ATOM     21  C5  BGC B   2      16.495   5.058 -23.6240  0.00  0.00     0.000 C
ATOM     22  O5  BGC B   2      16.003   3.714 -23.6830  0.00  0.00     0.000 O
ATOM     23   O  BGC B   2      13.915   3.539 -20.6870  0.00  0.00     0.000 O
ATOM     25  HD  BGC B   2      14.369   4.234 -20.9330  0.00  0.00     0.000 HD
ATOM     25   O  BGC B   2      16.069   5.247 -19.8820  0.00  0.00     0.000 O
ATOM     27  HD  BGC B   2      16.523   5.942 -20.1280  0.00  0.00     0.000 HD
ATOM     27   C  BGC B   2      17.709   5.149 -24.5400  0.00  0.00     0.000 C
ATOM     28   O  BGC B   2      18.790   4.332 -24.1240  0.00  0.00     0.000 O
ATOM     30  HD  BGC B   2      19.244   5.027 -24.3700  0.00  0.00     0.000 HD
BRANCH 17 30
ATOM     30  O4  BGC B   3      14.361   2.239 -23.1630  0.00  0.00     0.000 O
BRANCH 30 34
ATOM     31  C1  BGC B   3      12.021  -0.001 -25.6990  0.00  0.00     0.000 C
ATOM     32  C2  BGC B   3      13.212   0.680 -26.3710  0.00  0.00     0.000 C
ATOM     33  C3  BGC B   3      14.193   1.124 -25.3000  0.00  0.00     0.000 C
ATOM     34  C4  BGC B   3      13.490   2.016 -24.2770  0.00  0.00     0.000 C
ATOM     35  C5  BGC B   3      12.236   1.336 -23.7560  0.00  0.00     0.000 C
ATOM     36  O5  BGC B   3      11.404   0.962 -24.8590  0.00  0.00     0.000 O
ATOM     37   O  BGC B   3      13.871  -0.250 -27.2280  0.00  0.00     0.000 O
ATOM     39  HD  BGC B   3      14.349   0.401 -27.5400  0.00  0.00     0.000 HD
ATOM     39   O  BGC B   3      15.258   1.823 -25.9260  0.00  0.00     0.000 O
ATOM     41  HD  BGC B   3      15.736   2.474 -26.2380  0.00  0.00     0.000 HD
ATOM     41   C  BGC B   3      11.420   2.193 -22.7950  0.00  0.00     0.000 C
ATOM     42   O  BGC B   3      11.049   3.400 -23.4180  0.00  0.00     0.000 O
ATOM     44  HD  BGC B   3      11.527   4.051 -23.7300  0.00  0.00     0.000 HD
BRANCH 31 44
ATOM     44  O4  BGC B   4      11.092  -0.304 -26.7080  0.00  0.00     0.000 O
BRANCH 44 48
ATOM     45  C1  BGC B   4       8.191  -3.043 -27.6490  0.00  0.00     0.000 C
ATOM     46  C2  BGC B   4       7.975  -2.312 -26.3310  0.00  0.00     0.000 C
ATOM     47  C3  BGC B   4       8.856  -1.088 -26.2840  0.00  0.00     0.000 C
ATOM     48  C4  BGC B   4      10.315  -1.474 -26.5460  0.00  0.00     0.000 C
ATOM     49  C5  BGC B   4      10.433  -2.293 -27.8370  0.00  0.00     0.000 C
ATOM     50  O5  BGC B   4       9.560  -3.430 -27.7710  0.00  0.00     0.000 O
ATOM     51   O  BGC B   4       6.598  -1.906 -26.2120  0.00  0.00     0.000 O
ATOM     53  HD  BGC B   4       6.948  -1.145 -26.4330  0.00  0.00     0.000 HD
ATOM     53   O  BGC B   4       8.740  -0.485 -24.9880  0.00  0.00     0.000 O
ATOM     55  HD  BGC B   4       9.089   0.276 -25.2090  0.00  0.00     0.000 HD
ATOM     55   C  BGC B   4      11.829  -2.820 -28.1210  0.00  0.00     0.000 C
ATOM     56   O  BGC B   4      12.251  -3.569 -26.9800  0.00  0.00     0.000 O
ATOM     58  HD  BGC B   4      12.600  -2.808 -27.2010  0.00  0.00     0.000 HD
BRANCH 45 58
ATOM     58  O4  BGC B   5       7.533  -4.302 -27.5110  0.00  0.00     0.000 O
BRANCH 58 62
ATOM     59  C1  BGC B   5       6.183  -7.380 -29.9300  0.00  0.00     0.000 C
ATOM     60  C2  BGC B   5       7.263  -6.505 -30.5330  0.00  0.00     0.000 C
ATOM     61  C3  BGC B   5       7.964  -5.703 -29.4530  0.00  0.00     0.000 C
ATOM     62  C4  BGC B   5       6.936  -4.920 -28.6530  0.00  0.00     0.000 C
ATOM     63  C5  BGC B   5       5.828  -5.851 -28.1380  0.00  0.00     0.000 C
ATOM     64  O5  BGC B   5       5.252  -6.537 -29.2450  0.00  0.00     0.000 O
ATOM     65   O  BGC B   5       4.215  -4.164 -28.3570  0.00  0.00     0.000 O
ATOM     67  HD  BGC B   5       4.139  -3.303 -28.4060  0.00  0.00     0.000 HD
ATOM     67   O  BGC B   5       4.215  -4.164 -28.3570  0.00  0.00     0.000 O
ATOM     69  HD  BGC B   5       4.139  -3.303 -28.4060  0.00  0.00     0.000 HD
ENDBRANCH 58 62
ENDBRANCH 45 58
ENDBRANCH 44 48
ENDBRANCH 31 44
ENDBRANCH 30 34
ENDBRANCH 17 30
ENDBRANCH 16 20
ENDBRANCH 1 16
TORSDOF 8
ENDMDL
MODEL 25
REMARK VINA RESULT:      -6.1     23.409     26.069
ROOT
ATOM      1  C1  BGC B   1      -2.750   0.728 -26.4540  0.00  0.00     0.000 C
ATOM      2  C2  BGC B   1      -1.414   1.429 -26.6990  0.00  0.00     0.000 C
ATOM      3  C3  BGC B   1      -1.424   2.113 -28.0520  0.00  0.00     0.000 C
ATOM      4  C4  BGC B   1      -1.840   1.137 -29.1460  0.00  0.00     0.000 C
ATOM      5  C5  BGC B   1      -3.187   0.537 -28.7700  0.00  0.00     0.000 C
ATOM      6  O5  BGC B   1      -3.012  -0.166 -27.5270  0.00  0.00     0.000 O
ATOM      7   O  BGC B   1      -1.201   2.412 -25.6730  0.00  0.00     0.000 O
ATOM      9  HD  BGC B   1      -0.712   3.100 -25.8690  0.00  0.00     0.000 HD
ATOM      9   O  BGC B   1      -0.122   2.645 -28.3110  0.00  0.00     0.000 O
ATOM     11  HD  BGC B   1       0.367   3.332 -28.5080  0.00  0.00     0.000 HD
ATOM     11   O  BGC B   1      -1.944   1.821 -30.3760  0.00  0.00     0.000 O
ATOM     13  HD  BGC B   1      -1.455   2.508 -30.5720  0.00  0.00     0.000 HD
ATOM     13   C  BGC B   1      -3.764  -0.429 -29.7950  0.00  0.00     0.000 C
ATOM     14   O  BGC B   1      -2.866  -1.490 -30.1060  0.00  0.00     0.000 O
ATOM     16  HD  BGC B   1      -2.377  -0.803 -30.3030  0.00  0.00     0.000 HD
ENDROOT
BRANCH 1 16
ATOM     16  O4  BGC B   2      -2.559  -0.105 -25.3130  0.00  0.00     0.000 O
BRANCH 16 20
ATOM     17  C1  BGC B   2      -4.561  -1.604 -22.1060  0.00  0.00     0.000 C
ATOM     18  C2  BGC B   2      -4.859  -2.332 -23.4080  0.00  0.00     0.000 C
ATOM     19  C3  BGC B   2      -3.804  -1.937 -24.4380  0.00  0.00     0.000 C
ATOM     20  C4  BGC B   2      -3.731  -0.429 -24.5700  0.00  0.00     0.000 C
ATOM     21  C5  BGC B   2      -3.622   0.270 -23.2140  0.00  0.00     0.000 C
ATOM     22  O5  BGC B   2      -4.686  -0.195 -22.3740  0.00  0.00     0.000 O
ATOM     23   O  BGC B   2      -4.806  -3.754 -23.2020  0.00  0.00     0.000 O
ATOM     25  HD  BGC B   2      -4.262  -3.181 -23.5570  0.00  0.00     0.000 HD
ATOM     25   O  BGC B   2      -4.109  -2.527 -25.6960  0.00  0.00     0.000 O
ATOM     27  HD  BGC B   2      -3.565  -1.955 -26.0510  0.00  0.00     0.000 HD
ATOM     27   C  BGC B   2      -3.739   1.785 -23.3160  0.00  0.00     0.000 C
ATOM     28   O  BGC B   2      -4.934   2.216 -23.9470  0.00  0.00     0.000 O
ATOM     30  HD  BGC B   2      -4.390   2.788 -24.3020  0.00  0.00     0.000 HD
BRANCH 17 30
ATOM     30  O4  BGC B   3      -5.619  -1.906 -21.2160  0.00  0.00     0.000 O
BRANCH 30 34
ATOM     31  C1  BGC B   3      -6.141  -2.463 -17.1730  0.00  0.00     0.000 C
ATOM     32  C2  BGC B   3      -6.356  -1.027 -17.6490  0.00  0.00     0.000 C
ATOM     33  C3  BGC B   3      -6.530  -1.029 -19.1570  0.00  0.00     0.000 C
ATOM     34  C4  BGC B   3      -5.338  -1.711 -19.8260  0.00  0.00     0.000 C
ATOM     35  C5  BGC B   3      -5.093  -3.076 -19.2070  0.00  0.00     0.000 C
ATOM     36  O5  BGC B   3      -4.954  -2.938 -17.7890  0.00  0.00     0.000 O
ATOM     37   O  BGC B   3      -7.543  -0.502 -17.0580  0.00  0.00     0.000 O
ATOM     39  HD  BGC B   3      -7.331   0.279 -17.3650  0.00  0.00     0.000 HD
ATOM     39   O  BGC B   3      -6.652   0.315 -19.5980  0.00  0.00     0.000 O
ATOM     41  HD  BGC B   3      -6.439   1.096 -19.9050  0.00  0.00     0.000 HD
ATOM     41   C  BGC B   3      -3.863  -3.792 -19.7510  0.00  0.00     0.000 C
ATOM     42   O  BGC B   3      -2.715  -3.001 -19.5570  0.00  0.00     0.000 O
ATOM     44  HD  BGC B   3      -2.502  -2.220 -19.8640  0.00  0.00     0.000 HD
BRANCH 31 44
ATOM     44  O4  BGC B   4      -5.882  -2.410 -15.7940  0.00  0.00     0.000 O
BRANCH 44 48
ATOM     45  C1  BGC B   4      -6.430  -4.640 -12.3980  0.00  0.00     0.000 C
ATOM     46  C2  BGC B   4      -5.219  -5.035 -13.2320  0.00  0.00     0.000 C
ATOM     47  C3  BGC B   4      -4.898  -3.929 -14.2070  0.00  0.00     0.000 C
ATOM     48  C4  BGC B   4      -6.135  -3.578 -15.0400  0.00  0.00     0.000 C
ATOM     49  C5  BGC B   4      -7.335  -3.294 -14.1290  0.00  0.00     0.000 C
ATOM     50  O5  BGC B   4      -7.552  -4.408 -13.2510  0.00  0.00     0.000 O
ATOM     51   O  BGC B   4      -4.081  -5.253 -12.3770  0.00  0.00     0.000 O
ATOM     53  HD  BGC B   4      -3.877  -4.467 -12.6790  0.00  0.00     0.000 HD
ATOM     53   O  BGC B   4      -3.840  -4.368 -15.0720  0.00  0.00     0.000 O
ATOM     55  HD  BGC B   4      -3.636  -3.582 -15.3740  0.00  0.00     0.000 HD
ATOM     55   C  BGC B   4      -8.639  -3.050 -14.8670  0.00  0.00     0.000 C
ATOM     56   O  BGC B   4      -8.876  -4.174 -15.7170  0.00  0.00     0.000 O
ATOM     58  HD  BGC B   4      -8.672  -3.388 -16.0190  0.00  0.00     0.000 HD
BRANCH 45 58
ATOM     58  O4  BGC B   5      -6.823  -5.820 -11.6970  0.00  0.00     0.000 O
BRANCH 58 62
ATOM     59  C1  BGC B   5      -8.764  -6.917  -8.2080  0.00  0.00     0.000 C
ATOM     60  C2  BGC B   5      -9.179  -5.581  -8.7900  0.00  0.00     0.000 C
ATOM     61  C3  BGC B   5      -8.738  -5.470 -10.2370  0.00  0.00     0.000 C
ATOM     62  C4  BGC B   5      -7.243  -5.728 -10.3340  0.00  0.00     0.000 C
ATOM     63  C5  BGC B   5      -6.878  -7.058  -9.6570  0.00  0.00     0.000 C
ATOM     64  O5  BGC B   5      -7.341  -7.031  -8.3110  0.00  0.00     0.000 O
ATOM     65   O  BGC B   5      -4.810  -6.210  -8.9510  0.00  0.00     0.000 O
ATOM     67  HD  BGC B   5      -4.236  -5.586  -9.1320  0.00  0.00     0.000 HD
ATOM     67   O  BGC B   5      -4.810  -6.210  -8.9510  0.00  0.00     0.000 O
ATOM     69  HD  BGC B   5      -4.236  -5.586  -9.1320  0.00  0.00     0.000 HD
ENDBRANCH 58 62
ENDBRANCH 45 58
ENDBRANCH 44 48
ENDBRANCH 31 44
ENDBRANCH 30 34
ENDBRANCH 17 30
ENDBRANCH 16 20
ENDBRANCH 1 16
TORSDOF 8
ENDMDL
MODEL 26
REMARK VINA RESULT:      -6.0     12.099     14.046
ROOT
ATOM      1  C1  BGC B   1      16.461   5.344 -22.5070  0.00  0.00     0.000 C
ATOM      2  C2  BGC B   1      16.784   6.681 -23.1730  0.00  0.00     0.000 C
ATOM      3  C3  BGC B   1      17.985   7.320 -22.5030  0.00  0.00     0.000 C
ATOM      4  C4  BGC B   1      17.785   7.393 -20.9950  0.00  0.00     0.000 C
ATOM      5  C5  BGC B   1      17.490   5.993 -20.4790  0.00  0.00     0.000 C
ATOM      6  O5  BGC B   1      16.276   5.548 -21.1130  0.00  0.00     0.000 O
ATOM      7   O  BGC B   1      17.079   6.458 -24.5620  0.00  0.00     0.000 O
ATOM      9  HD  BGC B   1      17.609   7.019 -24.9560  0.00  0.00     0.000 HD
ATOM      9   O  BGC B   1      18.182   8.625 -23.0560  0.00  0.00     0.000 O
ATOM     11  HD  BGC B   1      18.712   9.186 -23.4490  0.00  0.00     0.000 HD
ATOM     11   O  BGC B   1      18.956   7.893 -20.3860  0.00  0.00     0.000 O
ATOM     13  HD  BGC B   1      19.485   8.454 -20.7790  0.00  0.00     0.000 HD
ATOM     13   C  BGC B   1      17.312   5.891 -18.9710  0.00  0.00     0.000 C
ATOM     14   O  BGC B   1      16.308   6.775 -18.4820  0.00  0.00     0.000 O
ATOM     16  HD  BGC B   1      16.837   7.336 -18.8760  0.00  0.00     0.000 HD
ENDROOT
BRANCH 1 16
ATOM     16  O4  BGC B   2      15.181   4.953 -22.9990  0.00  0.00     0.000 O
BRANCH 16 20
ATOM     17  C1  BGC B   2      13.045   1.661 -24.0660  0.00  0.00     0.000 C
ATOM     18  C2  BGC B   2      13.216   1.818 -22.5620  0.00  0.00     0.000 C
ATOM     19  C3  BGC B   2      13.696   3.239 -22.2740  0.00  0.00     0.000 C
ATOM     20  C4  BGC B   2      14.941   3.550 -23.0790  0.00  0.00     0.000 C
ATOM     21  C5  BGC B   2      14.783   3.196 -24.5580  0.00  0.00     0.000 C
ATOM     22  O5  BGC B   2      14.346   1.835 -24.6570  0.00  0.00     0.000 O
ATOM     23   O  BGC B   2      11.960   1.602 -21.8970  0.00  0.00     0.000 O
ATOM     25  HD  BGC B   2      12.414   2.311 -22.1000  0.00  0.00     0.000 HD
ATOM     25   O  BGC B   2      13.957   3.389 -20.8840  0.00  0.00     0.000 O
ATOM     27  HD  BGC B   2      14.411   4.099 -21.0870  0.00  0.00     0.000 HD
ATOM     27   C  BGC B   2      16.083   3.325 -25.3420  0.00  0.00     0.000 C
ATOM     28   O  BGC B   2      17.142   2.548 -24.8070  0.00  0.00     0.000 O
ATOM     30  HD  BGC B   2      17.595   3.258 -25.0100  0.00  0.00     0.000 HD
BRANCH 17 30
ATOM     30  O4  BGC B   3      12.711   0.306 -24.3000  0.00  0.00     0.000 O
BRANCH 30 34
ATOM     31  C1  BGC B   3      10.670  -2.020 -27.0110  0.00  0.00     0.000 C
ATOM     32  C2  BGC B   3      11.889  -1.299 -27.5850  0.00  0.00     0.000 C
ATOM     33  C3  BGC B   3      12.760  -0.819 -26.4380  0.00  0.00     0.000 C
ATOM     34  C4  BGC B   3      11.944   0.050 -25.4810  0.00  0.00     0.000 C
ATOM     35  C5  BGC B   3      10.676  -0.673 -25.0630  0.00  0.00     0.000 C
ATOM     36  O5  BGC B   3       9.952  -1.078 -26.2300  0.00  0.00     0.000 O
ATOM     37   O  BGC B   3      12.648  -2.207 -28.3800  0.00  0.00     0.000 O
ATOM     39  HD  BGC B   3      13.128  -1.540 -28.6540  0.00  0.00     0.000 HD
ATOM     39   O  BGC B   3      13.849  -0.084 -26.9770  0.00  0.00     0.000 O
ATOM     41  HD  BGC B   3      14.329   0.583 -27.2510  0.00  0.00     0.000 HD
ATOM     41   C  BGC B   3       9.753   0.157 -24.1790  0.00  0.00     0.000 C
ATOM     42   O  BGC B   3       9.393   1.349 -24.8360  0.00  0.00     0.000 O
ATOM     44  HD  BGC B   3       9.873   2.016 -25.1100  0.00  0.00     0.000 HD
BRANCH 31 44
ATOM     44  O4  BGC B   4       9.840  -2.358 -28.0930  0.00  0.00     0.000 O
BRANCH 44 48
ATOM     45  C1  BGC B   4       7.219  -5.266 -29.3080  0.00  0.00     0.000 C
ATOM     46  C2  BGC B   4       6.711  -4.382 -28.1770  0.00  0.00     0.000 C
ATOM     47  C3  BGC B   4       7.563  -3.140 -28.0890  0.00  0.00     0.000 C
ATOM     48  C4  BGC B   4       9.042  -3.517 -27.9630  0.00  0.00     0.000 C
ATOM     49  C5  BGC B   4       9.448  -4.488 -29.0780  0.00  0.00     0.000 C
ATOM     50  O5  BGC B   4       8.579  -5.630 -29.0670  0.00  0.00     0.000 O
ATOM     51   O  BGC B   4       5.345  -4.000 -28.4250  0.00  0.00     0.000 O
ATOM     53  HD  BGC B   4       5.738  -3.263 -28.6560  0.00  0.00     0.000 HD
ATOM     53   O  BGC B   4       7.157  -2.382 -26.9400  0.00  0.00     0.000 O
ATOM     55  HD  BGC B   4       7.550  -1.646 -27.1710  0.00  0.00     0.000 HD
ATOM     55   C  BGC B   4      10.869  -5.011 -28.9690  0.00  0.00     0.000 C
ATOM     56   O  BGC B   4      11.019  -5.600 -27.6760  0.00  0.00     0.000 O
ATOM     58  HD  BGC B   4      11.412  -4.864 -27.9080  0.00  0.00     0.000 HD
BRANCH 45 58
ATOM     58  O4  BGC B   5       6.542  -6.515 -29.1620  0.00  0.00     0.000 O
BRANCH 58 62
ATOM     59  C1  BGC B   5       5.532  -9.739 -31.5560  0.00  0.00     0.000 C
ATOM     60  C2  BGC B   5       6.607  -8.827 -32.1130  0.00  0.00     0.000 C
ATOM     61  C3  BGC B   5       7.186  -7.954 -31.0160  0.00  0.00     0.000 C
ATOM     62  C4  BGC B   5       6.063  -7.201 -30.3200  0.00  0.00     0.000 C
ATOM     63  C5  BGC B   5       4.969  -8.173 -29.8510  0.00  0.00     0.000 C
ATOM     64  O5  BGC B   5       4.511  -8.925 -30.9700  0.00  0.00     0.000 O
ATOM     65   O  BGC B   5       3.292  -6.583 -30.2460  0.00  0.00     0.000 O
ATOM     67  HD  BGC B   5       3.176  -5.729 -30.3320  0.00  0.00     0.000 HD
ATOM     67   O  BGC B   5       3.292  -6.583 -30.2460  0.00  0.00     0.000 O
ATOM     69  HD  BGC B   5       3.176  -5.729 -30.3320  0.00  0.00     0.000 HD
ENDBRANCH 58 62
ENDBRANCH 45 58
ENDBRANCH 44 48
ENDBRANCH 31 44
ENDBRANCH 30 34
ENDBRANCH 17 30
ENDBRANCH 16 20
ENDBRANCH 1 16
TORSDOF 8
ENDMDL
MODEL 27
REMARK VINA RESULT:      -6.0     25.223     27.677
ROOT
ATOM      1  C1  BGC B   1       0.033 -17.510 -26.3520  0.00  0.00     0.000 C
ATOM      2  C2  BGC B   1      -0.695 -17.242 -25.0360  0.00  0.00     0.000 C
ATOM      3  C3  BGC B   1      -1.921 -16.383 -25.2840  0.00  0.00     0.000 C
ATOM      4  C4  BGC B   1      -1.552 -15.133 -26.0730  0.00  0.00     0.000 C
ATOM      5  C5  BGC B   1      -0.853 -15.561 -27.3550  0.00  0.00     0.000 C
ATOM      6  O5  BGC B   1       0.340 -16.273 -26.9780  0.00  0.00     0.000 O
ATOM      7   O  BGC B   1      -1.104 -18.492 -24.4570  0.00  0.00     0.000 O
ATOM      9  HD  BGC B   1      -1.803 -18.490 -23.9460  0.00  0.00     0.000 HD
ATOM      9   O  BGC B   1      -2.506 -16.037 -24.0250  0.00  0.00     0.000 O
ATOM     11  HD  BGC B   1      -3.205 -16.035 -23.5140  0.00  0.00     0.000 HD
ATOM     11   O  BGC B   1      -2.721 -14.406 -26.3820  0.00  0.00     0.000 O
ATOM     13  HD  BGC B   1      -3.420 -14.404 -25.8710  0.00  0.00     0.000 HD
ATOM     13   C  BGC B   1      -0.462 -14.419 -28.2820  0.00  0.00     0.000 C
ATOM     14   O  BGC B   1       0.345 -13.444 -27.6300  0.00  0.00     0.000 O
ATOM     16  HD  BGC B   1      -0.354 -13.441 -27.1180  0.00  0.00     0.000 HD
ENDROOT
BRANCH 1 16
ATOM     16  O4  BGC B   2       1.295 -18.073 -26.0000  0.00  0.00     0.000 O
BRANCH 16 20
ATOM     17  C1  BGC B   2       4.000 -20.866 -27.1910  0.00  0.00     0.000 C
ATOM     18  C2  BGC B   2       3.740 -19.786 -28.2300  0.00  0.00     0.000 C
ATOM     19  C3  BGC B   2       3.015 -18.625 -27.5510  0.00  0.00     0.000 C
ATOM     20  C4  BGC B   2       1.772 -19.120 -26.8410  0.00  0.00     0.000 C
ATOM     21  C5  BGC B   2       2.052 -20.331 -25.9510  0.00  0.00     0.000 C
ATOM     22  O5  BGC B   2       2.716 -21.330 -26.7350  0.00  0.00     0.000 O
ATOM     23   O  BGC B   2       4.984 -19.311 -28.7710  0.00  0.00     0.000 O
ATOM     25  HD  BGC B   2       4.427 -18.993 -28.1890  0.00  0.00     0.000 HD
ATOM     25   O  BGC B   2       2.672 -17.638 -28.5170  0.00  0.00     0.000 O
ATOM     27  HD  BGC B   2       2.114 -17.321 -27.9350  0.00  0.00     0.000 HD
ATOM     27   C  BGC B   2       0.785 -20.955 -25.3810  0.00  0.00     0.000 C
ATOM     28   O  BGC B   2      -0.151 -21.338 -26.3760  0.00  0.00     0.000 O
ATOM     30  HD  BGC B   2      -0.708 -21.021 -25.7940  0.00  0.00     0.000 HD
BRANCH 17 30
ATOM     30  O4  BGC B   3       4.568 -21.966 -27.8770  0.00  0.00     0.000 O
BRANCH 30 34
ATOM     31  C1  BGC B   3       7.147 -25.101 -27.2110  0.00  0.00     0.000 C
ATOM     32  C2  BGC B   3       5.787 -25.242 -26.5270  0.00  0.00     0.000 C
ATOM     33  C3  BGC B   3       4.817 -24.259 -27.1570  0.00  0.00     0.000 C
ATOM     34  C4  BGC B   3       5.381 -22.840 -27.0870  0.00  0.00     0.000 C
ATOM     35  C5  BGC B   3       6.789 -22.803 -27.6530  0.00  0.00     0.000 C
ATOM     36  O5  BGC B   3       7.598 -23.775 -26.9830  0.00  0.00     0.000 O
ATOM     37   O  BGC B   3       5.288 -26.562 -26.7280  0.00  0.00     0.000 O
ATOM     39  HD  BGC B   3       4.655 -26.391 -26.1620  0.00  0.00     0.000 HD
ATOM     39   O  BGC B   3       3.580 -24.341 -26.4650  0.00  0.00     0.000 O
ATOM     41  HD  BGC B   3       2.948 -24.170 -25.8990  0.00  0.00     0.000 HD
ATOM     41   C  BGC B   3       7.467 -21.441 -27.5400  0.00  0.00     0.000 C
ATOM     42   O  BGC B   3       7.515 -21.034 -26.1930  0.00  0.00     0.000 O
ATOM     44  HD  BGC B   3       6.883 -20.863 -25.6260  0.00  0.00     0.000 HD
BRANCH 31 44
ATOM     44  O4  BGC B   4       8.041 -25.949 -26.5350  0.00  0.00     0.000 O
BRANCH 44 48
ATOM     45  C1  BGC B   4      11.249 -28.398 -27.2500  0.00  0.00     0.000 C
ATOM     46  C2  BGC B   4      11.559 -26.909 -27.3060  0.00  0.00     0.000 C
ATOM     47  C3  BGC B   4      10.438 -26.137 -26.6550  0.00  0.00     0.000 C
ATOM     48  C4  BGC B   4       9.095 -26.514 -27.2880  0.00  0.00     0.000 C
ATOM     49  C5  BGC B   4       8.905 -28.036 -27.2850  0.00  0.00     0.000 C
ATOM     50  O5  BGC B   4      10.022 -28.665 -27.9310  0.00  0.00     0.000 O
ATOM     51   O  BGC B   4      12.787 -26.634 -26.6060  0.00  0.00     0.000 O
ATOM     53  HD  BGC B   4      12.224 -26.367 -26.0050  0.00  0.00     0.000 HD
ATOM     53   O  BGC B   4      10.679 -24.734 -26.8300  0.00  0.00     0.000 O
ATOM     55  HD  BGC B   4      10.116 -24.467 -26.2290  0.00  0.00     0.000 HD
ATOM     55   C  BGC B   4       7.653 -28.513 -27.9980  0.00  0.00     0.000 C
ATOM     56   O  BGC B   4       7.681 -27.988 -29.3260  0.00  0.00     0.000 O
ATOM     58  HD  BGC B   4       7.118 -27.721 -28.7250  0.00  0.00     0.000 HD
BRANCH 45 58
ATOM     58  O4  BGC B   5      12.208 -29.029 -28.0990  0.00  0.00     0.000 O
BRANCH 58 62
ATOM     59  C1  BGC B   5      13.746 -32.743 -29.0920  0.00  0.00     0.000 C
ATOM     60  C2  BGC B   5      12.314 -32.497 -29.5210  0.00  0.00     0.000 C
ATOM     61  C3  BGC B   5      11.996 -31.014 -29.4910  0.00  0.00     0.000 C
ATOM     62  C4  BGC B   5      12.314 -30.454 -28.1140  0.00  0.00     0.000 C
ATOM     63  C5  BGC B   5      13.752 -30.806 -27.7060  0.00  0.00     0.000 C
ATOM     64  O5  BGC B   5      13.917 -32.218 -27.7720  0.00  0.00     0.000 O
ATOM     65   O  BGC B   5      13.139 -30.993 -25.4500  0.00  0.00     0.000 O
ATOM     67  HD  BGC B   5      12.526 -30.742 -24.8930  0.00  0.00     0.000 HD
ATOM     67   O  BGC B   5      13.139 -30.993 -25.4500  0.00  0.00     0.000 O
ATOM     69  HD  BGC B   5      12.526 -30.742 -24.8930  0.00  0.00     0.000 HD
ENDBRANCH 58 62
ENDBRANCH 45 58
ENDBRANCH 44 48
ENDBRANCH 31 44
ENDBRANCH 30 34
ENDBRANCH 17 30
ENDBRANCH 16 20
ENDBRANCH 1 16
TORSDOF 8
ENDMDL
MODEL 28
REMARK VINA RESULT:      -6.0     14.612     20.018
ROOT
ATOM      1  C1  BGC B   1      17.303 -12.698 -25.8710  0.00  0.00     0.000 C
ATOM      2  C2  BGC B   1      16.117 -11.868 -26.3590  0.00  0.00     0.000 C
ATOM      3  C3  BGC B   1      16.567 -10.900 -27.4360  0.00  0.00     0.000 C
ATOM      4  C4  BGC B   1      17.762 -10.082 -26.9610  0.00  0.00     0.000 C
ATOM      5  C5  BGC B   1      18.859 -11.042 -26.5260  0.00  0.00     0.000 C
ATOM      6  O5  BGC B   1      18.338 -11.826 -25.4370  0.00  0.00     0.000 O
ATOM      7   O  BGC B   1      15.116 -12.746 -26.9000  0.00  0.00     0.000 O
ATOM      9  HD  BGC B   1      14.593 -12.430 -27.5140  0.00  0.00     0.000 HD
ATOM      9   O  BGC B   1      15.470 -10.047 -27.7790  0.00  0.00     0.000 O
ATOM     11  HD  BGC B   1      14.947  -9.731 -28.3920  0.00  0.00     0.000 HD
ATOM     11   O  BGC B   1      18.227  -9.267 -28.0150  0.00  0.00     0.000 O
ATOM     13  HD  BGC B   1      17.703  -8.951 -28.6280  0.00  0.00     0.000 HD
ATOM     13   C  BGC B   1      20.147 -10.374 -26.0670  0.00  0.00     0.000 C
ATOM     14   O  BGC B   1      19.927  -9.433 -25.0200  0.00  0.00     0.000 O
ATOM     16  HD  BGC B   1      19.404  -9.117 -25.6340  0.00  0.00     0.000 HD
ENDROOT
BRANCH 1 16
ATOM     16  O4  BGC B   2      16.862 -13.368 -24.6920  0.00  0.00     0.000 O
BRANCH 16 20
ATOM     17  C1  BGC B   2      17.665 -17.024 -23.1010  0.00  0.00     0.000 C
ATOM     18  C2  BGC B   2      18.072 -15.864 -22.2040  0.00  0.00     0.000 C
ATOM     19  C3  BGC B   2      17.404 -14.592 -22.7230  0.00  0.00     0.000 C
ATOM     20  C4  BGC B   2      17.722 -14.388 -24.1900  0.00  0.00     0.000 C
ATOM     21  C5  BGC B   2      17.475 -15.647 -25.0210  0.00  0.00     0.000 C
ATOM     22  O5  BGC B   2      18.178 -16.739 -24.4160  0.00  0.00     0.000 O
ATOM     23   O  BGC B   2      17.638 -16.106 -20.8560  0.00  0.00     0.000 O
ATOM     25  HD  BGC B   2      17.341 -15.606 -21.4970  0.00  0.00     0.000 HD
ATOM     25   O  BGC B   2      17.841 -13.472 -21.9630  0.00  0.00     0.000 O
ATOM     27  HD  BGC B   2      17.544 -12.972 -22.6040  0.00  0.00     0.000 HD
ATOM     27   C  BGC B   2      17.967 -15.517 -26.4570  0.00  0.00     0.000 C
ATOM     28   O  BGC B   2      19.341 -15.181 -26.5530  0.00  0.00     0.000 O
ATOM     30  HD  BGC B   2      19.044 -14.681 -27.1940  0.00  0.00     0.000 HD
BRANCH 17 30
ATOM     30  O4  BGC B   3      18.389 -18.156 -22.6600  0.00  0.00     0.000 O
BRANCH 30 34
ATOM     31  C1  BGC B   3      17.999 -22.247 -22.4510  0.00  0.00     0.000 C
ATOM     32  C2  BGC B   3      17.682 -21.648 -23.8210  0.00  0.00     0.000 C
ATOM     33  C3  BGC B   3      18.237 -20.236 -23.8800  0.00  0.00     0.000 C
ATOM     34  C4  BGC B   3      17.690 -19.404 -22.7210  0.00  0.00     0.000 C
ATOM     35  C5  BGC B   3      17.912 -20.125 -21.4020  0.00  0.00     0.000 C
ATOM     36  O5  BGC B   3      17.352 -21.440 -21.4790  0.00  0.00     0.000 O
ATOM     37   O  BGC B   3      18.313 -22.425 -24.8360  0.00  0.00     0.000 O
ATOM     39  HD  BGC B   3      17.872 -21.976 -25.4310  0.00  0.00     0.000 HD
ATOM     39   O  BGC B   3      17.871 -19.661 -25.1260  0.00  0.00     0.000 O
ATOM     41  HD  BGC B   3      17.429 -19.212 -25.7200  0.00  0.00     0.000 HD
ATOM     41   C  BGC B   3      17.314 -19.408 -20.1970  0.00  0.00     0.000 C
ATOM     42   O  BGC B   3      15.930 -19.223 -20.3780  0.00  0.00     0.000 O
ATOM     44  HD  BGC B   3      15.489 -18.774 -20.9730  0.00  0.00     0.000 HD
BRANCH 31 44
ATOM     44  O4  BGC B   4      17.384 -23.508 -22.3960  0.00  0.00     0.000 O
BRANCH 44 48
ATOM     45  C1  BGC B   4      18.064 -27.291 -20.9710  0.00  0.00     0.000 C
ATOM     46  C2  BGC B   4      17.565 -26.298 -19.9310  0.00  0.00     0.000 C
ATOM     47  C3  BGC B   4      16.986 -25.090 -20.6260  0.00  0.00     0.000 C
ATOM     48  C4  BGC B   4      18.006 -24.500 -21.6050  0.00  0.00     0.000 C
ATOM     49  C5  BGC B   4      18.535 -25.585 -22.5510  0.00  0.00     0.000 C
ATOM     50  O5  BGC B   4      19.064 -26.678 -21.7870  0.00  0.00     0.000 O
ATOM     51   O  BGC B   4      16.544 -26.907 -19.1180  0.00  0.00     0.000 O
ATOM     53  HD  BGC B   4      16.040 -26.428 -19.6340  0.00  0.00     0.000 HD
ATOM     53   O  BGC B   4      16.640 -24.110 -19.6370  0.00  0.00     0.000 O
ATOM     55  HD  BGC B   4      16.136 -23.631 -20.1540  0.00  0.00     0.000 HD
ATOM     55   C  BGC B   4      19.639 -25.120 -23.4840  0.00  0.00     0.000 C
ATOM     56   O  BGC B   4      20.682 -24.565 -22.6810  0.00  0.00     0.000 O
ATOM     58  HD  BGC B   4      20.178 -24.086 -23.1980  0.00  0.00     0.000 HD
BRANCH 45 58
ATOM     58  O4  BGC B   5      18.818 -28.266 -20.2510  0.00  0.00     0.000 O
BRANCH 58 62
ATOM     59  C1  BGC B   5      20.045 -32.031 -21.4610  0.00  0.00     0.000 C
ATOM     60  C2  BGC B   5      19.019 -31.363 -22.3540  0.00  0.00     0.000 C
ATOM     61  C3  BGC B   5      18.955 -29.875 -22.0710  0.00  0.00     0.000 C
ATOM     62  C4  BGC B   5      18.698 -29.649 -20.5900  0.00  0.00     0.000 C
ATOM     63  C5  BGC B   5      19.722 -30.416 -19.7400  0.00  0.00     0.000 C
ATOM     64  O5  BGC B   5      19.678 -31.793 -20.0980  0.00  0.00     0.000 O
ATOM     65   O  BGC B   5      18.134 -30.812 -18.0620  0.00  0.00     0.000 O
ATOM     67  HD  BGC B   5      17.382 -30.510 -17.7570  0.00  0.00     0.000 HD
ATOM     67   O  BGC B   5      18.134 -30.812 -18.0620  0.00  0.00     0.000 O
ATOM     69  HD  BGC B   5      17.382 -30.510 -17.7570  0.00  0.00     0.000 HD
ENDBRANCH 58 62
ENDBRANCH 45 58
ENDBRANCH 44 48
ENDBRANCH 31 44
ENDBRANCH 30 34
ENDBRANCH 17 30
ENDBRANCH 16 20
ENDBRANCH 1 16
TORSDOF 8
ENDMDL
MODEL 29
REMARK VINA RESULT:      -6.0     19.090     21.178
ROOT
ATOM      1  C1  BGC B   1      11.699  10.042  -2.1590  0.00  0.00     0.000 C
ATOM      2  C2  BGC B   1      10.394  10.748  -2.5210  0.00  0.00     0.000 C
ATOM      3  C3  BGC B   1      10.572  11.552  -3.7940  0.00  0.00     0.000 C
ATOM      4  C4  BGC B   1      11.783  12.471  -3.6860  0.00  0.00     0.000 C
ATOM      5  C5  BGC B   1      12.999  11.625  -3.3390  0.00  0.00     0.000 C
ATOM      6  O5  BGC B   1      12.742  11.002  -2.0670  0.00  0.00     0.000 O
ATOM      7   O  BGC B   1       9.364   9.765  -2.7220  0.00  0.00     0.000 O
ATOM      9  HD  BGC B   1       8.716   9.965  -3.2610  0.00  0.00     0.000 HD
ATOM      9   O  BGC B   1       9.380  12.306  -4.0360  0.00  0.00     0.000 O
ATOM     11  HD  BGC B   1       8.732  12.506  -4.5740  0.00  0.00     0.000 HD
ATOM     11   O  BGC B   1      11.990  13.128  -4.9170  0.00  0.00     0.000 O
ATOM     13  HD  BGC B   1      11.342  13.328  -5.4560  0.00  0.00     0.000 HD
ATOM     13   C  BGC B   1      14.307  12.398  -3.2430  0.00  0.00     0.000 C
ATOM     14   O  BGC B   1      14.231  13.481  -2.3220  0.00  0.00     0.000 O
ATOM     16  HD  BGC B   1      13.583  13.682  -2.8600  0.00  0.00     0.000 HD
ENDROOT
BRANCH 1 16
ATOM     16  O4  BGC B   2      11.530   9.548  -0.8310  0.00  0.00     0.000 O
BRANCH 16 20
ATOM     17  C1  BGC B   2      12.401   6.354   1.5290  0.00  0.00     0.000 C
ATOM     18  C2  BGC B   2      13.620   7.180   1.1450  0.00  0.00     0.000 C
ATOM     19  C3  BGC B   2      13.141   8.519   0.5880  0.00  0.00     0.000 C
ATOM     20  C4  BGC B   2      12.155   8.300  -0.5410  0.00  0.00     0.000 C
ATOM     21  C5  BGC B   2      11.050   7.311  -0.1670  0.00  0.00     0.000 C
ATOM     22  O5  BGC B   2      11.661   6.109   0.3190  0.00  0.00     0.000 O
ATOM     23   O  BGC B   2      14.440   7.419   2.3010  0.00  0.00     0.000 O
ATOM     25  HD  BGC B   2      13.875   7.905   1.8600  0.00  0.00     0.000 HD
ATOM     25   O  BGC B   2      14.254   9.279   0.1300  0.00  0.00     0.000 O
ATOM     27  HD  BGC B   2      13.689   9.765  -0.3110  0.00  0.00     0.000 HD
ATOM     27   C  BGC B   2      10.163   6.937  -1.3470  0.00  0.00     0.000 C
ATOM     28   O  BGC B   2      10.885   6.407  -2.4480  0.00  0.00     0.000 O
ATOM     30  HD  BGC B   2      10.321   6.893  -2.8890  0.00  0.00     0.000 HD
BRANCH 17 30
ATOM     30  O4  BGC B   3      12.879   5.084   1.9330  0.00  0.00     0.000 O
BRANCH 30 34
ATOM     31  C1  BGC B   3      11.838   2.005   4.4560  0.00  0.00     0.000 C
ATOM     32  C2  BGC B   3      11.049   2.049   3.1480  0.00  0.00     0.000 C
ATOM     33  C3  BGC B   3      11.777   2.947   2.1640  0.00  0.00     0.000 C
ATOM     34  C4  BGC B   3      12.003   4.329   2.7750  0.00  0.00     0.000 C
ATOM     35  C5  BGC B   3      12.662   4.203   4.1370  0.00  0.00     0.000 C
ATOM     36  O5  BGC B   3      11.886   3.329   4.9640  0.00  0.00     0.000 O
ATOM     37   O  BGC B   3      10.974   0.737   2.5940  0.00  0.00     0.000 O
ATOM     39  HD  BGC B   3      10.405   1.034   2.0120  0.00  0.00     0.000 HD
ATOM     39   O  BGC B   3      10.998   3.043   0.9810  0.00  0.00     0.000 O
ATOM     41  HD  BGC B   3      10.429   3.339   0.3990  0.00  0.00     0.000 HD
ATOM     41   C  BGC B   3      12.843   5.531   4.8640  0.00  0.00     0.000 C
ATOM     42   O  BGC B   3      11.598   6.168   5.0270  0.00  0.00     0.000 O
ATOM     44  HD  BGC B   3      11.029   6.465   4.4450  0.00  0.00     0.000 HD
BRANCH 31 44
ATOM     44  O4  BGC B   4      11.085   1.253   5.3710  0.00  0.00     0.000 O
BRANCH 44 48
ATOM     45  C1  BGC B   4      12.328  -2.098   7.3790  0.00  0.00     0.000 C
ATOM     46  C2  BGC B   4      11.527  -1.113   8.2180  0.00  0.00     0.000 C
ATOM     47  C3  BGC B   4      10.805  -0.148   7.3090  0.00  0.00     0.000 C
ATOM     48  C4  BGC B   4      11.795   0.518   6.3480  0.00  0.00     0.000 C
ATOM     49  C5  BGC B   4      12.632  -0.539   5.6180  0.00  0.00     0.000 C
ATOM     50  O5  BGC B   4      13.275  -1.394   6.5750  0.00  0.00     0.000 O
ATOM     51   O  BGC B   4      10.559  -1.818   9.0180  0.00  0.00     0.000 O
ATOM     53  HD  BGC B   4      10.034  -1.523   8.3960  0.00  0.00     0.000 HD
ATOM     53   O  BGC B   4      10.162   0.851   8.1120  0.00  0.00     0.000 O
ATOM     55  HD  BGC B   4       9.637   1.146   7.4900  0.00  0.00     0.000 HD
ATOM     55   C  BGC B   4      13.723   0.030   4.7280  0.00  0.00     0.000 C
ATOM     56   O  BGC B   4      14.537   0.887   5.5310  0.00  0.00     0.000 O
ATOM     58  HD  BGC B   4      14.012   1.182   4.9080  0.00  0.00     0.000 HD
BRANCH 45 58
ATOM     58  O4  BGC B   5      13.171  -2.797   8.2950  0.00  0.00     0.000 O
BRANCH 58 62
ATOM     59  C1  BGC B   5      14.743  -6.627   8.3240  0.00  0.00     0.000 C
ATOM     60  C2  BGC B   5      15.761  -5.506   8.3910  0.00  0.00     0.000 C
ATOM     61  C3  BGC B   5      15.093  -4.204   8.7900  0.00  0.00     0.000 C
ATOM     62  C4  BGC B   5      13.941  -3.912   7.8420  0.00  0.00     0.000 C
ATOM     63  C5  BGC B   5      12.991  -5.116   7.7590  0.00  0.00     0.000 C
ATOM     64  O5  BGC B   5      13.737  -6.265   7.3730  0.00  0.00     0.000 O
ATOM     65   O  BGC B   5      12.522  -4.676   5.5040  0.00  0.00     0.000 O
ATOM     67  HD  BGC B   5      12.545  -4.036   4.9200  0.00  0.00     0.000 HD
ATOM     67   O  BGC B   5      12.522  -4.676   5.5040  0.00  0.00     0.000 O
ATOM     69  HD  BGC B   5      12.545  -4.036   4.9200  0.00  0.00     0.000 HD
ENDBRANCH 58 62
ENDBRANCH 45 58
ENDBRANCH 44 48
ENDBRANCH 31 44
ENDBRANCH 30 34
ENDBRANCH 17 30
ENDBRANCH 16 20
ENDBRANCH 1 16
TORSDOF 8
ENDMDL
MODEL 30
REMARK VINA RESULT:      -6.0      3.739     15.679
ROOT
ATOM      1  C1  BGC B   1      21.190 -15.348 -21.0830  0.00  0.00     0.000 C
ATOM      2  C2  BGC B   1      20.958 -16.703 -20.4160  0.00  0.00     0.000 C
ATOM      3  C3  BGC B   1      21.346 -17.823 -21.3620  0.00  0.00     0.000 C
ATOM      4  C4  BGC B   1      20.659 -17.652 -22.7110  0.00  0.00     0.000 C
ATOM      5  C5  BGC B   1      20.995 -16.270 -23.2520  0.00  0.00     0.000 C
ATOM      6  O5  BGC B   1      20.483 -15.305 -22.3150  0.00  0.00     0.000 O
ATOM      7   O  BGC B   1      21.760 -16.789 -19.2270  0.00  0.00     0.000 O
ATOM      9  HD  BGC B   1      22.010 -17.576 -18.9660  0.00  0.00     0.000 HD
ATOM      9   O  BGC B   1      20.995 -19.075 -20.7660  0.00  0.00     0.000 O
ATOM     11  HD  BGC B   1      21.244 -19.862 -20.5050  0.00  0.00     0.000 HD
ATOM     11   O  BGC B   1      21.117 -18.643 -23.6050  0.00  0.00     0.000 O
ATOM     13  HD  BGC B   1      21.366 -19.430 -23.3440  0.00  0.00     0.000 HD
ATOM     13   C  BGC B   1      20.417 -15.964 -24.6260  0.00  0.00     0.000 C
ATOM     14   O  BGC B   1      19.004 -16.135 -24.6710  0.00  0.00     0.000 O
ATOM     16  HD  BGC B   1      19.254 -16.922 -24.4090  0.00  0.00     0.000 HD
ENDROOT
BRANCH 1 16
ATOM     16  O4  BGC B   2      20.551 -14.381 -20.2530  0.00  0.00     0.000 O
BRANCH 16 20
ATOM     17  C1  BGC B   2      20.947 -10.571 -18.8880  0.00  0.00     0.000 C
ATOM     18  C2  BGC B   2      20.918 -10.676 -20.4050  0.00  0.00     0.000 C
ATOM     19  C3  BGC B   2      20.408 -12.064 -20.7850  0.00  0.00     0.000 C
ATOM     20  C4  BGC B   2      21.230 -13.137 -20.1010  0.00  0.00     0.000 C
ATOM     21  C5  BGC B   2      21.389 -12.882 -18.6020  0.00  0.00     0.000 C
ATOM     22  O5  BGC B   2      21.889 -11.552 -18.4160  0.00  0.00     0.000 O
ATOM     23   O  BGC B   2      20.035  -9.684 -20.9530  0.00  0.00     0.000 O
ATOM     25  HD  BGC B   2      19.963 -10.536 -20.8150  0.00  0.00     0.000 HD
ATOM     25   O  BGC B   2      20.459 -12.230 -22.1970  0.00  0.00     0.000 O
ATOM     27  HD  BGC B   2      20.387 -13.082 -22.0600  0.00  0.00     0.000 HD
ATOM     27   C  BGC B   2      22.366 -13.843 -17.9360  0.00  0.00     0.000 C
ATOM     28   O  BGC B   2      23.654 -13.836 -18.5300  0.00  0.00     0.000 O
ATOM     30  HD  BGC B   2      23.582 -14.688 -18.3930  0.00  0.00     0.000 HD
BRANCH 17 30
ATOM     30  O4  BGC B   3      21.529  -9.319 -18.5760  0.00  0.00     0.000 O
BRANCH 30 34
ATOM     31  C1  BGC B   3      21.178  -6.281 -15.8240  0.00  0.00     0.000 C
ATOM     32  C2  BGC B   3      21.775  -7.574 -15.2690  0.00  0.00     0.000 C
ATOM     33  C3  BGC B   3      22.216  -8.449 -16.4290  0.00  0.00     0.000 C
ATOM     34  C4  BGC B   3      21.048  -8.689 -17.3840  0.00  0.00     0.000 C
ATOM     35  C5  BGC B   3      20.412  -7.368 -17.7830  0.00  0.00     0.000 C
ATOM     36  O5  BGC B   3      20.050  -6.639 -16.6060  0.00  0.00     0.000 O
ATOM     37   O  BGC B   3      22.918  -7.268 -14.4740  0.00  0.00     0.000 O
ATOM     39  HD  BGC B   3      22.935  -8.093 -14.2100  0.00  0.00     0.000 HD
ATOM     39   O  BGC B   3      22.697  -9.679 -15.9070  0.00  0.00     0.000 O
ATOM     41  HD  BGC B   3      22.714 -10.504 -15.6440  0.00  0.00     0.000 HD
ATOM     41   C  BGC B   3      19.178  -7.517 -18.6660  0.00  0.00     0.000 C
ATOM     42   O  BGC B   3      18.207  -8.302 -18.0150  0.00  0.00     0.000 O
ATOM     44  HD  BGC B   3      18.225  -9.127 -17.7520  0.00  0.00     0.000 HD
BRANCH 31 44
ATOM     44  O4  BGC B   4      20.690  -5.546 -14.7310  0.00  0.00     0.000 O
BRANCH 44 48
ATOM     45  C1  BGC B   4      18.795  -2.015 -13.8660  0.00  0.00     0.000 C
ATOM     46  C2  BGC B   4      17.911  -3.071 -14.5160  0.00  0.00     0.000 C
ATOM     47  C3  BGC B   4      18.586  -4.418 -14.4230  0.00  0.00     0.000 C
ATOM     48  C4  BGC B   4      19.998  -4.346 -15.0120  0.00  0.00     0.000 C
ATOM     49  C5  BGC B   4      20.789  -3.195 -14.3790  0.00  0.00     0.000 C
ATOM     50  O5  BGC B   4      20.060  -1.967 -14.5280  0.00  0.00     0.000 O
ATOM     51   O  BGC B   4      16.641  -3.135 -13.8400  0.00  0.00     0.000 O
ATOM     53  HD  BGC B   4      17.014  -3.837 -13.4970  0.00  0.00     0.000 HD
ATOM     53   O  BGC B   4      17.806  -5.376 -15.1520  0.00  0.00     0.000 O
ATOM     55  HD  BGC B   4      18.179  -6.079 -14.8090  0.00  0.00     0.000 HD
ATOM     55   C  BGC B   4      22.164  -2.971 -14.9820  0.00  0.00     0.000 C
ATOM     56   O  BGC B   4      21.997  -2.786 -16.3890  0.00  0.00     0.000 O
ATOM     58  HD  BGC B   4      22.370  -3.488 -16.0460  0.00  0.00     0.000 HD
BRANCH 45 58
ATOM     58  O4  BGC B   5      18.222  -0.756 -14.2180  0.00  0.00     0.000 O
BRANCH 58 62
ATOM     59  C1  BGC B   5      18.727   3.294 -13.5170  0.00  0.00     0.000 C
ATOM     60  C2  BGC B   5      19.540   2.726 -14.6630  0.00  0.00     0.000 C
ATOM     61  C3  BGC B   5      18.986   1.382 -15.0950  0.00  0.00     0.000 C
ATOM     62  C4  BGC B   5      18.912   0.453 -13.8930  0.00  0.00     0.000 C
ATOM     63  C5  BGC B   5      18.145   1.118 -12.7410  0.00  0.00     0.000 C
ATOM     64  O5  BGC B   5      18.765   2.362 -12.4320  0.00  0.00     0.000 O
ATOM     65   O  BGC B   5      19.493   0.060 -11.1410  0.00  0.00     0.000 O
ATOM     67  HD  BGC B   5      20.017  -0.623 -11.0430  0.00  0.00     0.000 HD
ATOM     67   O  BGC B   5      19.493   0.060 -11.1410  0.00  0.00     0.000 O
ATOM     69  HD  BGC B   5      20.017  -0.623 -11.0430  0.00  0.00     0.000 HD
ENDBRANCH 58 62
ENDBRANCH 45 58
ENDBRANCH 44 48
ENDBRANCH 31 44
ENDBRANCH 30 34
ENDBRANCH 17 30
ENDBRANCH 16 20
ENDBRANCH 1 16
TORSDOF 8
ENDMDL
MODEL 31
REMARK VINA RESULT:      -6.0     24.884     26.502
ROOT
ATOM      1  C1  BGC B   1      -4.086  -9.773 -27.4190  0.00  0.00     0.000 C
ATOM      2  C2  BGC B   1      -4.464  -8.884 -26.2350  0.00  0.00     0.000 C
ATOM      3  C3  BGC B   1      -5.483  -7.848 -26.6670  0.00  0.00     0.000 C
ATOM      4  C4  BGC B   1      -4.997  -7.094 -27.8980  0.00  0.00     0.000 C
ATOM      5  C5  BGC B   1      -4.677  -8.106 -28.9880  0.00  0.00     0.000 C
ATOM      6  O5  BGC B   1      -3.629  -8.959 -28.4890  0.00  0.00     0.000 O
ATOM      7   O  BGC B   1      -5.030  -9.698 -25.1940  0.00  0.00     0.000 O
ATOM      9  HD  BGC B   1      -5.597  -9.326 -24.6550  0.00  0.00     0.000 HD
ATOM      9   O  BGC B   1      -5.719  -6.949 -25.5790  0.00  0.00     0.000 O
ATOM     11  HD  BGC B   1      -6.286  -6.577 -25.0410  0.00  0.00     0.000 HD
ATOM     11   O  BGC B   1      -6.004  -6.211 -28.3420  0.00  0.00     0.000 O
ATOM     13  HD  BGC B   1      -6.571  -5.839 -27.8040  0.00  0.00     0.000 HD
ATOM     13   C  BGC B   1      -4.220  -7.501 -30.3080  0.00  0.00     0.000 C
ATOM     14   O  BGC B   1      -3.099  -6.637 -30.1500  0.00  0.00     0.000 O
ATOM     16  HD  BGC B   1      -3.667  -6.265 -29.6110  0.00  0.00     0.000 HD
ENDROOT
BRANCH 1 16
ATOM     16  O4  BGC B   2      -2.943 -10.520 -27.0060  0.00  0.00     0.000 O
BRANCH 16 20
ATOM     17  C1  BGC B   2      -1.167 -14.153 -27.4370  0.00  0.00     0.000 C
ATOM     18  C2  BGC B   2      -1.173 -13.320 -28.7110  0.00  0.00     0.000 C
ATOM     19  C3  BGC B   2      -1.518 -11.879 -28.3450  0.00  0.00     0.000 C
ATOM     20  C4  BGC B   2      -2.813 -11.827 -27.5610  0.00  0.00     0.000 C
ATOM     21  C5  BGC B   2      -2.832 -12.822 -26.4000  0.00  0.00     0.000 C
ATOM     22  O5  BGC B   2      -2.506 -14.122 -26.9080  0.00  0.00     0.000 O
ATOM     23   O  BGC B   2       0.125 -13.351 -29.3260  0.00  0.00     0.000 O
ATOM     25  HD  BGC B   2      -0.294 -12.763 -28.8490  0.00  0.00     0.000 HD
ATOM     25   O  BGC B   2      -1.625 -11.092 -29.5260  0.00  0.00     0.000 O
ATOM     27  HD  BGC B   2      -2.045 -10.504 -29.0490  0.00  0.00     0.000 HD
ATOM     27   C  BGC B   2      -4.192 -12.917 -25.7210  0.00  0.00     0.000 C
ATOM     28   O  BGC B   2      -5.244 -13.249 -26.6130  0.00  0.00     0.000 O
ATOM     30  HD  BGC B   2      -5.664 -12.661 -26.1350  0.00  0.00     0.000 HD
BRANCH 17 30
ATOM     30  O4  BGC B   3      -0.956 -15.497 -27.8280  0.00  0.00     0.000 O
BRANCH 30 34
ATOM     31  C1  BGC B   3       0.838 -18.932 -26.4480  0.00  0.00     0.000 C
ATOM     32  C2  BGC B   3      -0.435 -18.537 -25.7000  0.00  0.00     0.000 C
ATOM     33  C3  BGC B   3      -1.198 -17.522 -26.5330  0.00  0.00     0.000 C
ATOM     34  C4  BGC B   3      -0.302 -16.329 -26.8650  0.00  0.00     0.000 C
ATOM     35  C5  BGC B   3       1.005 -16.804 -27.4740  0.00  0.00     0.000 C
ATOM     36  O5  BGC B   3       1.619 -17.758 -26.6000  0.00  0.00     0.000 O
ATOM     37   O  BGC B   3      -1.259 -19.687 -25.5230  0.00  0.00     0.000 O
ATOM     39  HD  BGC B   3      -1.767 -19.221 -24.9990  0.00  0.00     0.000 HD
ATOM     39   O  BGC B   3      -2.338 -17.103 -25.7970  0.00  0.00     0.000 O
ATOM     41  HD  BGC B   3      -2.846 -16.637 -25.2730  0.00  0.00     0.000 HD
ATOM     41   C  BGC B   3       2.001 -15.684 -27.7540  0.00  0.00     0.000 C
ATOM     42   O  BGC B   3       2.289 -14.983 -26.5670  0.00  0.00     0.000 O
ATOM     44  HD  BGC B   3       1.781 -14.518 -26.0430  0.00  0.00     0.000 HD
BRANCH 31 44
ATOM     44  O4  BGC B   4       1.565 -19.789 -25.6060  0.00  0.00     0.000 O
BRANCH 44 48
ATOM     45  C1  BGC B   4       4.197 -22.927 -25.7960  0.00  0.00     0.000 C
ATOM     46  C2  BGC B   4       4.544 -21.748 -26.6940  0.00  0.00     0.000 C
ATOM     47  C3  BGC B   4       3.759 -20.535 -26.2580  0.00  0.00     0.000 C
ATOM     48  C4  BGC B   4       2.262 -20.858 -26.2120  0.00  0.00     0.000 C
ATOM     49  C5  BGC B   4       2.008 -22.116 -25.3720  0.00  0.00     0.000 C
ATOM     50  O5  BGC B   4       2.797 -23.203 -25.8760  0.00  0.00     0.000 O
ATOM     51   O  BGC B   4       5.951 -21.456 -26.6030  0.00  0.00     0.000 O
ATOM     53  HD  BGC B   4       5.646 -20.821 -26.0990  0.00  0.00     0.000 HD
ATOM     53   O  BGC B   4       3.996 -19.472 -27.1920  0.00  0.00     0.000 O
ATOM     55  HD  BGC B   4       3.691 -18.837 -26.6880  0.00  0.00     0.000 HD
ATOM     55   C  BGC B   4       0.563 -22.583 -25.3630  0.00  0.00     0.000 C
ATOM     56   O  BGC B   4       0.156 -22.764 -26.7200  0.00  0.00     0.000 O
ATOM     58  HD  BGC B   4      -0.149 -22.129 -26.2170  0.00  0.00     0.000 HD
BRANCH 45 58
ATOM     58  O4  BGC B   5       4.767 -24.076 -26.4200  0.00  0.00     0.000 O
BRANCH 58 62
ATOM     59  C1  BGC B   5       6.263 -27.835 -25.5340  0.00  0.00     0.000 C
ATOM     60  C2  BGC B   5       4.990 -27.453 -24.8060  0.00  0.00     0.000 C
ATOM     61  C3  BGC B   5       4.316 -26.279 -25.4900  0.00  0.00     0.000 C
ATOM     62  C4  BGC B   5       5.302 -25.130 -25.6150  0.00  0.00     0.000 C
ATOM     63  C5  BGC B   5       6.600 -25.601 -26.2890  0.00  0.00     0.000 C
ATOM     64  O5  BGC B   5       7.130 -26.697 -25.5500  0.00  0.00     0.000 O
ATOM     65   O  BGC B   5       7.886 -24.124 -25.0000  0.00  0.00     0.000 O
ATOM     67  HD  BGC B   5       7.818 -23.395 -24.5370  0.00  0.00     0.000 HD
ATOM     67   O  BGC B   5       7.886 -24.124 -25.0000  0.00  0.00     0.000 O
ATOM     69  HD  BGC B   5       7.818 -23.395 -24.5370  0.00  0.00     0.000 HD
ENDBRANCH 58 62
ENDBRANCH 45 58
ENDBRANCH 44 48
ENDBRANCH 31 44
ENDBRANCH 30 34
ENDBRANCH 17 30
ENDBRANCH 16 20
ENDBRANCH 1 16
TORSDOF 8
ENDMDL
MODEL 32
REMARK VINA RESULT:      -6.0      6.223     17.715
ROOT
ATOM      1  C1  BGC B   1      19.360 -15.953 -27.9240  0.00  0.00     0.000 C
ATOM      2  C2  BGC B   1      18.519 -15.735 -29.1810  0.00  0.00     0.000 C
ATOM      3  C3  BGC B   1      18.643 -16.931 -30.1050  0.00  0.00     0.000 C
ATOM      4  C4  BGC B   1      20.107 -17.259 -30.3680  0.00  0.00     0.000 C
ATOM      5  C5  BGC B   1      20.804 -17.462 -29.0310  0.00  0.00     0.000 C
ATOM      6  O5  BGC B   1      20.702 -16.226 -28.3000  0.00  0.00     0.000 O
ATOM      7   O  BGC B   1      17.141 -15.568 -28.8060  0.00  0.00     0.000 O
ATOM      9  HD  BGC B   1      16.537 -15.797 -29.3820  0.00  0.00     0.000 HD
ATOM      9   O  BGC B   1      17.956 -16.645 -31.3270  0.00  0.00     0.000 O
ATOM     11  HD  BGC B   1      17.352 -16.874 -31.9030  0.00  0.00     0.000 HD
ATOM     11   O  BGC B   1      20.197 -18.435 -31.1420  0.00  0.00     0.000 O
ATOM     13  HD  BGC B   1      19.593 -18.664 -31.7180  0.00  0.00     0.000 HD
ATOM     13   C  BGC B   1      22.273 -17.847 -29.1280  0.00  0.00     0.000 C
ATOM     14   O  BGC B   1      23.029 -16.914 -29.8950  0.00  0.00     0.000 O
ATOM     16  HD  BGC B   1      22.424 -17.143 -30.4710  0.00  0.00     0.000 HD
ENDROOT
BRANCH 1 16
ATOM     16  O4  BGC B   2      19.410 -14.694 -27.2560  0.00  0.00     0.000 O
BRANCH 16 20
ATOM     17  C1  BGC B   2      19.429 -13.043 -23.5390  0.00  0.00     0.000 C
ATOM     18  C2  BGC B   2      20.698 -13.814 -23.8720  0.00  0.00     0.000 C
ATOM     19  C3  BGC B   2      20.732 -14.064 -25.3780  0.00  0.00     0.000 C
ATOM     20  C4  BGC B   2      19.454 -14.740 -25.8320  0.00  0.00     0.000 C
ATOM     21  C5  BGC B   2      18.203 -14.031 -25.3110  0.00  0.00     0.000 C
ATOM     22  O5  BGC B   2      18.318 -13.889 -23.8900  0.00  0.00     0.000 O
ATOM     23   O  BGC B   2      21.854 -13.048 -23.4960  0.00  0.00     0.000 O
ATOM     25  HD  BGC B   2      21.466 -13.210 -24.2530  0.00  0.00     0.000 HD
ATOM     25   O  BGC B   2      21.859 -14.867 -25.7100  0.00  0.00     0.000 O
ATOM     27  HD  BGC B   2      21.470 -15.028 -26.4670  0.00  0.00     0.000 HD
ATOM     27   C  BGC B   2      16.921 -14.802 -25.5980  0.00  0.00     0.000 C
ATOM     28   O  BGC B   2      16.933 -16.124 -25.0850  0.00  0.00     0.000 O
ATOM     30  HD  BGC B   2      16.544 -16.286 -25.8420  0.00  0.00     0.000 HD
BRANCH 17 30
ATOM     30  O4  BGC B   3      19.377 -12.930 -22.1300  0.00  0.00     0.000 O
BRANCH 30 34
ATOM     31  C1  BGC B   3      18.198 -10.237 -19.2510  0.00  0.00     0.000 C
ATOM     32  C2  BGC B   3      17.054 -11.020 -19.8950  0.00  0.00     0.000 C
ATOM     33  C3  BGC B   3      17.629 -12.224 -20.6180  0.00  0.00     0.000 C
ATOM     34  C4  BGC B   3      18.691 -11.780 -21.6230  0.00  0.00     0.000 C
ATOM     35  C5  BGC B   3      19.718 -10.889 -20.9460  0.00  0.00     0.000 C
ATOM     36  O5  BGC B   3      19.050  -9.801 -20.2980  0.00  0.00     0.000 O
ATOM     37   O  BGC B   3      16.166 -11.484 -18.8800  0.00  0.00     0.000 O
ATOM     39  HD  BGC B   3      15.612 -11.728 -19.5000  0.00  0.00     0.000 HD
ATOM     39   O  BGC B   3      16.569 -12.902 -21.2770  0.00  0.00     0.000 O
ATOM     41  HD  BGC B   3      16.015 -13.146 -21.8960  0.00  0.00     0.000 HD
ATOM     41   C  BGC B   3      20.768 -10.322 -21.8960  0.00  0.00     0.000 C
ATOM     42   O  BGC B   3      20.147  -9.589 -22.9250  0.00  0.00     0.000 O
ATOM     44  HD  BGC B   3      19.594  -9.833 -23.5440  0.00  0.00     0.000 HD
BRANCH 31 44
ATOM     44  O4  BGC B   4      17.641  -9.080 -18.6810  0.00  0.00     0.000 O
BRANCH 44 48
ATOM     45  C1  BGC B   4      18.724  -5.793 -16.4850  0.00  0.00     0.000 C
ATOM     46  C2  BGC B   4      19.100  -5.727 -17.9590  0.00  0.00     0.000 C
ATOM     47  C3  BGC B   4      18.324  -6.772 -18.7230  0.00  0.00     0.000 C
ATOM     48  C4  BGC B   4      18.530  -8.153 -18.0920  0.00  0.00     0.000 C
ATOM     49  C5  BGC B   4      18.229  -8.110 -16.5890  0.00  0.00     0.000 C
ATOM     50  O5  BGC B   4      19.022  -7.089 -15.9650  0.00  0.00     0.000 O
ATOM     51   O  BGC B   4      18.785  -4.426 -18.4910  0.00  0.00     0.000 O
ATOM     53  HD  BGC B   4      18.114  -4.871 -18.8100  0.00  0.00     0.000 HD
ATOM     53   O  BGC B   4      18.784  -6.787 -20.0820  0.00  0.00     0.000 O
ATOM     55  HD  BGC B   4      18.112  -7.232 -20.4010  0.00  0.00     0.000 HD
ATOM     55   C  BGC B   4      18.517  -9.407 -15.8540  0.00  0.00     0.000 C
ATOM     56   O  BGC B   4      19.878  -9.760 -16.1100  0.00  0.00     0.000 O
ATOM     58  HD  BGC B   4      19.207 -10.204 -16.4300  0.00  0.00     0.000 HD
BRANCH 45 58
ATOM     58  O4  BGC B   5      19.670  -4.970 -15.8030  0.00  0.00     0.000 O
BRANCH 58 62
ATOM     59  C1  BGC B   5      20.810  -3.746 -12.0150  0.00  0.00     0.000 C
ATOM     60  C2  BGC B   5      20.977  -5.225 -12.2980  0.00  0.00     0.000 C
ATOM     61  C3  BGC B   5      20.936  -5.490 -13.7910  0.00  0.00     0.000 C
ATOM     62  C4  BGC B   5      19.659  -4.908 -14.3750  0.00  0.00     0.000 C
ATOM     63  C5  BGC B   5      19.510  -3.430 -13.9860  0.00  0.00     0.000 C
ATOM     64  O5  BGC B   5      19.560  -3.321 -12.5670  0.00  0.00     0.000 O
ATOM     65   O  BGC B   5      17.176  -3.624 -13.8780  0.00  0.00     0.000 O
ATOM     67  HD  BGC B   5      16.524  -4.116 -14.1640  0.00  0.00     0.000 HD
ATOM     67   O  BGC B   5      17.176  -3.624 -13.8780  0.00  0.00     0.000 O
ATOM     69  HD  BGC B   5      16.524  -4.116 -14.1640  0.00  0.00     0.000 HD
ENDBRANCH 58 62
ENDBRANCH 45 58
ENDBRANCH 44 48
ENDBRANCH 31 44
ENDBRANCH 30 34
ENDBRANCH 17 30
ENDBRANCH 16 20
ENDBRANCH 1 16
TORSDOF 8
ENDMDL
MODEL 33
REMARK VINA RESULT:      -5.9     16.621     23.831
ROOT
ATOM      1  C1  BGC B   1       1.289 -10.280 -33.5360  0.00  0.00     0.000 C
ATOM      2  C2  BGC B   1       0.395 -11.310 -32.8460  0.00  0.00     0.000 C
ATOM      3  C3  BGC B   1      -0.075 -12.347 -33.8480  0.00  0.00     0.000 C
ATOM      4  C4  BGC B   1      -0.700 -11.676 -35.0650  0.00  0.00     0.000 C
ATOM      5  C5  BGC B   1       0.310 -10.697 -35.6470  0.00  0.00     0.000 C
ATOM      6  O5  BGC B   1       0.589  -9.713 -34.6340  0.00  0.00     0.000 O
ATOM      7   O  BGC B   1       1.141 -11.962 -31.8050  0.00  0.00     0.000 O
ATOM      9  HD  BGC B   1       0.913 -12.770 -31.5920  0.00  0.00     0.000 HD
ATOM      9   O  BGC B   1      -1.012 -13.217 -33.2080  0.00  0.00     0.000 O
ATOM     11  HD  BGC B   1      -1.240 -14.025 -32.9950  0.00  0.00     0.000 HD
ATOM     11   O  BGC B   1      -1.032 -12.654 -36.0260  0.00  0.00     0.000 O
ATOM     13  HD  BGC B   1      -1.260 -13.462 -35.8130  0.00  0.00     0.000 HD
ATOM     13   C  BGC B   1      -0.152  -9.978 -36.9060  0.00  0.00     0.000 C
ATOM     14   O  BGC B   1      -1.388  -9.296 -36.7190  0.00  0.00     0.000 O
ATOM     16  HD  BGC B   1      -1.616 -10.103 -36.5060  0.00  0.00     0.000 HD
ENDROOT
BRANCH 1 16
ATOM     16  O4  BGC B   2       1.453  -9.210 -32.6070  0.00  0.00     0.000 O
BRANCH 16 20
ATOM     17  C1  BGC B   2       4.191  -6.450 -31.4130  0.00  0.00     0.000 C
ATOM     18  C2  BGC B   2       3.437  -6.057 -32.6750  0.00  0.00     0.000 C
ATOM     19  C3  BGC B   2       2.216  -6.964 -32.8130  0.00  0.00     0.000 C
ATOM     20  C4  BGC B   2       2.630  -8.421 -32.7620  0.00  0.00     0.000 C
ATOM     21  C5  BGC B   2       3.545  -8.725 -31.5750  0.00  0.00     0.000 C
ATOM     22  O5  BGC B   2       4.643  -7.805 -31.5980  0.00  0.00     0.000 O
ATOM     23   O  BGC B   2       3.000  -4.691 -32.5840  0.00  0.00     0.000 O
ATOM     25  HD  BGC B   2       2.600  -5.453 -32.4900  0.00  0.00     0.000 HD
ATOM     25   O  BGC B   2       1.542  -6.686 -34.0340  0.00  0.00     0.000 O
ATOM     27  HD  BGC B   2       1.141  -7.448 -33.9400  0.00  0.00     0.000 HD
ATOM     27   C  BGC B   2       4.121 -10.135 -31.6160  0.00  0.00     0.000 C
ATOM     28   O  BGC B   2       4.828 -10.420 -32.8110  0.00  0.00     0.000 O
ATOM     30  HD  BGC B   2       4.428 -11.182 -32.7170  0.00  0.00     0.000 HD
BRANCH 17 30
ATOM     30  O4  BGC B   3       5.370  -5.668 -31.3810  0.00  0.00     0.000 O
BRANCH 30 34
ATOM     31  C1  BGC B   3       7.994  -4.062 -28.6490  0.00  0.00     0.000 C
ATOM     32  C2  BGC B   3       8.150  -5.567 -28.8700  0.00  0.00     0.000 C
ATOM     33  C3  BGC B   3       7.430  -5.952 -30.1500  0.00  0.00     0.000 C
ATOM     34  C4  BGC B   3       5.971  -5.502 -30.0920  0.00  0.00     0.000 C
ATOM     35  C5  BGC B   3       5.886  -4.030 -29.7280  0.00  0.00     0.000 C
ATOM     36  O5  BGC B   3       6.607  -3.798 -28.5130  0.00  0.00     0.000 O
ATOM     37   O  BGC B   3       9.532  -5.885 -29.0160  0.00  0.00     0.000 O
ATOM     39  HD  BGC B   3       9.325  -6.726 -28.9770  0.00  0.00     0.000 HD
ATOM     39   O  BGC B   3       7.513  -7.361 -30.3060  0.00  0.00     0.000 O
ATOM     41  HD  BGC B   3       7.307  -8.201 -30.2680  0.00  0.00     0.000 HD
ATOM     41   C  BGC B   3       4.461  -3.515 -29.5570  0.00  0.00     0.000 C
ATOM     42   O  BGC B   3       3.791  -4.260 -28.5690  0.00  0.00     0.000 O
ATOM     44  HD  BGC B   3       3.584  -5.100 -28.5300  0.00  0.00     0.000 HD
BRANCH 31 44
ATOM     44  O4  BGC B   4       8.582  -3.761 -27.4090  0.00  0.00     0.000 O
BRANCH 44 48
ATOM     45  C1  BGC B   4      10.626  -0.756 -25.5130  0.00  0.00     0.000 C
ATOM     46  C2  BGC B   4       9.132  -0.510 -25.6710  0.00  0.00     0.000 C
ATOM     47  C3  BGC B   4       8.441  -1.809 -26.0080  0.00  0.00     0.000 C
ATOM     48  C4  BGC B   4       9.095  -2.456 -27.2330  0.00  0.00     0.000 C
ATOM     49  C5  BGC B   4      10.611  -2.575 -27.0360  0.00  0.00     0.000 C
ATOM     50  O5  BGC B   4      11.162  -1.287 -26.7270  0.00  0.00     0.000 O
ATOM     51   O  BGC B   4       8.585   0.008 -24.4440  0.00  0.00     0.000 O
ATOM     53  HD  BGC B   4       8.316  -0.812 -24.3780  0.00  0.00     0.000 HD
ATOM     53   O  BGC B   4       7.059  -1.540 -26.2820  0.00  0.00     0.000 O
ATOM     55  HD  BGC B   4       6.790  -2.360 -26.2160  0.00  0.00     0.000 HD
ATOM     55   C  BGC B   4      11.362  -3.100 -28.2470  0.00  0.00     0.000 C
ATOM     56   O  BGC B   4      11.038  -2.262 -29.3570  0.00  0.00     0.000 O
ATOM     58  HD  BGC B   4      10.769  -3.082 -29.2910  0.00  0.00     0.000 HD
BRANCH 45 58
ATOM     58  O4  BGC B   5      11.230   0.535 -25.4560  0.00  0.00     0.000 O
BRANCH 58 62
ATOM     59  C1  BGC B   5      13.435   2.593 -22.6180  0.00  0.00     0.000 C
ATOM     60  C2  BGC B   5      14.164   2.286 -23.9100  0.00  0.00     0.000 C
ATOM     61  C3  BGC B   5      13.179   1.922 -25.0040  0.00  0.00     0.000 C
ATOM     62  C4  BGC B   5      12.292   0.781 -24.5300  0.00  0.00     0.000 C
ATOM     63  C5  BGC B   5      11.646   1.124 -23.1800  0.00  0.00     0.000 C
ATOM     64  O5  BGC B   5      12.673   1.440 -22.2460  0.00  0.00     0.000 O
ATOM     65   O  BGC B   5      11.729  -1.117 -22.4950  0.00  0.00     0.000 O
ATOM     67  HD  BGC B   5      11.787  -1.920 -22.8140  0.00  0.00     0.000 HD
ATOM     67   O  BGC B   5      11.729  -1.117 -22.4950  0.00  0.00     0.000 O
ATOM     69  HD  BGC B   5      11.787  -1.920 -22.8140  0.00  0.00     0.000 HD
ENDBRANCH 58 62
ENDBRANCH 45 58
ENDBRANCH 44 48
ENDBRANCH 31 44
ENDBRANCH 30 34
ENDBRANCH 17 30
ENDBRANCH 16 20
ENDBRANCH 1 16
TORSDOF 8
ENDMDL
MODEL 34
REMARK VINA RESULT:      -5.8     27.918     30.388
ROOT
ATOM      1  C1  BGC B   1      -3.572 -20.506  -8.1230  0.00  0.00     0.000 C
ATOM      2  C2  BGC B   1      -3.374 -19.517  -9.2710  0.00  0.00     0.000 C
ATOM      3  C3  BGC B   1      -4.365 -18.375  -9.1520  0.00  0.00     0.000 C
ATOM      4  C4  BGC B   1      -5.786 -18.907  -9.0090  0.00  0.00     0.000 C
ATOM      5  C5  BGC B   1      -5.826 -19.859  -7.8230  0.00  0.00     0.000 C
ATOM      6  O5  BGC B   1      -4.923 -20.943  -8.1100  0.00  0.00     0.000 O
ATOM      7   O  BGC B   1      -2.038 -18.991  -9.2180  0.00  0.00     0.000 O
ATOM      9  HD  BGC B   1      -1.903 -18.200  -9.5430  0.00  0.00     0.000 HD
ATOM      9   O  BGC B   1      -4.248 -17.538 -10.3060  0.00  0.00     0.000 O
ATOM     11  HD  BGC B   1      -4.114 -16.747 -10.6320  0.00  0.00     0.000 HD
ATOM     11   O  BGC B   1      -6.675 -17.833  -8.7930  0.00  0.00     0.000 O
ATOM     13  HD  BGC B   1      -6.540 -17.041  -9.1190  0.00  0.00     0.000 HD
ATOM     13   C  BGC B   1      -7.199 -20.441  -7.5170  0.00  0.00     0.000 C
ATOM     14   O  BGC B   1      -7.773 -21.097  -8.6440  0.00  0.00     0.000 O
ATOM     16  HD  BGC B   1      -7.638 -20.306  -8.9700  0.00  0.00     0.000 HD
ENDROOT
BRANCH 1 16
ATOM     16  O4  BGC B   2      -2.810 -21.663  -8.4600  0.00  0.00     0.000 O
BRANCH 16 20
ATOM     17  C1  BGC B   2      -0.592 -24.584  -6.7010  0.00  0.00     0.000 C
ATOM     18  C2  BGC B   2      -2.083 -24.888  -6.7410  0.00  0.00     0.000 C
ATOM     19  C3  BGC B   2      -2.748 -23.927  -7.7240  0.00  0.00     0.000 C
ATOM     20  C4  BGC B   2      -2.413 -22.492  -7.3700  0.00  0.00     0.000 C
ATOM     21  C5  BGC B   2      -0.915 -22.279  -7.1540  0.00  0.00     0.000 C
ATOM     22  O5  BGC B   2      -0.450 -23.242  -6.1990  0.00  0.00     0.000 O
ATOM     23   O  BGC B   2      -2.300 -26.238  -7.1830  0.00  0.00     0.000 O
ATOM     25  HD  BGC B   2      -2.369 -25.465  -7.5690  0.00  0.00     0.000 HD
ATOM     25   O  BGC B   2      -4.157 -24.122  -7.7130  0.00  0.00     0.000 O
ATOM     27  HD  BGC B   2      -4.226 -23.349  -8.0980  0.00  0.00     0.000 HD
ATOM     27   C  BGC B   2      -0.583 -20.893  -6.6150  0.00  0.00     0.000 C
ATOM     28   O  BGC B   2      -1.258 -20.584  -5.4060  0.00  0.00     0.000 O
ATOM     30  HD  BGC B   2      -1.328 -19.811  -5.7920  0.00  0.00     0.000 HD
BRANCH 17 30
ATOM     30  O4  BGC B   3      -0.032 -25.413  -5.7010  0.00  0.00     0.000 O
BRANCH 30 34
ATOM     31  C1  BGC B   3       3.639 -26.892  -4.5770  0.00  0.00     0.000 C
ATOM     32  C2  BGC B   3       3.363 -25.462  -4.1150  0.00  0.00     0.000 C
ATOM     33  C3  BGC B   3       1.874 -25.186  -4.2340  0.00  0.00     0.000 C
ATOM     34  C4  BGC B   3       1.398 -25.459  -5.6600  0.00  0.00     0.000 C
ATOM     35  C5  BGC B   3       1.831 -26.844  -6.1060  0.00  0.00     0.000 C
ATOM     36  O5  BGC B   3       3.246 -26.978  -5.9380  0.00  0.00     0.000 O
ATOM     37   O  BGC B   3       3.740 -25.323  -2.7470  0.00  0.00     0.000 O
ATOM     39  HD  BGC B   3       3.619 -24.468  -2.8180  0.00  0.00     0.000 HD
ATOM     39   O  BGC B   3       1.637 -23.833  -3.8760  0.00  0.00     0.000 O
ATOM     41  HD  BGC B   3       1.516 -22.979  -3.9470  0.00  0.00     0.000 HD
ATOM     41   C  BGC B   3       1.478 -27.168  -7.5530  0.00  0.00     0.000 C
ATOM     42   O  BGC B   3       2.055 -26.219  -8.4180  0.00  0.00     0.000 O
ATOM     44  HD  BGC B   3       1.934 -25.364  -8.4890  0.00  0.00     0.000 HD
BRANCH 31 44
ATOM     44  O4  BGC B   4       5.032 -27.075  -4.5510  0.00  0.00     0.000 O
BRANCH 44 48
ATOM     45  C1  BGC B   4       7.791 -30.107  -4.5320  0.00  0.00     0.000 C
ATOM     46  C2  BGC B   4       7.318 -29.683  -5.9160  0.00  0.00     0.000 C
ATOM     47  C3  BGC B   4       6.635 -28.341  -5.8250  0.00  0.00     0.000 C
ATOM     48  C4  BGC B   4       5.519 -28.382  -4.7760  0.00  0.00     0.000 C
ATOM     49  C5  BGC B   4       6.054 -28.915  -3.4410  0.00  0.00     0.000 C
ATOM     50  O5  BGC B   4       6.676 -30.193  -3.6430  0.00  0.00     0.000 O
ATOM     51   O  BGC B   4       8.442 -29.579  -6.8100  0.00  0.00     0.000 O
ATOM     53  HD  BGC B   4       8.318 -28.737  -6.6470  0.00  0.00     0.000 HD
ATOM     53   O  BGC B   4       6.081 -28.016  -7.1080  0.00  0.00     0.000 O
ATOM     55  HD  BGC B   4       5.957 -27.175  -6.9450  0.00  0.00     0.000 HD
ATOM     55   C  BGC B   4       4.994 -29.102  -2.3700  0.00  0.00     0.000 C
ATOM     56   O  BGC B   4       3.977 -29.950  -2.9080  0.00  0.00     0.000 O
ATOM     58  HD  BGC B   4       3.853 -29.108  -2.7450  0.00  0.00     0.000 HD
BRANCH 45 58
ATOM     58  O4  BGC B   5       8.185 -31.473  -4.6550  0.00  0.00     0.000 O
BRANCH 58 62
ATOM     59  C1  BGC B   5      11.282 -34.033  -3.6550  0.00  0.00     0.000 C
ATOM     60  C2  BGC B   5      10.262 -33.789  -2.5610  0.00  0.00     0.000 C
ATOM     61  C3  BGC B   5       8.990 -33.200  -3.1410  0.00  0.00     0.000 C
ATOM     62  C4  BGC B   5       9.326 -31.950  -3.9380  0.00  0.00     0.000 C
ATOM     63  C5  BGC B   5      10.421 -32.246  -4.9730  0.00  0.00     0.000 C
ATOM     64  O5  BGC B   5      11.555 -32.787  -4.3030  0.00  0.00     0.000 O
ATOM     65   O  BGC B   5      11.321 -30.094  -4.7380  0.00  0.00     0.000 O
ATOM     67  HD  BGC B   5      11.110 -29.297  -4.4730  0.00  0.00     0.000 HD
ATOM     67   O  BGC B   5      11.321 -30.094  -4.7380  0.00  0.00     0.000 O
ATOM     69  HD  BGC B   5      11.110 -29.297  -4.4730  0.00  0.00     0.000 HD
ENDBRANCH 58 62
ENDBRANCH 45 58
ENDBRANCH 44 48
ENDBRANCH 31 44
ENDBRANCH 30 34
ENDBRANCH 17 30
ENDBRANCH 16 20
ENDBRANCH 1 16
TORSDOF 8
ENDMDL
MODEL 35
REMARK VINA RESULT:      -5.8      5.204      6.485
ROOT
ATOM      1  C1  BGC B   1      19.913   3.607 -20.4470  0.00  0.00     0.000 C
ATOM      2  C2  BGC B   1      21.199   4.313 -20.8740  0.00  0.00     0.000 C
ATOM      3  C3  BGC B   1      21.027   5.816 -20.7680  0.00  0.00     0.000 C
ATOM      4  C4  BGC B   1      19.776   6.269 -21.5100  0.00  0.00     0.000 C
ATOM      5  C5  BGC B   1      18.586   5.493 -20.9670  0.00  0.00     0.000 C
ATOM      6  O5  BGC B   1      18.829   4.098 -21.2230  0.00  0.00     0.000 O
ATOM      7   O  BGC B   1      22.274   3.898 -20.0150  0.00  0.00     0.000 O
ATOM      9  HD  BGC B   1      22.930   4.450 -19.8950  0.00  0.00     0.000 HD
ATOM      9   O  BGC B   1      22.193   6.453 -21.2980  0.00  0.00     0.000 O
ATOM     11  HD  BGC B   1      22.849   7.006 -21.1780  0.00  0.00     0.000 HD
ATOM     11   O  BGC B   1      19.581   7.652 -21.3090  0.00  0.00     0.000 O
ATOM     13  HD  BGC B   1      20.237   8.205 -21.1890  0.00  0.00     0.000 HD
ATOM     13   C  BGC B   1      17.244   5.871 -21.5790  0.00  0.00     0.000 C
ATOM     14   O  BGC B   1      17.246   5.762 -22.9990  0.00  0.00     0.000 O
ATOM     16  HD  BGC B   1      17.902   6.314 -22.8800  0.00  0.00     0.000 HD
ENDROOT
BRANCH 1 16
ATOM     16  O4  BGC B   2      20.060   2.242 -20.8350  0.00  0.00     0.000 O
BRANCH 16 20
ATOM     17  C1  BGC B   2      19.002  -1.523 -19.7200  0.00  0.00     0.000 C
ATOM     18  C2  BGC B   2      17.860  -0.722 -20.3300  0.00  0.00     0.000 C
ATOM     19  C3  BGC B   2      18.447   0.502 -21.0300  0.00  0.00     0.000 C
ATOM     20  C4  BGC B   2      19.321   1.290 -20.0750  0.00  0.00     0.000 C
ATOM     21  C5  BGC B   2      20.330   0.404 -19.3430  0.00  0.00     0.000 C
ATOM     22  O5  BGC B   2      19.624  -0.682 -18.7310  0.00  0.00     0.000 O
ATOM     23   O  BGC B   2      17.155  -1.522 -21.2940  0.00  0.00     0.000 O
ATOM     25  HD  BGC B   2      17.739  -0.885 -21.3590  0.00  0.00     0.000 HD
ATOM     25   O  BGC B   2      17.397   1.323 -21.5290  0.00  0.00     0.000 O
ATOM     27  HD  BGC B   2      17.981   1.960 -21.5940  0.00  0.00     0.000 HD
ATOM     27   C  BGC B   2      21.084   1.145 -18.2470  0.00  0.00     0.000 C
ATOM     28   O  BGC B   2      20.232   1.743 -17.2830  0.00  0.00     0.000 O
ATOM     30  HD  BGC B   2      20.816   2.380 -17.3490  0.00  0.00     0.000 HD
BRANCH 17 30
ATOM     30  O4  BGC B   3      18.413  -2.581 -18.9880  0.00  0.00     0.000 O
BRANCH 30 34
ATOM     31  C1  BGC B   3      18.987  -6.631 -18.5460  0.00  0.00     0.000 C
ATOM     32  C2  BGC B   3      19.671  -5.774 -17.4820  0.00  0.00     0.000 C
ATOM     33  C3  BGC B   3      19.070  -4.379 -17.5140  0.00  0.00     0.000 C
ATOM     34  C4  BGC B   3      19.177  -3.790 -18.9200  0.00  0.00     0.000 C
ATOM     35  C5  BGC B   3      18.607  -4.757 -19.9430  0.00  0.00     0.000 C
ATOM     36  O5  BGC B   3      19.248  -6.029 -19.8040  0.00  0.00     0.000 O
ATOM     37   O  BGC B   3      19.436  -6.337 -16.1940  0.00  0.00     0.000 O
ATOM     39  HD  BGC B   3      20.009  -5.778 -15.8630  0.00  0.00     0.000 HD
ATOM     39   O  BGC B   3      19.764  -3.569 -16.5770  0.00  0.00     0.000 O
ATOM     41  HD  BGC B   3      20.337  -3.011 -16.2470  0.00  0.00     0.000 HD
ATOM     41   C  BGC B   3      18.755  -4.290 -21.3870  0.00  0.00     0.000 C
ATOM     42   O  BGC B   3      20.112  -4.067 -21.6890  0.00  0.00     0.000 O
ATOM     44  HD  BGC B   3      20.685  -3.509 -21.3580  0.00  0.00     0.000 HD
BRANCH 31 44
ATOM     44  O4  BGC B   4      19.636  -7.877 -18.5570  0.00  0.00     0.000 O
BRANCH 44 48
ATOM     45  C1  BGC B   4      18.816 -11.810 -19.3690  0.00  0.00     0.000 C
ATOM     46  C2  BGC B   4      18.134 -10.812 -20.2940  0.00  0.00     0.000 C
ATOM     47  C3  BGC B   4      18.801  -9.465 -20.1610  0.00  0.00     0.000 C
ATOM     48  C4  BGC B   4      18.829  -9.029 -18.6930  0.00  0.00     0.000 C
ATOM     49  C5  BGC B   4      19.437 -10.129 -17.8140  0.00  0.00     0.000 C
ATOM     50  O5  BGC B   4      18.726 -11.359 -18.0160  0.00  0.00     0.000 O
ATOM     51   O  BGC B   4      18.238 -11.256 -21.6600  0.00  0.00     0.000 O
ATOM     53  HD  BGC B   4      18.856 -10.649 -21.6660  0.00  0.00     0.000 HD
ATOM     53   O  BGC B   4      18.067  -8.508 -20.9370  0.00  0.00     0.000 O
ATOM     55  HD  BGC B   4      18.685  -7.901 -20.9430  0.00  0.00     0.000 HD
ATOM     55   C  BGC B   4      19.401  -9.835 -16.3260  0.00  0.00     0.000 C
ATOM     56   O  BGC B   4      18.045  -9.563 -15.9680  0.00  0.00     0.000 O
ATOM     58  HD  BGC B   4      18.663  -8.956 -15.9730  0.00  0.00     0.000 HD
BRANCH 45 58
ATOM     58  O4  BGC B   5      17.980 -12.967 -19.3570  0.00  0.00     0.000 O
BRANCH 58 62
ATOM     59  C1  BGC B   5      18.176 -17.098 -19.5660  0.00  0.00     0.000 C
ATOM     60  C2  BGC B   5      18.483 -16.501 -18.2080  0.00  0.00     0.000 C
ATOM     61  C3  BGC B   5      17.987 -15.070 -18.1310  0.00  0.00     0.000 C
ATOM     62  C4  BGC B   5      18.570 -14.268 -19.2840  0.00  0.00     0.000 C
ATOM     63  C5  BGC B   5      18.293 -14.967 -20.6230  0.00  0.00     0.000 C
ATOM     64  O5  BGC B   5      18.809 -16.292 -20.5650  0.00  0.00     0.000 O
ATOM     65   O  BGC B   5      20.333 -14.223 -21.5100  0.00  0.00     0.000 O
ATOM     67  HD  BGC B   5      20.936 -13.612 -21.3990  0.00  0.00     0.000 HD
ATOM     67   O  BGC B   5      20.333 -14.223 -21.5100  0.00  0.00     0.000 O
ATOM     69  HD  BGC B   5      20.936 -13.612 -21.3990  0.00  0.00     0.000 HD
ENDBRANCH 58 62
ENDBRANCH 45 58
ENDBRANCH 44 48
ENDBRANCH 31 44
ENDBRANCH 30 34
ENDBRANCH 17 30
ENDBRANCH 16 20
ENDBRANCH 1 16
TORSDOF 8
ENDMDL
MODEL 36
REMARK VINA RESULT:      -5.7     23.832     26.278
ROOT
ATOM      1  C1  BGC B   1      -2.534  -0.037 -28.4910  0.00  0.00     0.000 C
ATOM      2  C2  BGC B   1      -1.204   0.592 -28.9030  0.00  0.00     0.000 C
ATOM      3  C3  BGC B   1      -1.295   1.121 -30.3210  0.00  0.00     0.000 C
ATOM      4  C4  BGC B   1      -1.807   0.041 -31.2670  0.00  0.00     0.000 C
ATOM      5  C5  BGC B   1      -3.137  -0.474 -30.7350  0.00  0.00     0.000 C
ATOM      6  O5  BGC B   1      -2.891  -1.038 -29.4340  0.00  0.00     0.000 O
ATOM      7   O  BGC B   1      -0.899   1.678 -28.0120  0.00  0.00     0.000 O
ATOM      9  HD  BGC B   1      -0.410   2.325 -28.3180  0.00  0.00     0.000 HD
ATOM      9   O  BGC B   1      -0.003   1.582 -30.7270  0.00  0.00     0.000 O
ATOM     11  HD  BGC B   1       0.485   2.229 -31.0330  0.00  0.00     0.000 HD
ATOM     11   O  BGC B   1      -1.983   0.586 -32.5560  0.00  0.00     0.000 O
ATOM     13  HD  BGC B   1      -1.495   1.232 -32.8620  0.00  0.00     0.000 HD
ATOM     13   C  BGC B   1      -3.805  -1.531 -31.6020  0.00  0.00     0.000 C
ATOM     14   O  BGC B   1      -2.954  -2.646 -31.8510  0.00  0.00     0.000 O
ATOM     16  HD  BGC B   1      -2.466  -1.999 -32.1570  0.00  0.00     0.000 HD
ENDROOT
BRANCH 1 16
ATOM     16  O4  BGC B   2      -2.281  -0.743 -27.2770  0.00  0.00     0.000 O
BRANCH 16 20
ATOM     17  C1  BGC B   2      -4.027  -1.772 -23.7520  0.00  0.00     0.000 C
ATOM     18  C2  BGC B   2      -4.640  -2.462 -24.9620  0.00  0.00     0.000 C
ATOM     19  C3  BGC B   2      -3.694  -2.292 -26.1480  0.00  0.00     0.000 C
ATOM     20  C4  BGC B   2      -3.371  -0.827 -26.3620  0.00  0.00     0.000 C
ATOM     21  C5  BGC B   2      -2.939  -0.131 -25.0710  0.00  0.00     0.000 C
ATOM     22  O5  BGC B   2      -3.934  -0.371 -24.0680  0.00  0.00     0.000 O
ATOM     23   O  BGC B   2      -4.814  -3.863 -24.6960  0.00  0.00     0.000 O
ATOM     25  HD  BGC B   2      -4.234  -3.410 -25.1520  0.00  0.00     0.000 HD
ATOM     25   O  BGC B   2      -4.282  -2.843 -27.3200  0.00  0.00     0.000 O
ATOM     27  HD  BGC B   2      -3.702  -2.390 -27.7760  0.00  0.00     0.000 HD
ATOM     27   C  BGC B   2      -2.794   1.378 -25.2290  0.00  0.00     0.000 C
ATOM     28   O  BGC B   2      -3.971   2.009 -25.7060  0.00  0.00     0.000 O
ATOM     30  HD  BGC B   2      -3.391   2.462 -26.1620  0.00  0.00     0.000 HD
BRANCH 17 30
ATOM     30  O4  BGC B   3      -4.980  -1.853 -22.7080  0.00  0.00     0.000 O
BRANCH 30 34
ATOM     31  C1  BGC B   3      -5.152  -2.256 -18.6180  0.00  0.00     0.000 C
ATOM     32  C2  BGC B   3      -4.566  -0.930 -19.1000  0.00  0.00     0.000 C
ATOM     33  C3  BGC B   3      -4.921  -0.740 -20.5650  0.00  0.00     0.000 C
ATOM     34  C4  BGC B   3      -4.445  -1.940 -21.3830  0.00  0.00     0.000 C
ATOM     35  C5  BGC B   3      -4.946  -3.233 -20.7650  0.00  0.00     0.000 C
ATOM     36  O5  BGC B   3      -4.554  -3.286 -19.3890  0.00  0.00     0.000 O
ATOM     37   O  BGC B   3      -5.139   0.142 -18.3550  0.00  0.00     0.000 O
ATOM     39  HD  BGC B   3      -4.562   0.679 -18.7150  0.00  0.00     0.000 HD
ATOM     39   O  BGC B   3      -4.308   0.455 -21.0250  0.00  0.00     0.000 O
ATOM     41  HD  BGC B   3      -3.732   0.991 -21.3850  0.00  0.00     0.000 HD
ATOM     41   C  BGC B   3      -4.442  -4.490 -21.4660  0.00  0.00     0.000 C
ATOM     42   O  BGC B   3      -3.034  -4.512 -21.4710  0.00  0.00     0.000 O
ATOM     44  HD  BGC B   3      -2.457  -3.976 -21.8310  0.00  0.00     0.000 HD
BRANCH 31 44
ATOM     44  O4  BGC B   4      -4.718  -2.445 -17.2950  0.00  0.00     0.000 O
BRANCH 44 48
ATOM     45  C1  BGC B   4      -6.032  -3.966 -13.7220  0.00  0.00     0.000 C
ATOM     46  C2  BGC B   4      -5.569  -5.010 -14.7280  0.00  0.00     0.000 C
ATOM     47  C3  BGC B   4      -4.760  -4.341 -15.8120  0.00  0.00     0.000 C
ATOM     48  C4  BGC B   4      -5.557  -3.191 -16.4370  0.00  0.00     0.000 C
ATOM     49  C5  BGC B   4      -6.073  -2.240 -15.3500  0.00  0.00     0.000 C
ATOM     50  O5  BGC B   4      -6.829  -2.979 -14.3790  0.00  0.00     0.000 O
ATOM     51   O  BGC B   4      -4.751  -5.998 -14.0730  0.00  0.00     0.000 O
ATOM     53  HD  BGC B   4      -4.127  -5.534 -14.4550  0.00  0.00     0.000 HD
ATOM     53   O  BGC B   4      -4.443  -5.313 -16.8190  0.00  0.00     0.000 O
ATOM     55  HD  BGC B   4      -3.819  -4.849 -17.2010  0.00  0.00     0.000 HD
ATOM     55   C  BGC B   4      -6.974  -1.131 -15.8630  0.00  0.00     0.000 C
ATOM     56   O  BGC B   4      -8.046  -1.739 -16.5850  0.00  0.00     0.000 O
ATOM     58  HD  BGC B   4      -7.422  -1.275 -16.9670  0.00  0.00     0.000 HD
BRANCH 45 58
ATOM     58  O4  BGC B   5      -6.989  -4.622 -12.8900  0.00  0.00     0.000 O
BRANCH 58 62
ATOM     59  C1  BGC B   5      -8.541  -4.435  -9.0560  0.00  0.00     0.000 C
ATOM     60  C2  BGC B   5      -8.147  -3.104  -9.6630  0.00  0.00     0.000 C
ATOM     61  C3  BGC B   5      -7.995  -3.229 -11.1670  0.00  0.00     0.000 C
ATOM     62  C4  BGC B   5      -7.016  -4.347 -11.4880  0.00  0.00     0.000 C
ATOM     63  C5  BGC B   5      -7.428  -5.646 -10.7790  0.00  0.00     0.000 C
ATOM     64  O5  BGC B   5      -7.531  -5.395  -9.3810  0.00  0.00     0.000 O
ATOM     65   O  BGC B   5      -5.189  -6.278 -10.4900  0.00  0.00     0.000 O
ATOM     67  HD  BGC B   5      -4.397  -6.132 -10.8110  0.00  0.00     0.000 HD
ATOM     67   O  BGC B   5      -5.189  -6.278 -10.4900  0.00  0.00     0.000 O
ATOM     69  HD  BGC B   5      -4.397  -6.132 -10.8110  0.00  0.00     0.000 HD
ENDBRANCH 58 62
ENDBRANCH 45 58
ENDBRANCH 44 48
ENDBRANCH 31 44
ENDBRANCH 30 34
ENDBRANCH 17 30
ENDBRANCH 16 20
ENDBRANCH 1 16
TORSDOF 8
ENDMDL
MODEL 37
REMARK VINA RESULT:      -5.7     23.142     25.528
ROOT
ATOM      1  C1  BGC B   1      -4.748  -3.285 -21.8030  0.00  0.00     0.000 C
ATOM      2  C2  BGC B   1      -5.135  -3.064 -23.2640  0.00  0.00     0.000 C
ATOM      3  C3  BGC B   1      -4.333  -1.916 -23.8480  0.00  0.00     0.000 C
ATOM      4  C4  BGC B   1      -4.444  -0.678 -22.9670  0.00  0.00     0.000 C
ATOM      5  C5  BGC B   1      -4.013  -1.050 -21.5560  0.00  0.00     0.000 C
ATOM      6  O5  BGC B   1      -4.915  -2.070 -21.0860  0.00  0.00     0.000 O
ATOM      7   O  BGC B   1      -4.861  -4.260 -24.0120  0.00  0.00     0.000 O
ATOM      9  HD  BGC B   1      -4.683  -4.176 -24.8560  0.00  0.00     0.000 HD
ATOM      9   O  BGC B   1      -4.808  -1.645 -25.1700  0.00  0.00     0.000 O
ATOM     11  HD  BGC B   1      -4.630  -1.561 -26.0130  0.00  0.00     0.000 HD
ATOM     11   O  BGC B   1      -3.608   0.340 -23.4720  0.00  0.00     0.000 O
ATOM     13  HD  BGC B   1      -3.430   0.424 -24.3160  0.00  0.00     0.000 HD
ATOM     13   C  BGC B   1      -4.023   0.101 -20.5600  0.00  0.00     0.000 C
ATOM     14   O  BGC B   1      -5.290   0.747 -20.4910  0.00  0.00     0.000 O
ATOM     16  HD  BGC B   1      -5.113   0.831 -21.3350  0.00  0.00     0.000 HD
ENDROOT
BRANCH 1 16
ATOM     16  O4  BGC B   2      -5.724  -4.173 -21.2630  0.00  0.00     0.000 O
BRANCH 16 20
ATOM     17  C1  BGC B   2      -6.056  -7.123 -18.4830  0.00  0.00     0.000 C
ATOM     18  C2  BGC B   2      -6.320  -5.730 -17.9310  0.00  0.00     0.000 C
ATOM     19  C3  BGC B   2      -6.528  -4.774 -19.1040  0.00  0.00     0.000 C
ATOM     20  C4  BGC B   2      -5.359  -4.853 -20.0650  0.00  0.00     0.000 C
ATOM     21  C5  BGC B   2      -5.012  -6.293 -20.4430  0.00  0.00     0.000 C
ATOM     22  O5  BGC B   2      -4.833  -7.051 -19.2400  0.00  0.00     0.000 O
ATOM     23   O  BGC B   2      -7.503  -5.738 -17.1150  0.00  0.00     0.000 O
ATOM     25  HD  BGC B   2      -7.336  -5.470 -17.9210  0.00  0.00     0.000 HD
ATOM     25   O  BGC B   2      -6.682  -3.444 -18.6230  0.00  0.00     0.000 O
ATOM     27  HD  BGC B   2      -6.515  -3.176 -19.4290  0.00  0.00     0.000 HD
ATOM     27   C  BGC B   2      -3.727  -6.401 -21.2540  0.00  0.00     0.000 C
ATOM     28   O  BGC B   2      -2.604  -5.824 -20.6080  0.00  0.00     0.000 O
ATOM     30  HD  BGC B   2      -2.437  -5.557 -21.4140  0.00  0.00     0.000 HD
BRANCH 17 30
ATOM     30  O4  BGC B   3      -5.757  -7.952 -17.3760  0.00  0.00     0.000 O
BRANCH 30 34
ATOM     31  C1  BGC B   3      -5.048 -11.910 -16.5060  0.00  0.00     0.000 C
ATOM     32  C2  BGC B   3      -3.938 -11.227 -17.3030  0.00  0.00     0.000 C
ATOM     33  C3  BGC B   3      -4.121  -9.723 -17.2110  0.00  0.00     0.000 C
ATOM     34  C4  BGC B   3      -5.523  -9.332 -17.6780  0.00  0.00     0.000 C
ATOM     35  C5  BGC B   3      -6.572 -10.151 -16.9460  0.00  0.00     0.000 C
ATOM     36  O5  BGC B   3      -6.282 -11.544 -17.1030  0.00  0.00     0.000 O
ATOM     37   O  BGC B   3      -2.672 -11.563 -16.7390  0.00  0.00     0.000 O
ATOM     39  HD  BGC B   3      -2.288 -11.192 -17.4210  0.00  0.00     0.000 HD
ATOM     39   O  BGC B   3      -3.133  -9.099 -18.0170  0.00  0.00     0.000 O
ATOM     41  HD  BGC B   3      -2.749  -8.729 -18.6990  0.00  0.00     0.000 HD
ATOM     41   C  BGC B   3      -7.999  -9.892 -17.4150  0.00  0.00     0.000 C
ATOM     42   O  BGC B   3      -8.111 -10.151 -18.7950  0.00  0.00     0.000 O
ATOM     44  HD  BGC B   3      -7.727  -9.781 -19.4770  0.00  0.00     0.000 HD
BRANCH 31 44
ATOM     44  O4  BGC B   4      -4.907 -13.294 -16.6980  0.00  0.00     0.000 O
BRANCH 44 48
ATOM     45  C1  BGC B   4      -5.100 -16.834 -14.6380  0.00  0.00     0.000 C
ATOM     46  C2  BGC B   4      -6.433 -16.119 -14.8050  0.00  0.00     0.000 C
ATOM     47  C3  BGC B   4      -6.312 -15.071 -15.8840  0.00  0.00     0.000 C
ATOM     48  C4  BGC B   4      -5.140 -14.132 -15.5840  0.00  0.00     0.000 C
ATOM     49  C5  BGC B   4      -3.858 -14.934 -15.3290  0.00  0.00     0.000 C
ATOM     50  O5  BGC B   4      -4.085 -15.892 -14.2850  0.00  0.00     0.000 O
ATOM     51   O  BGC B   4      -7.456 -17.062 -15.1780  0.00  0.00     0.000 O
ATOM     53  HD  BGC B   4      -7.309 -16.704 -15.9530  0.00  0.00     0.000 HD
ATOM     53   O  BGC B   4      -7.533 -14.320 -15.9390  0.00  0.00     0.000 O
ATOM     55  HD  BGC B   4      -7.387 -13.962 -16.7140  0.00  0.00     0.000 HD
ATOM     55   C  BGC B   4      -2.665 -14.094 -14.9080  0.00  0.00     0.000 C
ATOM     56   O  BGC B   4      -3.050 -13.335 -13.7600  0.00  0.00     0.000 O
ATOM     58  HD  BGC B   4      -2.904 -12.978 -14.5350  0.00  0.00     0.000 HD
BRANCH 45 58
ATOM     58  O4  BGC B   5      -5.219 -17.611 -13.4470  0.00  0.00     0.000 O
BRANCH 58 62
ATOM     59  C1  BGC B   5      -3.725 -20.995 -11.5860  0.00  0.00     0.000 C
ATOM     60  C2  BGC B   5      -2.709 -19.908 -11.8720  0.00  0.00     0.000 C
ATOM     61  C3  BGC B   5      -3.404 -18.590 -12.1550  0.00  0.00     0.000 C
ATOM     62  C4  BGC B   5      -4.411 -18.778 -13.2780  0.00  0.00     0.000 C
ATOM     63  C5  BGC B   5      -5.360 -19.944 -12.9640  0.00  0.00     0.000 C
ATOM     64  O5  BGC B   5      -4.587 -21.115 -12.7230  0.00  0.00     0.000 O
ATOM     65   O  BGC B   5      -5.511 -20.522 -15.2310  0.00  0.00     0.000 O
ATOM     67  HD  BGC B   5      -5.399 -20.190 -16.0230  0.00  0.00     0.000 HD
ATOM     67   O  BGC B   5      -5.511 -20.522 -15.2310  0.00  0.00     0.000 O
ATOM     69  HD  BGC B   5      -5.399 -20.190 -16.0230  0.00  0.00     0.000 HD
ENDBRANCH 58 62
ENDBRANCH 45 58
ENDBRANCH 44 48
ENDBRANCH 31 44
ENDBRANCH 30 34
ENDBRANCH 17 30
ENDBRANCH 16 20
ENDBRANCH 1 16
TORSDOF 8
ENDMDL
MODEL 38
REMARK VINA RESULT:      -5.7      7.917     19.796
ROOT
ATOM      1  C1  BGC B   1      17.745 -18.114 -30.3210  0.00  0.00     0.000 C
ATOM      2  C2  BGC B   1      16.500 -18.223 -31.2000  0.00  0.00     0.000 C
ATOM      3  C3  BGC B   1      16.736 -19.223 -32.3150  0.00  0.00     0.000 C
ATOM      4  C4  BGC B   1      18.019 -18.899 -33.0690  0.00  0.00     0.000 C
ATOM      5  C5  BGC B   1      19.164 -18.840 -32.0680  0.00  0.00     0.000 C
ATOM      6  O5  BGC B   1      18.865 -17.788 -31.1330  0.00  0.00     0.000 O
ATOM      7   O  BGC B   1      15.392 -18.661 -30.3970  0.00  0.00     0.000 O
ATOM      9  HD  BGC B   1      14.758 -19.101 -30.7910  0.00  0.00     0.000 HD
ATOM      9   O  BGC B   1      15.609 -19.207 -33.1960  0.00  0.00     0.000 O
ATOM     11  HD  BGC B   1      14.976 -19.647 -33.5900  0.00  0.00     0.000 HD
ATOM     11   O  BGC B   1      18.271 -19.901 -34.0290  0.00  0.00     0.000 O
ATOM     13  HD  BGC B   1      17.638 -20.342 -34.4230  0.00  0.00     0.000 HD
ATOM     13   C  BGC B   1      20.532 -18.571 -32.6770  0.00  0.00     0.000 C
ATOM     14   O  BGC B   1      20.553 -17.381 -33.4590  0.00  0.00     0.000 O
ATOM     16  HD  BGC B   1      19.920 -17.821 -33.8540  0.00  0.00     0.000 HD
ENDROOT
BRANCH 1 16
ATOM     16  O4  BGC B   2      17.546 -16.974 -29.4870  0.00  0.00     0.000 O
BRANCH 16 20
ATOM     17  C1  BGC B   2      18.372 -15.586 -25.7550  0.00  0.00     0.000 C
ATOM     18  C2  BGC B   2      19.550 -15.500 -26.7140  0.00  0.00     0.000 C
ATOM     19  C3  BGC B   2      19.032 -15.694 -28.1380  0.00  0.00     0.000 C
ATOM     20  C4  BGC B   2      18.237 -16.979 -28.2410  0.00  0.00     0.000 C
ATOM     21  C5  BGC B   2      17.187 -17.106 -27.1360  0.00  0.00     0.000 C
ATOM     22  O5  BGC B   2      17.833 -16.916 -25.8700  0.00  0.00     0.000 O
ATOM     23   O  BGC B   2      20.176 -14.210 -26.6140  0.00  0.00     0.000 O
ATOM     25  HD  BGC B   2      19.635 -14.568 -27.1880  0.00  0.00     0.000 HD
ATOM     25   O  BGC B   2      20.122 -15.714 -29.0510  0.00  0.00     0.000 O
ATOM     27  HD  BGC B   2      19.582 -16.072 -29.6260  0.00  0.00     0.000 HD
ATOM     27   C  BGC B   2      16.512 -18.471 -27.1120  0.00  0.00     0.000 C
ATOM     28   O  BGC B   2      17.425 -19.549 -26.9870  0.00  0.00     0.000 O
ATOM     30  HD  BGC B   2      16.885 -19.907 -27.5620  0.00  0.00     0.000 HD
BRANCH 17 30
ATOM     30  O4  BGC B   3      18.904 -15.515 -24.4460  0.00  0.00     0.000 O
BRANCH 30 34
ATOM     31  C1  BGC B   3      18.149 -13.702 -20.8310  0.00  0.00     0.000 C
ATOM     32  C2  BGC B   3      17.142 -14.784 -21.2210  0.00  0.00     0.000 C
ATOM     33  C3  BGC B   3      17.736 -15.628 -22.3340  0.00  0.00     0.000 C
ATOM     34  C4  BGC B   3      18.148 -14.741 -23.5080  0.00  0.00     0.000 C
ATOM     35  C5  BGC B   3      19.032 -13.604 -23.0260  0.00  0.00     0.000 C
ATOM     36  O5  BGC B   3      18.364 -12.894 -21.9780  0.00  0.00     0.000 O
ATOM     37   O  BGC B   3      16.892 -15.627 -20.0990  0.00  0.00     0.000 O
ATOM     39  HD  BGC B   3      16.247 -15.997 -20.5420  0.00  0.00     0.000 HD
ATOM     39   O  BGC B   3      16.765 -16.581 -22.7430  0.00  0.00     0.000 O
ATOM     41  HD  BGC B   3      16.120 -16.951 -23.1860  0.00  0.00     0.000 HD
ATOM     41   C  BGC B   3      19.418 -12.614 -24.1190  0.00  0.00     0.000 C
ATOM     42   O  BGC B   3      18.262 -12.065 -24.7070  0.00  0.00     0.000 O
ATOM     44  HD  BGC B   3      17.617 -12.435 -25.1500  0.00  0.00     0.000 HD
BRANCH 31 44
ATOM     44  O4  BGC B   4      17.527 -12.881 -19.8760  0.00  0.00     0.000 O
BRANCH 44 48
ATOM     45  C1  BGC B   4      18.367  -9.599 -17.5680  0.00  0.00     0.000 C
ATOM     46  C2  BGC B   4      17.808  -9.282 -18.9480  0.00  0.00     0.000 C
ATOM     47  C3  BGC B   4      17.182 -10.523 -19.5340  0.00  0.00     0.000 C
ATOM     48  C4  BGC B   4      18.185 -11.681 -19.5240  0.00  0.00     0.000 C
ATOM     49  C5  BGC B   4      18.777 -11.869 -18.1220  0.00  0.00     0.000 C
ATOM     50  O5  BGC B   4      19.348 -10.633 -17.6670  0.00  0.00     0.000 O
ATOM     51   O  BGC B   4      16.807  -8.251 -18.8500  0.00  0.00     0.000 O
ATOM     53  HD  BGC B   4      16.288  -8.939 -18.9350  0.00  0.00     0.000 HD
ATOM     53   O  BGC B   4      16.778 -10.244 -20.8820  0.00  0.00     0.000 O
ATOM     55  HD  BGC B   4      16.258 -10.932 -20.9670  0.00  0.00     0.000 HD
ATOM     55   C  BGC B   4      19.870 -12.920 -18.0370  0.00  0.00     0.000 C
ATOM     56   O  BGC B   4      20.875 -12.580 -18.9940  0.00  0.00     0.000 O
ATOM     58  HD  BGC B   4      20.356 -13.268 -19.0790  0.00  0.00     0.000 HD
BRANCH 45 58
ATOM     58  O4  BGC B   5      19.157  -8.469 -17.1970  0.00  0.00     0.000 O
BRANCH 58 62
ATOM     59  C1  BGC B   5      19.881  -6.031 -13.9290  0.00  0.00     0.000 C
ATOM     60  C2  BGC B   5      20.778  -7.247 -14.0450  0.00  0.00     0.000 C
ATOM     61  C3  BGC B   5      20.719  -7.821 -15.4470  0.00  0.00     0.000 C
ATOM     62  C4  BGC B   5      19.273  -8.106 -15.8190  0.00  0.00     0.000 C
ATOM     63  C5  BGC B   5      18.403  -6.858 -15.6040  0.00  0.00     0.000 C
ATOM     64  O5  BGC B   5      18.545  -6.425 -14.2550  0.00  0.00     0.000 O
ATOM     65   O  BGC B   5      16.561  -8.166 -14.9810  0.00  0.00     0.000 O
ATOM     67  HD  BGC B   5      16.244  -8.969 -15.0550  0.00  0.00     0.000 HD
ATOM     67   O  BGC B   5      16.561  -8.166 -14.9810  0.00  0.00     0.000 O
ATOM     69  HD  BGC B   5      16.244  -8.969 -15.0550  0.00  0.00     0.000 HD
ENDBRANCH 58 62
ENDBRANCH 45 58
ENDBRANCH 44 48
ENDBRANCH 31 44
ENDBRANCH 30 34
ENDBRANCH 17 30
ENDBRANCH 16 20
ENDBRANCH 1 16
TORSDOF 8
ENDMDL
MODEL 39
REMARK VINA RESULT:      -5.6     25.852     30.311
ROOT
ATOM      1  C1  BGC B   1       0.734 -29.412 -16.6980  0.00  0.00     0.000 C
ATOM      2  C2  BGC B   1       0.698 -30.873 -17.1440  0.00  0.00     0.000 C
ATOM      3  C3  BGC B   1       0.306 -31.764 -15.9810  0.00  0.00     0.000 C
ATOM      4  C4  BGC B   1       1.191 -31.491 -14.7710  0.00  0.00     0.000 C
ATOM      5  C5  BGC B   1       1.110 -30.008 -14.4400  0.00  0.00     0.000 C
ATOM      6  O5  BGC B   1       1.605 -29.284 -15.5830  0.00  0.00     0.000 O
ATOM      7   O  BGC B   1      -0.266 -31.021 -18.2000  0.00  0.00     0.000 O
ATOM      9  HD  BGC B   1      -0.647 -31.793 -18.2910  0.00  0.00     0.000 HD
ATOM      9   O  BGC B   1       0.410 -33.131 -16.3900  0.00  0.00     0.000 O
ATOM     11  HD  BGC B   1       0.029 -33.903 -16.4820  0.00  0.00     0.000 HD
ATOM     11   O  BGC B   1       0.740 -32.253 -13.6730  0.00  0.00     0.000 O
ATOM     13  HD  BGC B   1       0.359 -33.026 -13.7640  0.00  0.00     0.000 HD
ATOM     13   C  BGC B   1       1.908 -29.582 -13.2160  0.00  0.00     0.000 C
ATOM     14   O  BGC B   1       3.280 -29.952 -13.3070  0.00  0.00     0.000 O
ATOM     16  HD  BGC B   1       2.899 -30.724 -13.3990  0.00  0.00     0.000 HD
ENDROOT
BRANCH 1 16
ATOM     16  O4  BGC B   2       1.369 -28.689 -17.7500  0.00  0.00     0.000 O
BRANCH 16 20
ATOM     17  C1  BGC B   2       1.216 -25.138 -19.7260  0.00  0.00     0.000 C
ATOM     18  C2  BGC B   2       1.792 -25.032 -18.3220  0.00  0.00     0.000 C
ATOM     19  C3  BGC B   2       2.136 -26.437 -17.8320  0.00  0.00     0.000 C
ATOM     20  C4  BGC B   2       0.931 -27.347 -17.9440  0.00  0.00     0.000 C
ATOM     21  C5  BGC B   2       0.271 -27.274 -19.3220  0.00  0.00     0.000 C
ATOM     22  O5  BGC B   2      -0.001 -25.901 -19.6250  0.00  0.00     0.000 O
ATOM     23   O  BGC B   2       2.987 -24.234 -18.3370  0.00  0.00     0.000 O
ATOM     25  HD  BGC B   2       2.840 -25.086 -18.2950  0.00  0.00     0.000 HD
ATOM     25   O  BGC B   2       2.589 -26.382 -16.4840  0.00  0.00     0.000 O
ATOM     27  HD  BGC B   2       2.441 -27.234 -16.4420  0.00  0.00     0.000 HD
ATOM     27   C  BGC B   2      -1.047 -28.035 -19.3910  0.00  0.00     0.000 C
ATOM     28   O  BGC B   2      -1.991 -27.613 -18.4200  0.00  0.00     0.000 O
ATOM     30  HD  BGC B   2      -2.138 -28.466 -18.3780  0.00  0.00     0.000 HD
BRANCH 17 30
ATOM     30  O4  BGC B   3       0.807 -23.836 -20.1000  0.00  0.00     0.000 O
BRANCH 30 34
ATOM     31  C1  BGC B   3       0.479 -21.503 -23.4730  0.00  0.00     0.000 C
ATOM     32  C2  BGC B   3      -0.621 -22.553 -23.3180  0.00  0.00     0.000 C
ATOM     33  C3  BGC B   3      -0.622 -23.056 -21.8850  0.00  0.00     0.000 C
ATOM     34  C4  BGC B   3       0.764 -23.578 -21.5070  0.00  0.00     0.000 C
ATOM     35  C5  BGC B   3       1.824 -22.537 -21.8200  0.00  0.00     0.000 C
ATOM     36  O5  BGC B   3       1.714 -22.143 -23.1920  0.00  0.00     0.000 O
ATOM     37   O  BGC B   3      -1.889 -21.958 -23.5880  0.00  0.00     0.000 O
ATOM     39  HD  BGC B   3      -2.245 -22.747 -23.5690  0.00  0.00     0.000 HD
ATOM     39   O  BGC B   3      -1.594 -24.084 -21.7700  0.00  0.00     0.000 O
ATOM     41  HD  BGC B   3      -1.950 -24.874 -21.7510  0.00  0.00     0.000 HD
ATOM     41   C  BGC B   3       3.250 -23.008 -21.5600  0.00  0.00     0.000 C
ATOM     42   O  BGC B   3       3.524 -24.166 -22.3120  0.00  0.00     0.000 O
ATOM     44  HD  BGC B   3       3.168 -24.955 -22.2930  0.00  0.00     0.000 HD
BRANCH 31 44
ATOM     44  O4  BGC B   4       0.517 -21.138 -24.8280  0.00  0.00     0.000 O
BRANCH 44 48
ATOM     45  C1  BGC B   4       1.472 -17.964 -27.2400  0.00  0.00     0.000 C
ATOM     46  C2  BGC B   4       2.666 -18.681 -26.6260  0.00  0.00     0.000 C
ATOM     47  C3  BGC B   4       2.230 -20.027 -26.1030  0.00  0.00     0.000 C
ATOM     48  C4  BGC B   4       1.046 -19.866 -25.1440  0.00  0.00     0.000 C
ATOM     49  C5  BGC B   4      -0.072 -19.047 -25.8010  0.00  0.00     0.000 C
ATOM     50  O5  BGC B   4       0.451 -17.791 -26.2560  0.00  0.00     0.000 O
ATOM     51   O  BGC B   4       3.691 -18.872 -27.6200  0.00  0.00     0.000 O
ATOM     53  HD  BGC B   4       3.361 -19.673 -27.6070  0.00  0.00     0.000 HD
ATOM     53   O  BGC B   4       3.332 -20.634 -25.4130  0.00  0.00     0.000 O
ATOM     55  HD  BGC B   4       3.003 -21.434 -25.3990  0.00  0.00     0.000 HD
ATOM     55   C  BGC B   4      -1.243 -18.736 -24.8860  0.00  0.00     0.000 C
ATOM     56   O  BGC B   4      -0.726 -18.086 -23.7230  0.00  0.00     0.000 O
ATOM     58  HD  BGC B   4      -1.055 -18.887 -23.7090  0.00  0.00     0.000 HD
BRANCH 45 58
ATOM     58  O4  BGC B   5       1.898 -16.621 -27.4720  0.00  0.00     0.000 O
BRANCH 58 62
ATOM     59  C1  BGC B   5       1.626 -13.552 -30.2380  0.00  0.00     0.000 C
ATOM     60  C2  BGC B   5       0.374 -13.806 -29.4230  0.00  0.00     0.000 C
ATOM     61  C3  BGC B   5       0.697 -14.631 -28.1930  0.00  0.00     0.000 C
ATOM     62  C4  BGC B   5       1.410 -15.908 -28.6100  0.00  0.00     0.000 C
ATOM     63  C5  BGC B   5       2.621 -15.586 -29.4980  0.00  0.00     0.000 C
ATOM     64  O5  BGC B   5       2.183 -14.817 -30.6120  0.00  0.00     0.000 O
ATOM     65   O  BGC B   5       2.314 -17.548 -30.7450  0.00  0.00     0.000 O
ATOM     67  HD  BGC B   5       1.944 -18.329 -30.6970  0.00  0.00     0.000 HD
ATOM     67   O  BGC B   5       2.314 -17.548 -30.7450  0.00  0.00     0.000 O
ATOM     69  HD  BGC B   5       1.944 -18.329 -30.6970  0.00  0.00     0.000 HD
ENDBRANCH 58 62
ENDBRANCH 45 58
ENDBRANCH 44 48
ENDBRANCH 31 44
ENDBRANCH 30 34
ENDBRANCH 17 30
ENDBRANCH 16 20
ENDBRANCH 1 16
TORSDOF 8
ENDMDL
MODEL 40
REMARK VINA RESULT:      -5.6     27.931     31.802
ROOT
ATOM      1  C1  BGC B   1      -2.416 -21.745  -7.5880  0.00  0.00     0.000 C
ATOM      2  C2  BGC B   1      -2.558 -21.048  -8.9400  0.00  0.00     0.000 C
ATOM      3  C3  BGC B   1      -3.044 -22.034  -9.9850  0.00  0.00     0.000 C
ATOM      4  C4  BGC B   1      -2.167 -23.280 -10.0010  0.00  0.00     0.000 C
ATOM      5  C5  BGC B   1      -2.136 -23.865  -8.5970  0.00  0.00     0.000 C
ATOM      6  O5  BGC B   1      -1.561 -22.871  -7.7280  0.00  0.00     0.000 O
ATOM      7   O  BGC B   1      -3.507 -19.976  -8.8230  0.00  0.00     0.000 O
ATOM      9  HD  BGC B   1      -3.946 -19.748  -9.5330  0.00  0.00     0.000 HD
ATOM      9   O  BGC B   1      -3.040 -21.392 -11.2640  0.00  0.00     0.000 O
ATOM     11  HD  BGC B   1      -3.479 -21.163 -11.9740  0.00  0.00     0.000 HD
ATOM     11   O  BGC B   1      -2.700 -24.223 -10.9040  0.00  0.00     0.000 O
ATOM     13  HD  BGC B   1      -3.139 -23.995 -11.6150  0.00  0.00     0.000 HD
ATOM     13   C  BGC B   1      -1.334 -25.151  -8.4580  0.00  0.00     0.000 C
ATOM     14   O  BGC B   1       0.006 -25.006  -8.9170  0.00  0.00     0.000 O
ATOM     16  HD  BGC B   1      -0.433 -24.778  -9.6280  0.00  0.00     0.000 HD
ENDROOT
BRANCH 1 16
ATOM     16  O4  BGC B   2      -1.703 -20.840  -6.7470  0.00  0.00     0.000 O
BRANCH 16 20
ATOM     17  C1  BGC B   2      -1.533 -19.489  -2.9150  0.00  0.00     0.000 C
ATOM     18  C2  BGC B   2      -1.347 -20.994  -3.0410  0.00  0.00     0.000 C
ATOM     19  C3  BGC B   2      -1.065 -21.326  -4.5050  0.00  0.00     0.000 C
ATOM     20  C4  BGC B   2      -2.149 -20.755  -5.3960  0.00  0.00     0.000 C
ATOM     21  C5  BGC B   2      -2.432 -19.282  -5.0990  0.00  0.00     0.000 C
ATOM     22  O5  BGC B   2      -2.691 -19.141  -3.6960  0.00  0.00     0.000 O
ATOM     23   O  BGC B   2      -0.235 -21.423  -2.2390  0.00  0.00     0.000 O
ATOM     25  HD  BGC B   2      -0.341 -21.288  -3.0880  0.00  0.00     0.000 HD
ATOM     25   O  BGC B   2      -0.981 -22.737  -4.6730  0.00  0.00     0.000 O
ATOM     27  HD  BGC B   2      -1.088 -22.601  -5.5220  0.00  0.00     0.000 HD
ATOM     27   C  BGC B   2      -3.643 -18.746  -5.8510  0.00  0.00     0.000 C
ATOM     28   O  BGC B   2      -4.828 -19.486  -5.6090  0.00  0.00     0.000 O
ATOM     30  HD  BGC B   2      -4.935 -19.351  -6.4580  0.00  0.00     0.000 HD
BRANCH 17 30
ATOM     30  O4  BGC B   3      -1.902 -19.233  -1.5730  0.00  0.00     0.000 O
BRANCH 30 34
ATOM     31  C1  BGC B   3      -1.409 -16.360   1.3310  0.00  0.00     0.000 C
ATOM     32  C2  BGC B   3      -1.899 -15.825  -0.0150  0.00  0.00     0.000 C
ATOM     33  C3  BGC B   3      -2.414 -16.986  -0.8470  0.00  0.00     0.000 C
ATOM     34  C4  BGC B   3      -1.334 -18.059  -0.9840  0.00  0.00     0.000 C
ATOM     35  C5  BGC B   3      -0.791 -18.440   0.3820  0.00  0.00     0.000 C
ATOM     36  O5  BGC B   3      -0.347 -17.263   1.0640  0.00  0.00     0.000 O
ATOM     37   O  BGC B   3      -2.972 -14.911   0.1990  0.00  0.00     0.000 O
ATOM     39  HD  BGC B   3      -2.932 -14.694  -0.6380  0.00  0.00     0.000 HD
ATOM     39   O  BGC B   3      -2.794 -16.492  -2.1220  0.00  0.00     0.000 O
ATOM     41  HD  BGC B   3      -2.754 -16.274  -2.9600  0.00  0.00     0.000 HD
ATOM     41   C  BGC B   3       0.358 -19.441   0.3340  0.00  0.00     0.000 C
ATOM     42   O  BGC B   3       1.416 -18.929  -0.4400  0.00  0.00     0.000 O
ATOM     44  HD  BGC B   3       1.456 -18.711  -1.2780  0.00  0.00     0.000 HD
BRANCH 31 44
ATOM     44  O4  BGC B   4      -0.848 -15.278   2.0290  0.00  0.00     0.000 O
BRANCH 44 48
ATOM     45  C1  BGC B   4      -0.649 -13.737   5.8220  0.00  0.00     0.000 C
ATOM     46  C2  BGC B   4       0.328 -14.869   5.5420  0.00  0.00     0.000 C
ATOM     47  C3  BGC B   4       0.441 -15.079   4.0520  0.00  0.00     0.000 C
ATOM     48  C4  BGC B   4      -0.946 -15.294   3.4380  0.00  0.00     0.000 C
ATOM     49  C5  BGC B   4      -1.898 -14.165   3.8510  0.00  0.00     0.000 C
ATOM     50  O5  BGC B   4      -1.932 -14.058   5.2820  0.00  0.00     0.000 O
ATOM     51   O  BGC B   4       1.627 -14.542   6.0700  0.00  0.00     0.000 O
ATOM     53  HD  BGC B   4       1.774 -14.375   5.2330  0.00  0.00     0.000 HD
ATOM     53   O  BGC B   4       1.262 -16.231   3.8080  0.00  0.00     0.000 O
ATOM     55  HD  BGC B   4       1.408 -16.065   2.9710  0.00  0.00     0.000 HD
ATOM     55   C  BGC B   4      -3.331 -14.351   3.3860  0.00  0.00     0.000 C
ATOM     56   O  BGC B   4      -3.782 -15.621   3.8600  0.00  0.00     0.000 O
ATOM     58  HD  BGC B   4      -3.635 -15.455   3.0230  0.00  0.00     0.000 HD
BRANCH 45 58
ATOM     58  O4  BGC B   5      -0.897 -13.772   7.2270  0.00  0.00     0.000 O
BRANCH 58 62
ATOM     59  C1  BGC B   5      -1.624 -11.314  10.4800  0.00  0.00     0.000 C
ATOM     60  C2  BGC B   5      -2.561 -11.130   9.3030  0.00  0.00     0.000 C
ATOM     61  C3  BGC B   5      -2.483 -12.322   8.3680  0.00  0.00     0.000 C
ATOM     62  C4  BGC B   5      -1.038 -12.549   7.9540  0.00  0.00     0.000 C
ATOM     63  C5  BGC B   5      -0.131 -12.648   9.1890  0.00  0.00     0.000 C
ATOM     64  O5  BGC B   5      -0.294 -11.473   9.9750  0.00  0.00     0.000 O
ATOM     65   O  BGC B   5       1.646 -11.626   8.0500  0.00  0.00     0.000 O
ATOM     67  HD  BGC B   5       1.935 -11.469   7.2490  0.00  0.00     0.000 HD
ATOM     67   O  BGC B   5       1.646 -11.626   8.0500  0.00  0.00     0.000 O
ATOM     69  HD  BGC B   5       1.935 -11.469   7.2490  0.00  0.00     0.000 HD
ENDBRANCH 58 62
ENDBRANCH 45 58
ENDBRANCH 44 48
ENDBRANCH 31 44
ENDBRANCH 30 34
ENDBRANCH 17 30
ENDBRANCH 16 20
ENDBRANCH 1 16
TORSDOF 8
ENDMDL
MODEL 41
REMARK VINA RESULT:      -5.6     26.968     29.676
ROOT
ATOM      1  C1  BGC B   1      -5.141 -19.381 -10.2080  0.00  0.00     0.000 C
ATOM      2  C2  BGC B   1      -6.596 -18.916 -10.1550  0.00  0.00     0.000 C
ATOM      3  C3  BGC B   1      -6.769 -17.868  -9.0730  0.00  0.00     0.000 C
ATOM      4  C4  BGC B   1      -6.212 -18.366  -7.7460  0.00  0.00     0.000 C
ATOM      5  C5  BGC B   1      -4.761 -18.774  -7.9540  0.00  0.00     0.000 C
ATOM      6  O5  BGC B   1      -4.749 -19.840  -8.9220  0.00  0.00     0.000 O
ATOM      7   O  BGC B   1      -6.958 -18.350 -11.4250  0.00  0.00     0.000 O
ATOM      9  HD  BGC B   1      -7.579 -17.746 -11.4350  0.00  0.00     0.000 HD
ATOM      9   O  BGC B   1      -8.159 -17.549  -8.9560  0.00  0.00     0.000 O
ATOM     11  HD  BGC B   1      -8.779 -16.945  -8.9650  0.00  0.00     0.000 HD
ATOM     11   O  BGC B   1      -6.288 -17.336  -6.7840  0.00  0.00     0.000 O
ATOM     13  HD  BGC B   1      -6.909 -16.732  -6.7930  0.00  0.00     0.000 HD
ATOM     13   C  BGC B   1      -4.045 -19.252  -6.6990  0.00  0.00     0.000 C
ATOM     14   O  BGC B   1      -4.730 -20.325  -6.0590  0.00  0.00     0.000 O
ATOM     16  HD  BGC B   1      -5.351 -19.720  -6.0690  0.00  0.00     0.000 HD
ENDROOT
BRANCH 1 16
ATOM     16  O4  BGC B   2      -5.124 -20.540 -11.0380  0.00  0.00     0.000 O
BRANCH 16 20
ATOM     17  C1  BGC B   2      -2.436 -23.094 -12.7090  0.00  0.00     0.000 C
ATOM     18  C2  BGC B   2      -2.983 -23.571 -11.3720  0.00  0.00     0.000 C
ATOM     19  C3  BGC B   2      -4.220 -22.743 -11.0310  0.00  0.00     0.000 C
ATOM     20  C4  BGC B   2      -3.896 -21.264 -11.0800  0.00  0.00     0.000 C
ATOM     21  C5  BGC B   2      -3.174 -20.867 -12.3680  0.00  0.00     0.000 C
ATOM     22  O5  BGC B   2      -2.036 -21.722 -12.5340  0.00  0.00     0.000 O
ATOM     23   O  BGC B   2      -3.354 -24.957 -11.4570  0.00  0.00     0.000 O
ATOM     25  HD  BGC B   2      -3.804 -24.217 -11.4640  0.00  0.00     0.000 HD
ATOM     25   O  BGC B   2      -4.700 -23.100  -9.7400  0.00  0.00     0.000 O
ATOM     27  HD  BGC B   2      -5.150 -22.360  -9.7470  0.00  0.00     0.000 HD
ATOM     27   C  BGC B   2      -2.675 -19.428 -12.3510  0.00  0.00     0.000 C
ATOM     28   O  BGC B   2      -1.824 -19.141 -11.2540  0.00  0.00     0.000 O
ATOM     30  HD  BGC B   2      -2.274 -18.401 -11.2610  0.00  0.00     0.000 HD
BRANCH 17 30
ATOM     30  O4  BGC B   3      -1.233 -23.803 -12.9360  0.00  0.00     0.000 O
BRANCH 30 34
ATOM     31  C1  BGC B   3       0.885 -25.397 -16.0820  0.00  0.00     0.000 C
ATOM     32  C2  BGC B   3       1.121 -23.905 -15.8500  0.00  0.00     0.000 C
ATOM     33  C3  BGC B   3       0.620 -23.539 -14.4640  0.00  0.00     0.000 C
ATOM     34  C4  BGC B   3      -0.844 -23.947 -14.3060  0.00  0.00     0.000 C
ATOM     35  C5  BGC B   3      -1.031 -25.404 -14.6910  0.00  0.00     0.000 C
ATOM     36  O5  BGC B   3      -0.514 -25.619 -16.0080  0.00  0.00     0.000 O
ATOM     37   O  BGC B   3       2.519 -23.629 -15.9120  0.00  0.00     0.000 O
ATOM     39  HD  BGC B   3       2.335 -22.782 -15.8960  0.00  0.00     0.000 HD
ATOM     39   O  BGC B   3       0.772 -22.138 -14.2860  0.00  0.00     0.000 O
ATOM     41  HD  BGC B   3       0.588 -21.292 -14.2700  0.00  0.00     0.000 HD
ATOM     41   C  BGC B   3      -2.480 -25.875 -14.6510  0.00  0.00     0.000 C
ATOM     42   O  BGC B   3      -3.272 -25.082 -15.5040  0.00  0.00     0.000 O
ATOM     44  HD  BGC B   3      -3.455 -24.235 -15.4880  0.00  0.00     0.000 HD
BRANCH 31 44
ATOM     44  O4  BGC B   4       1.265 -25.676 -17.4060  0.00  0.00     0.000 O
BRANCH 44 48
ATOM     45  C1  BGC B   4       1.812 -29.014 -19.7210  0.00  0.00     0.000 C
ATOM     46  C2  BGC B   4       0.526 -28.249 -19.9990  0.00  0.00     0.000 C
ATOM     47  C3  BGC B   4       0.621 -26.870 -19.3940  0.00  0.00     0.000 C
ATOM     48  C4  BGC B   4       0.974 -26.965 -17.9070  0.00  0.00     0.000 C
ATOM     49  C5  BGC B   4       2.221 -27.835 -17.7030  0.00  0.00     0.000 C
ATOM     50  O5  BGC B   4       2.020 -29.119 -18.3120  0.00  0.00     0.000 O
ATOM     51   O  BGC B   4       0.323 -28.126 -21.4200  0.00  0.00     0.000 O
ATOM     53  HD  BGC B   4       0.614 -27.328 -21.2540  0.00  0.00     0.000 HD
ATOM     53   O  BGC B   4      -0.644 -26.209 -19.5500  0.00  0.00     0.000 O
ATOM     55  HD  BGC B   4      -0.352 -25.411 -19.3840  0.00  0.00     0.000 HD
ATOM     55   C  BGC B   4       2.582 -28.084 -16.2500  0.00  0.00     0.000 C
ATOM     56   O  BGC B   4       1.437 -28.644 -15.6060  0.00  0.00     0.000 O
ATOM     58  HD  BGC B   4       1.728 -27.846 -15.4400  0.00  0.00     0.000 HD
BRANCH 45 58
ATOM     58  O4  BGC B   5       1.549 -30.368 -20.0890  0.00  0.00     0.000 O
BRANCH 58 62
ATOM     59  C1  BGC B   5       3.322 -34.109 -20.1660  0.00  0.00     0.000 C
ATOM     60  C2  BGC B   5       2.820 -33.655 -18.8100  0.00  0.00     0.000 C
ATOM     61  C3  BGC B   5       1.845 -32.504 -18.9610  0.00  0.00     0.000 C
ATOM     62  C4  BGC B   5       2.495 -31.389 -19.7640  0.00  0.00     0.000 C
ATOM     63  C5  BGC B   5       3.053 -31.930 -21.0880  0.00  0.00     0.000 C
ATOM     64  O5  BGC B   5       3.953 -32.997 -20.8080  0.00  0.00     0.000 O
ATOM     65   O  BGC B   5       4.843 -30.418 -21.0320  0.00  0.00     0.000 O
ATOM     67  HD  BGC B   5       5.081 -29.663 -20.6800  0.00  0.00     0.000 HD
ATOM     67   O  BGC B   5       4.843 -30.418 -21.0320  0.00  0.00     0.000 O
ATOM     69  HD  BGC B   5       5.081 -29.663 -20.6800  0.00  0.00     0.000 HD
ENDBRANCH 58 62
ENDBRANCH 45 58
ENDBRANCH 44 48
ENDBRANCH 31 44
ENDBRANCH 30 34
ENDBRANCH 17 30
ENDBRANCH 16 20
ENDBRANCH 1 16
TORSDOF 8
ENDMDL
MODEL 42
REMARK VINA RESULT:      -5.5     13.581     15.859
ROOT
ATOM      1  C1  BGC B   1      14.788   4.748 -24.0050  0.00  0.00     0.000 C
ATOM      2  C2  BGC B   1      14.458   6.204 -24.3310  0.00  0.00     0.000 C
ATOM      3  C3  BGC B   1      15.651   7.089 -24.0250  0.00  0.00     0.000 C
ATOM      4  C4  BGC B   1      16.148   6.852 -22.6040  0.00  0.00     0.000 C
ATOM      5  C5  BGC B   1      16.447   5.369 -22.4390  0.00  0.00     0.000 C
ATOM      6  O5  BGC B   1      15.216   4.655 -22.6540  0.00  0.00     0.000 O
ATOM      7   O  BGC B   1      14.132   6.315 -25.7260  0.00  0.00     0.000 O
ATOM      9  HD  BGC B   1      14.282   7.074 -26.1150  0.00  0.00     0.000 HD
ATOM      9   O  BGC B   1      15.272   8.456 -24.2110  0.00  0.00     0.000 O
ATOM     11  HD  BGC B   1      15.421   9.215 -24.6000  0.00  0.00     0.000 HD
ATOM     11   O  BGC B   1      17.318   7.607 -22.3800  0.00  0.00     0.000 O
ATOM     13  HD  BGC B   1      17.468   8.366 -22.7690  0.00  0.00     0.000 HD
ATOM     13   C  BGC B   1      17.003   4.977 -21.0780  0.00  0.00     0.000 C
ATOM     14   O  BGC B   1      16.158   5.390 -20.0080  0.00  0.00     0.000 O
ATOM     16  HD  BGC B   1      16.307   6.150 -20.3970  0.00  0.00     0.000 HD
ENDROOT
BRANCH 1 16
ATOM     16  O4  BGC B   2      13.551   4.039 -24.0530  0.00  0.00     0.000 O
BRANCH 16 20
ATOM     17  C1  BGC B   2      11.976   0.402 -24.9610  0.00  0.00     0.000 C
ATOM     18  C2  BGC B   2      12.982   0.365 -23.8200  0.00  0.00     0.000 C
ATOM     19  C3  BGC B   2      13.218   1.794 -23.3360  0.00  0.00     0.000 C
ATOM     20  C4  BGC B   2      13.620   2.685 -24.4930  0.00  0.00     0.000 C
ATOM     21  C5  BGC B   2      12.681   2.544 -25.6910  0.00  0.00     0.000 C
ATOM     22  O5  BGC B   2      12.579   1.155 -26.0300  0.00  0.00     0.000 O
ATOM     23   O  BGC B   2      12.467  -0.421 -22.7330  0.00  0.00     0.000 O
ATOM     25  HD  BGC B   2      12.539   0.431 -22.8710  0.00  0.00     0.000 HD
ATOM     25   O  BGC B   2      14.227   1.804 -22.3330  0.00  0.00     0.000 O
ATOM     27  HD  BGC B   2      14.299   2.656 -22.4710  0.00  0.00     0.000 HD
ATOM     27   C  BGC B   2      13.176   3.287 -26.9250  0.00  0.00     0.000 C
ATOM     28   O  BGC B   2      14.479   2.900 -27.3300  0.00  0.00     0.000 O
ATOM     30  HD  BGC B   2      14.552   3.752 -27.4680  0.00  0.00     0.000 HD
BRANCH 17 30
ATOM     30  O4  BGC B   3      11.869  -0.920 -25.4560  0.00  0.00     0.000 O
BRANCH 30 34
ATOM     31  C1  BGC B   3       9.577  -2.982 -28.1790  0.00  0.00     0.000 C
ATOM     32  C2  BGC B   3      10.869  -2.399 -28.7500  0.00  0.00     0.000 C
ATOM     33  C3  BGC B   3      11.790  -2.028 -27.6010  0.00  0.00     0.000 C
ATOM     34  C4  BGC B   3      11.077  -1.080 -26.6370  0.00  0.00     0.000 C
ATOM     35  C5  BGC B   3       9.736  -1.658 -26.2220  0.00  0.00     0.000 C
ATOM     36  O5  BGC B   3       8.970  -1.971 -27.3910  0.00  0.00     0.000 O
ATOM     37   O  BGC B   3      11.521  -3.381 -29.5520  0.00  0.00     0.000 O
ATOM     39  HD  BGC B   3      12.072  -2.771 -29.8220  0.00  0.00     0.000 HD
ATOM     39   O  BGC B   3      12.954  -1.417 -28.1370  0.00  0.00     0.000 O
ATOM     41  HD  BGC B   3      13.505  -0.806 -28.4070  0.00  0.00     0.000 HD
ATOM     41   C  BGC B   3       8.913  -0.735 -25.3300  0.00  0.00     0.000 C
ATOM     42   O  BGC B   3       8.689   0.494 -25.9790  0.00  0.00     0.000 O
ATOM     44  HD  BGC B   3       9.241   1.105 -26.2500  0.00  0.00     0.000 HD
BRANCH 31 44
ATOM     44  O4  BGC B   4       8.713  -3.217 -29.2620  0.00  0.00     0.000 O
BRANCH 44 48
ATOM     45  C1  BGC B   4       5.364  -5.390 -30.1900  0.00  0.00     0.000 C
ATOM     46  C2  BGC B   4       5.333  -4.726 -28.8210  0.00  0.00     0.000 C
ATOM     47  C3  BGC B   4       6.403  -3.663 -28.7540  0.00  0.00     0.000 C
ATOM     48  C4  BGC B   4       7.766  -4.256 -29.1240  0.00  0.00     0.000 C
ATOM     49  C5  BGC B   4       7.687  -4.994 -30.4660  0.00  0.00     0.000 C
ATOM     50  O5  BGC B   4       6.645  -5.980 -30.4160  0.00  0.00     0.000 O
ATOM     51   O  BGC B   4       4.049  -4.115 -28.5980  0.00  0.00     0.000 O
ATOM     53  HD  BGC B   4       4.506  -3.406 -28.7930  0.00  0.00     0.000 HD
ATOM     53   O  BGC B   4       6.449  -3.138 -27.4200  0.00  0.00     0.000 O
ATOM     55  HD  BGC B   4       6.906  -2.429 -27.6150  0.00  0.00     0.000 HD
ATOM     55   C  BGC B   4       8.962  -5.716 -30.8610  0.00  0.00     0.000 C
ATOM     56   O  BGC B   4       9.313  -6.598 -29.7930  0.00  0.00     0.000 O
ATOM     58  HD  BGC B   4       9.770  -5.889 -29.9890  0.00  0.00     0.000 HD
BRANCH 45 58
ATOM     58  O4  BGC B   5       4.518  -6.535 -30.0880  0.00  0.00     0.000 O
BRANCH 58 62
ATOM     59  C1  BGC B   5       1.584  -8.625 -32.1320  0.00  0.00     0.000 C
ATOM     60  C2  BGC B   5       2.959  -8.643 -32.7690  0.00  0.00     0.000 C
ATOM     61  C3  BGC B   5       4.017  -8.226 -31.7660  0.00  0.00     0.000 C
ATOM     62  C4  BGC B   5       3.649  -6.875 -31.1720  0.00  0.00     0.000 C
ATOM     63  C5  BGC B   5       2.218  -6.901 -30.6150  0.00  0.00     0.000 C
ATOM     64  O5  BGC B   5       1.329  -7.301 -31.6520  0.00  0.00     0.000 O
ATOM     65   O  BGC B   5       1.877  -4.657 -31.2030  0.00  0.00     0.000 O
ATOM     67  HD  BGC B   5       2.314  -3.931 -31.3830  0.00  0.00     0.000 HD
ATOM     67   O  BGC B   5       1.877  -4.657 -31.2030  0.00  0.00     0.000 O
ATOM     69  HD  BGC B   5       2.314  -3.931 -31.3830  0.00  0.00     0.000 HD
ENDBRANCH 58 62
ENDBRANCH 45 58
ENDBRANCH 44 48
ENDBRANCH 31 44
ENDBRANCH 30 34
ENDBRANCH 17 30
ENDBRANCH 16 20
ENDBRANCH 1 16
TORSDOF 8
ENDMDL
MODEL 43
REMARK VINA RESULT:      -5.5     16.321     21.782
ROOT
ATOM      1  C1  BGC B   1      12.276  10.806  -7.0560  0.00  0.00     0.000 C
ATOM      2  C2  BGC B   1      13.770  10.886  -6.7490  0.00  0.00     0.000 C
ATOM      3  C3  BGC B   1      14.496  11.600  -7.8730  0.00  0.00     0.000 C
ATOM      4  C4  BGC B   1      14.157  10.971  -9.2180  0.00  0.00     0.000 C
ATOM      5  C5  BGC B   1      12.644  10.976  -9.3860  0.00  0.00     0.000 C
ATOM      6  O5  BGC B   1      12.091  10.183  -8.3200  0.00  0.00     0.000 O
ATOM      7   O  BGC B   1      13.963  11.614  -5.5240  0.00  0.00     0.000 O
ATOM      9  HD  BGC B   1      14.710  12.039  -5.4220  0.00  0.00     0.000 HD
ATOM      9   O  BGC B   1      15.904  11.544  -7.6240  0.00  0.00     0.000 O
ATOM     11  HD  BGC B   1      16.651  11.969  -7.5220  0.00  0.00     0.000 HD
ATOM     11   O  BGC B   1      14.758  11.716 -10.2550  0.00  0.00     0.000 O
ATOM     13  HD  BGC B   1      15.506  12.141 -10.1530  0.00  0.00     0.000 HD
ATOM     13   C  BGC B   1      12.146  10.420 -10.7120  0.00  0.00     0.000 C
ATOM     14   O  BGC B   1      12.624   9.102 -10.9610  0.00  0.00     0.000 O
ATOM     16  HD  BGC B   1      13.372   9.527 -10.8580  0.00  0.00     0.000 HD
ENDROOT
BRANCH 1 16
ATOM     16  O4  BGC B   2      11.723   9.895  -6.1080  0.00  0.00     0.000 O
BRANCH 16 20
ATOM     17  C1  BGC B   2       8.384   9.246  -3.8800  0.00  0.00     0.000 C
ATOM     18  C2  BGC B   2       8.098   9.478  -5.3560  0.00  0.00     0.000 C
ATOM     19  C3  BGC B   2       9.407   9.343  -6.1300  0.00  0.00     0.000 C
ATOM     20  C4  BGC B   2      10.464  10.259  -5.5480  0.00  0.00     0.000 C
ATOM     21  C5  BGC B   2      10.581  10.123  -4.0300  0.00  0.00     0.000 C
ATOM     22  O5  BGC B   2       9.279  10.291  -3.4550  0.00  0.00     0.000 O
ATOM     23   O  BGC B   2       7.163   8.498  -5.8380  0.00  0.00     0.000 O
ATOM     25  HD  BGC B   2       8.021   8.591  -5.9110  0.00  0.00     0.000 HD
ATOM     25   O  BGC B   2       9.192   9.648  -7.5030  0.00  0.00     0.000 O
ATOM     27  HD  BGC B   2      10.050   9.741  -7.5760  0.00  0.00     0.000 HD
ATOM     27   C  BGC B   2      11.500  11.168  -3.4090  0.00  0.00     0.000 C
ATOM     28   O  BGC B   2      11.122  12.501  -3.7120  0.00  0.00     0.000 O
ATOM     30  HD  BGC B   2      11.980  12.593  -3.7840  0.00  0.00     0.000 HD
BRANCH 17 30
ATOM     30  O4  BGC B   3       7.175   9.490  -3.1850  0.00  0.00     0.000 O
BRANCH 30 34
ATOM     31  C1  BGC B   3       5.271   7.868   0.0810  0.00  0.00     0.000 C
ATOM     32  C2  BGC B   3       5.977   9.196   0.3530  0.00  0.00     0.000 C
ATOM     33  C3  BGC B   3       6.281   9.871  -0.9730  0.00  0.00     0.000 C
ATOM     34  C4  BGC B   3       7.090   8.934  -1.8700  0.00  0.00     0.000 C
ATOM     35  C5  BGC B   3       6.402   7.584  -1.9800  0.00  0.00     0.000 C
ATOM     36  O5  BGC B   3       6.165   7.062  -0.6690  0.00  0.00     0.000 O
ATOM     37   O  BGC B   3       5.115  10.048   1.1050  0.00  0.00     0.000 O
ATOM     39  HD  BGC B   3       5.778  10.594   1.2150  0.00  0.00     0.000 HD
ATOM     39   O  BGC B   3       7.005  11.065  -0.7150  0.00  0.00     0.000 O
ATOM     41  HD  BGC B   3       7.668  11.611  -0.6050  0.00  0.00     0.000 HD
ATOM     41   C  BGC B   3       7.187   6.553  -2.7840  0.00  0.00     0.000 C
ATOM     42   O  BGC B   3       8.460   6.361  -2.2150  0.00  0.00     0.000 O
ATOM     44  HD  BGC B   3       9.123   6.907  -2.1040  0.00  0.00     0.000 HD
BRANCH 31 44
ATOM     44  O4  BGC B   4       5.098   7.229   1.3190  0.00  0.00     0.000 O
BRANCH 44 48
ATOM     45  C1  BGC B   4       3.281   3.854   2.7730  0.00  0.00     0.000 C
ATOM     46  C2  BGC B   4       4.779   3.721   2.5370  0.00  0.00     0.000 C
ATOM     47  C3  BGC B   4       5.389   5.093   2.3910  0.00  0.00     0.000 C
ATOM     48  C4  BGC B   4       4.660   5.885   1.3010  0.00  0.00     0.000 C
ATOM     49  C5  BGC B   4       3.148   5.886   1.5560  0.00  0.00     0.000 C
ATOM     50  O5  BGC B   4       2.675   4.536   1.6730  0.00  0.00     0.000 O
ATOM     51   O  BGC B   4       5.395   3.049   3.6520  0.00  0.00     0.000 O
ATOM     53  HD  BGC B   4       5.624   3.863   3.8400  0.00  0.00     0.000 HD
ATOM     53   O  BGC B   4       6.773   4.948   2.0410  0.00  0.00     0.000 O
ATOM     55  HD  BGC B   4       7.001   5.763   2.2280  0.00  0.00     0.000 HD
ATOM     55   C  BGC B   4       2.328   6.550   0.4640  0.00  0.00     0.000 C
ATOM     56   O  BGC B   4       2.655   5.914  -0.7730  0.00  0.00     0.000 O
ATOM     58  HD  BGC B   4       2.883   6.729  -0.5860  0.00  0.00     0.000 HD
BRANCH 45 58
ATOM     58  O4  BGC B   5       2.746   2.537   2.6420  0.00  0.00     0.000 O
BRANCH 58 62
ATOM     59  C1  BGC B   5      -1.129   1.125   3.0150  0.00  0.00     0.000 C
ATOM     60  C2  BGC B   5      -0.931   2.583   3.3760  0.00  0.00     0.000 C
ATOM     61  C3  BGC B   5       0.384   3.096   2.8200  0.00  0.00     0.000 C
ATOM     62  C4  BGC B   5       1.519   2.202   3.2940  0.00  0.00     0.000 C
ATOM     63  C5  BGC B   5       1.220   0.731   2.9690  0.00  0.00     0.000 C
ATOM     64  O5  BGC B   5      -0.032   0.377   3.5480  0.00  0.00     0.000 O
ATOM     65   O  BGC B   5       2.312   0.009   4.9150  0.00  0.00     0.000 O
ATOM     67  HD  BGC B   5       2.901   0.266   5.4950  0.00  0.00     0.000 HD
ATOM     67   O  BGC B   5       2.312   0.009   4.9150  0.00  0.00     0.000 O
ATOM     69  HD  BGC B   5       2.901   0.266   5.4950  0.00  0.00     0.000 HD
ENDBRANCH 58 62
ENDBRANCH 45 58
ENDBRANCH 44 48
ENDBRANCH 31 44
ENDBRANCH 30 34
ENDBRANCH 17 30
ENDBRANCH 16 20
ENDBRANCH 1 16
TORSDOF 8
ENDMDL
MODEL 44
REMARK VINA RESULT:      -5.4     16.440     19.389
ROOT
ATOM      1  C1  BGC B   1      13.576  12.017  -8.9510  0.00  0.00     0.000 C
ATOM      2  C2  BGC B   1      14.720  11.017  -9.1040  0.00  0.00     0.000 C
ATOM      3  C3  BGC B   1      15.763  11.250  -8.0270  0.00  0.00     0.000 C
ATOM      4  C4  BGC B   1      16.195  12.711  -8.0020  0.00  0.00     0.000 C
ATOM      5  C5  BGC B   1      14.955  13.577  -7.8300  0.00  0.00     0.000 C
ATOM      6  O5  BGC B   1      14.102  13.337  -8.9640  0.00  0.00     0.000 O
ATOM      7   O  BGC B   1      14.202   9.682  -8.9790  0.00  0.00     0.000 O
ATOM      9  HD  BGC B   1      14.738   9.068  -8.6860  0.00  0.00     0.000 HD
ATOM      9   O  BGC B   1      16.881  10.393  -8.2740  0.00  0.00     0.000 O
ATOM     11  HD  BGC B   1      17.417   9.779  -7.9800  0.00  0.00     0.000 HD
ATOM     11   O  BGC B   1      17.083  12.924  -6.9270  0.00  0.00     0.000 O
ATOM     13  HD  BGC B   1      17.619  12.310  -6.6340  0.00  0.00     0.000 HD
ATOM     13   C  BGC B   1      15.227  15.071  -7.7370  0.00  0.00     0.000 C
ATOM     14   O  BGC B   1      15.968  15.558  -8.8520  0.00  0.00     0.000 O
ATOM     16  HD  BGC B   1      16.504  14.944  -8.5590  0.00  0.00     0.000 HD
ENDROOT
BRANCH 1 16
ATOM     16  O4  BGC B   2      12.796  11.915 -10.1410  0.00  0.00     0.000 O
BRANCH 16 20
ATOM     17  C1  BGC B   2       8.963  12.109 -11.4850  0.00  0.00     0.000 C
ATOM     18  C2  BGC B   2       9.431  13.378 -10.7880  0.00  0.00     0.000 C
ATOM     19  C3  BGC B   2      10.952  13.329 -10.6620  0.00  0.00     0.000 C
ATOM     20  C4  BGC B   2      11.386  12.047  -9.9810  0.00  0.00     0.000 C
ATOM     21  C5  BGC B   2      10.737  10.809 -10.6010  0.00  0.00     0.000 C
ATOM     22  O5  BGC B   2       9.318  11.005 -10.6320  0.00  0.00     0.000 O
ATOM     23   O  BGC B   2       9.061  14.532 -11.5610  0.00  0.00     0.000 O
ATOM     25  HD  BGC B   2       9.805  14.103 -11.4480  0.00  0.00     0.000 HD
ATOM     25   O  BGC B   2      11.414  14.457  -9.9280  0.00  0.00     0.000 O
ATOM     27  HD  BGC B   2      12.158  14.029  -9.8150  0.00  0.00     0.000 HD
ATOM     27   C  BGC B   2      11.013   9.535  -9.8120  0.00  0.00     0.000 C
ATOM     28   O  BGC B   2      10.613   9.617  -8.4540  0.00  0.00     0.000 O
ATOM     30  HD  BGC B   2      11.357   9.189  -8.3410  0.00  0.00     0.000 HD
BRANCH 17 30
ATOM     30  O4  BGC B   3       7.548  12.139 -11.4830  0.00  0.00     0.000 O
BRANCH 30 34
ATOM     31  C1  BGC B   3       4.387   9.897 -12.8640  0.00  0.00     0.000 C
ATOM     32  C2  BGC B   3       4.986   9.406 -11.5460  0.00  0.00     0.000 C
ATOM     33  C3  BGC B   3       5.844  10.510 -10.9540  0.00  0.00     0.000 C
ATOM     34  C4  BGC B   3       6.900  10.957 -11.9640  0.00  0.00     0.000 C
ATOM     35  C5  BGC B   3       6.251  11.294 -13.2950  0.00  0.00     0.000 C
ATOM     36  O5  BGC B   3       5.468  10.180 -13.7380  0.00  0.00     0.000 O
ATOM     37   O  BGC B   3       3.936   9.109 -10.6280  0.00  0.00     0.000 O
ATOM     39  HD  BGC B   3       4.522   8.753 -10.0990  0.00  0.00     0.000 HD
ATOM     39   O  BGC B   3       6.457  10.018  -9.7720  0.00  0.00     0.000 O
ATOM     41  HD  BGC B   3       7.043   9.663  -9.2430  0.00  0.00     0.000 HD
ATOM     41   C  BGC B   3       7.242  11.663 -14.3920  0.00  0.00     0.000 C
ATOM     42   O  BGC B   3       8.157  10.612 -14.5940  0.00  0.00     0.000 O
ATOM     44  HD  BGC B   3       8.743  10.257 -14.0650  0.00  0.00     0.000 HD
BRANCH 31 44
ATOM     44  O4  BGC B   4       3.687   8.819 -13.4300  0.00  0.00     0.000 O
BRANCH 44 48
ATOM     45  C1  BGC B   4       0.274   7.995 -15.5450  0.00  0.00     0.000 C
ATOM     46  C2  BGC B   4       1.217   8.984 -16.2160  0.00  0.00     0.000 C
ATOM     47  C3  BGC B   4       2.575   8.906 -15.5630  0.00  0.00     0.000 C
ATOM     48  C4  BGC B   4       2.449   9.102 -14.0490  0.00  0.00     0.000 C
ATOM     49  C5  BGC B   4       1.407   8.139 -13.4660  0.00  0.00     0.000 C
ATOM     50  O5  BGC B   4       0.158   8.302 -14.1550  0.00  0.00     0.000 O
ATOM     51   O  BGC B   4       1.350   8.668 -17.6150  0.00  0.00     0.000 O
ATOM     53  HD  BGC B   4       2.098   8.340 -17.3290  0.00  0.00     0.000 HD
ATOM     53   O  BGC B   4       3.413   9.931 -16.1150  0.00  0.00     0.000 O
ATOM     55  HD  BGC B   4       4.162   9.603 -15.8290  0.00  0.00     0.000 HD
ATOM     55   C  BGC B   4       1.127   8.338 -11.9870  0.00  0.00     0.000 C
ATOM     56   O  BGC B   4       0.751   9.703 -11.7940  0.00  0.00     0.000 O
ATOM     58  HD  BGC B   4       1.499   9.374 -11.5080  0.00  0.00     0.000 HD
BRANCH 45 58
ATOM     58  O4  BGC B   5      -1.031   8.308 -16.0330  0.00  0.00     0.000 O
BRANCH 58 62
ATOM     59  C1  BGC B   5      -4.554   6.546 -17.3110  0.00  0.00     0.000 C
ATOM     60  C2  BGC B   5      -4.135   6.209 -15.8950  0.00  0.00     0.000 C
ATOM     61  C3  BGC B   5      -3.101   7.200 -15.3940  0.00  0.00     0.000 C
ATOM     62  C4  BGC B   5      -1.935   7.252 -16.3680  0.00  0.00     0.000 C
ATOM     63  C5  BGC B   5      -2.433   7.518 -17.7960  0.00  0.00     0.000 C
ATOM     64  O5  BGC B   5      -3.389   6.521 -18.1430  0.00  0.00     0.000 O
ATOM     65   O  BGC B   5      -0.731   6.190 -18.7100  0.00  0.00     0.000 O
ATOM     67  HD  BGC B   5       0.051   5.869 -18.5230  0.00  0.00     0.000 HD
ATOM     67   O  BGC B   5      -0.731   6.190 -18.7100  0.00  0.00     0.000 O
ATOM     69  HD  BGC B   5       0.051   5.869 -18.5230  0.00  0.00     0.000 HD
ENDBRANCH 58 62
ENDBRANCH 45 58
ENDBRANCH 44 48
ENDBRANCH 31 44
ENDBRANCH 30 34
ENDBRANCH 17 30
ENDBRANCH 16 20
ENDBRANCH 1 16
TORSDOF 8
ENDMDL
MODEL 45
REMARK VINA RESULT:      -5.3      5.227      8.373
ROOT
ATOM      1  C1  BGC B   1      19.888   0.610 -20.8570  0.00  0.00     0.000 C
ATOM      2  C2  BGC B   1      19.371   1.490 -21.9940  0.00  0.00     0.000 C
ATOM      3  C3  BGC B   1      19.825   2.923 -21.7900  0.00  0.00     0.000 C
ATOM      4  C4  BGC B   1      19.462   3.410 -20.3930  0.00  0.00     0.000 C
ATOM      5  C5  BGC B   1      20.056   2.446 -19.3770  0.00  0.00     0.000 C
ATOM      6  O5  BGC B   1      19.467   1.154 -19.6140  0.00  0.00     0.000 O
ATOM      7   O  BGC B   1      19.889   1.003 -23.2430  0.00  0.00     0.000 O
ATOM      9  HD  BGC B   1      19.989   1.573 -23.8870  0.00  0.00     0.000 HD
ATOM      9   O  BGC B   1      19.218   3.746 -22.7910  0.00  0.00     0.000 O
ATOM     11  HD  BGC B   1      19.318   4.317 -23.4350  0.00  0.00     0.000 HD
ATOM     11   O  BGC B   1      19.986   4.704 -20.1910  0.00  0.00     0.000 O
ATOM     13  HD  BGC B   1      20.086   5.275 -20.8360  0.00  0.00     0.000 HD
ATOM     13   C  BGC B   1      19.819   2.825 -17.9220  0.00  0.00     0.000 C
ATOM     14   O  BGC B   1      18.438   3.001 -17.6250  0.00  0.00     0.000 O
ATOM     16  HD  BGC B   1      18.537   3.571 -18.2690  0.00  0.00     0.000 HD
ENDROOT
BRANCH 1 16
ATOM     16  O4  BGC B   2      19.198  -0.634 -20.9720  0.00  0.00     0.000 O
BRANCH 16 20
ATOM     17  C1  BGC B   2      19.637  -4.616 -20.2730  0.00  0.00     0.000 C
ATOM     18  C2  BGC B   2      19.621  -3.771 -19.0080  0.00  0.00     0.000 C
ATOM     19  C3  BGC B   2      19.093  -2.382 -19.3590  0.00  0.00     0.000 C
ATOM     20  C4  BGC B   2      19.894  -1.784 -20.4970  0.00  0.00     0.000 C
ATOM     21  C5  BGC B   2      20.043  -2.747 -21.6750  0.00  0.00     0.000 C
ATOM     22  O5  BGC B   2      20.561  -3.990 -21.1840  0.00  0.00     0.000 O
ATOM     23   O  BGC B   2      18.757  -4.368 -18.0270  0.00  0.00     0.000 O
ATOM     25  HD  BGC B   2      18.671  -3.697 -18.5680  0.00  0.00     0.000 HD
ATOM     25   O  BGC B   2      19.155  -1.537 -18.2150  0.00  0.00     0.000 O
ATOM     27  HD  BGC B   2      19.070  -0.866 -18.7560  0.00  0.00     0.000 HD
ATOM     27   C  BGC B   2      21.000  -2.236 -22.7440  0.00  0.00     0.000 C
ATOM     28   O  BGC B   2      22.293  -1.936 -22.2440  0.00  0.00     0.000 O
ATOM     30  HD  BGC B   2      22.208  -1.265 -22.7850  0.00  0.00     0.000 HD
BRANCH 17 30
ATOM     30  O4  BGC B   3      20.235  -5.852 -19.9320  0.00  0.00     0.000 O
BRANCH 30 34
ATOM     31  C1  BGC B   3      19.953  -9.829 -20.9460  0.00  0.00     0.000 C
ATOM     32  C2  BGC B   3      20.795  -8.988 -21.9050  0.00  0.00     0.000 C
ATOM     33  C3  BGC B   3      21.148  -7.676 -21.2270  0.00  0.00     0.000 C
ATOM     34  C4  BGC B   3      19.879  -6.965 -20.7600  0.00  0.00     0.000 C
ATOM     35  C5  BGC B   3      19.021  -7.904 -19.9310  0.00  0.00     0.000 C
ATOM     36  O5  BGC B   3      18.767  -9.099 -20.6760  0.00  0.00     0.000 O
ATOM     37   O  BGC B   3      22.004  -9.680 -22.2080  0.00  0.00     0.000 O
ATOM     39  HD  BGC B   3      22.171  -9.087 -22.8170  0.00  0.00     0.000 HD
ATOM     39   O  BGC B   3      21.863  -6.871 -22.1510  0.00  0.00     0.000 O
ATOM     41  HD  BGC B   3      22.030  -6.278 -22.7600  0.00  0.00     0.000 HD
ATOM     41   C  BGC B   3      17.688  -7.305 -19.4970  0.00  0.00     0.000 C
ATOM     42   O  BGC B   3      16.948  -6.900 -20.6250  0.00  0.00     0.000 O
ATOM     44  HD  BGC B   3      17.115  -6.308 -21.2340  0.00  0.00     0.000 HD
BRANCH 31 44
ATOM     44  O4  BGC B   4      19.561 -10.985 -21.6420  0.00  0.00     0.000 O
BRANCH 44 48
ATOM     45  C1  BGC B   4      17.908 -14.668 -20.9270  0.00  0.00     0.000 C
ATOM     46  C2  BGC B   4      16.902 -13.537 -21.0880  0.00  0.00     0.000 C
ATOM     47  C3  BGC B   4      17.578 -12.348 -21.7240  0.00  0.00     0.000 C
ATOM     48  C4  BGC B   4      18.826 -11.956 -20.9250  0.00  0.00     0.000 C
ATOM     49  C5  BGC B   4      19.738 -13.172 -20.7200  0.00  0.00     0.000 C
ATOM     50  O5  BGC B   4      18.996 -14.237 -20.1070  0.00  0.00     0.000 O
ATOM     51   O  BGC B   4      15.812 -13.963 -21.9290  0.00  0.00     0.000 O
ATOM     53  HD  BGC B   4      16.251 -13.487 -22.5040  0.00  0.00     0.000 HD
ATOM     53   O  BGC B   4      16.655 -11.250 -21.7490  0.00  0.00     0.000 O
ATOM     55  HD  BGC B   4      17.094 -10.774 -22.3240  0.00  0.00     0.000 HD
ATOM     55   C  BGC B   4      20.945 -12.908 -19.8390  0.00  0.00     0.000 C
ATOM     56   O  BGC B   4      20.472 -12.387 -18.5950  0.00  0.00     0.000 O
ATOM     58  HD  BGC B   4      20.911 -11.911 -19.1700  0.00  0.00     0.000 HD
BRANCH 45 58
ATOM     58  O4  BGC B   5      17.273 -15.642 -20.0990  0.00  0.00     0.000 O
BRANCH 58 62
ATOM     59  C1  BGC B   5      17.672 -19.536 -18.7500  0.00  0.00     0.000 C
ATOM     60  C2  BGC B   5      18.680 -18.550 -18.1960  0.00  0.00     0.000 C
ATOM     61  C3  BGC B   5      18.205 -17.126 -18.4100  0.00  0.00     0.000 C
ATOM     62  C4  BGC B   5      17.901 -16.908 -19.8840  0.00  0.00     0.000 C
ATOM     63  C5  BGC B   5      16.937 -17.986 -20.4020  0.00  0.00     0.000 C
ATOM     64  O5  BGC B   5      17.500 -19.268 -20.1450  0.00  0.00     0.000 O
ATOM     65   O  BGC B   5      17.954 -17.975 -22.5150  0.00  0.00     0.000 O
ATOM     67  HD  BGC B   5      18.445 -17.478 -23.0270  0.00  0.00     0.000 HD
ATOM     67   O  BGC B   5      17.954 -17.975 -22.5150  0.00  0.00     0.000 O
ATOM     69  HD  BGC B   5      18.445 -17.478 -23.0270  0.00  0.00     0.000 HD
ENDBRANCH 58 62
ENDBRANCH 45 58
ENDBRANCH 44 48
ENDBRANCH 31 44
ENDBRANCH 30 34
ENDBRANCH 17 30
ENDBRANCH 16 20
ENDBRANCH 1 16
TORSDOF 8
ENDMDL
MODEL 46
REMARK VINA RESULT:      -5.3     16.357     20.907
ROOT
ATOM      1  C1  BGC B   1      13.285  11.208  -8.7550  0.00  0.00     0.000 C
ATOM      2  C2  BGC B   1      14.402  10.166  -8.7720  0.00  0.00     0.000 C
ATOM      3  C3  BGC B   1      15.741  10.833  -8.5250  0.00  0.00     0.000 C
ATOM      4  C4  BGC B   1      15.946  12.000  -9.4840  0.00  0.00     0.000 C
ATOM      5  C5  BGC B   1      14.769  12.953  -9.3410  0.00  0.00     0.000 C
ATOM      6  O5  BGC B   1      13.580  12.226  -9.7020  0.00  0.00     0.000 O
ATOM      7   O  BGC B   1      14.159   9.196  -7.7390  0.00  0.00     0.000 O
ATOM      9  HD  BGC B   1      14.844   8.791  -7.3980  0.00  0.00     0.000 HD
ATOM      9   O  BGC B   1      16.778   9.860  -8.6780  0.00  0.00     0.000 O
ATOM     11  HD  BGC B   1      17.463   9.454  -8.3380  0.00  0.00     0.000 HD
ATOM     11   O  BGC B   1      17.148  12.668  -9.1660  0.00  0.00     0.000 O
ATOM     13  HD  BGC B   1      17.833  12.263  -8.8260  0.00  0.00     0.000 HD
ATOM     13   C  BGC B   1      14.851  14.204 -10.2050  0.00  0.00     0.000 C
ATOM     14   O  BGC B   1      15.023  13.898 -11.5860  0.00  0.00     0.000 O
ATOM     16  HD  BGC B   1      15.708  13.493 -11.2460  0.00  0.00     0.000 HD
ENDROOT
BRANCH 1 16
ATOM     16  O4  BGC B   2      12.123  10.555  -9.2620  0.00  0.00     0.000 O
BRANCH 16 20
ATOM     17  C1  BGC B   2       8.100  10.312  -8.7170  0.00  0.00     0.000 C
ATOM     18  C2  BGC B   2       8.555  11.625  -9.3360  0.00  0.00     0.000 C
ATOM     19  C3  BGC B   2       9.993  11.459  -9.8230  0.00  0.00     0.000 C
ATOM     20  C4  BGC B   2      10.878  10.961  -8.6990  0.00  0.00     0.000 C
ATOM     21  C5  BGC B   2      10.283   9.749  -7.9820  0.00  0.00     0.000 C
ATOM     22  O5  BGC B   2       8.946  10.070  -7.5770  0.00  0.00     0.000 O
ATOM     23   O  BGC B   2       7.716  11.961 -10.4540  0.00  0.00     0.000 O
ATOM     25  HD  BGC B   2       8.513  11.629 -10.3840  0.00  0.00     0.000 HD
ATOM     25   O  BGC B   2      10.481  12.699 -10.3220  0.00  0.00     0.000 O
ATOM     27  HD  BGC B   2      11.278  12.367 -10.2520  0.00  0.00     0.000 HD
ATOM     27   C  BGC B   2      11.063   9.353  -6.7350  0.00  0.00     0.000 C
ATOM     28   O  BGC B   2      11.196  10.408  -5.7960  0.00  0.00     0.000 O
ATOM     30  HD  BGC B   2      11.993  10.077  -5.7270  0.00  0.00     0.000 HD
BRANCH 17 30
ATOM     30  O4  BGC B   3       6.811  10.538  -8.1790  0.00  0.00     0.000 O
BRANCH 30 34
ATOM     31  C1  BGC B   3       3.447   8.441  -7.0790  0.00  0.00     0.000 C
ATOM     32  C2  BGC B   3       4.746   7.925  -6.4610  0.00  0.00     0.000 C
ATOM     33  C3  BGC B   3       5.818   8.990  -6.6120  0.00  0.00     0.000 C
ATOM     34  C4  BGC B   3       5.967   9.386  -8.0800  0.00  0.00     0.000 C
ATOM     35  C5  BGC B   3       4.616   9.750  -8.6700  0.00  0.00     0.000 C
ATOM     36  O5  BGC B   3       3.698   8.672  -8.4560  0.00  0.00     0.000 O
ATOM     37   O  BGC B   3       4.546   7.679  -5.0710  0.00  0.00     0.000 O
ATOM     39  HD  BGC B   3       5.324   7.298  -5.0440  0.00  0.00     0.000 HD
ATOM     39   O  BGC B   3       7.039   8.474  -6.1050  0.00  0.00     0.000 O
ATOM     41  HD  BGC B   3       7.817   8.093  -6.0780  0.00  0.00     0.000 HD
ATOM     41   C  BGC B   3       4.656  10.071 -10.1600  0.00  0.00     0.000 C
ATOM     42   O  BGC B   3       5.178   8.978 -10.8780  0.00  0.00     0.000 O
ATOM     44  HD  BGC B   3       5.956   8.598 -10.8510  0.00  0.00     0.000 HD
BRANCH 31 44
ATOM     44  O4  BGC B   4       2.512   7.395  -7.0140  0.00  0.00     0.000 O
BRANCH 44 48
ATOM     45  C1  BGC B   4      -1.497   6.770  -6.4300  0.00  0.00     0.000 C
ATOM     46  C2  BGC B   4      -1.121   7.231  -7.8310  0.00  0.00     0.000 C
ATOM     47  C3  BGC B   4       0.362   7.048  -8.0400  0.00  0.00     0.000 C
ATOM     48  C4  BGC B   4       1.146   7.749  -6.9260  0.00  0.00     0.000 C
ATOM     49  C5  BGC B   4       0.639   7.306  -5.5480  0.00  0.00     0.000 C
ATOM     50  O5  BGC B   4      -0.776   7.529  -5.4580  0.00  0.00     0.000 O
ATOM     51   O  BGC B   4      -1.834   6.456  -8.8130  0.00  0.00     0.000 O
ATOM     53  HD  BGC B   4      -1.061   6.069  -8.8680  0.00  0.00     0.000 HD
ATOM     53   O  BGC B   4       0.722   7.606  -9.3110  0.00  0.00     0.000 O
ATOM     55  HD  BGC B   4       1.495   7.220  -9.3660  0.00  0.00     0.000 HD
ATOM     55   C  BGC B   4       1.278   8.035  -4.3800  0.00  0.00     0.000 C
ATOM     56   O  BGC B   4       1.091   9.436  -4.5860  0.00  0.00     0.000 O
ATOM     58  HD  BGC B   4       1.865   9.050  -4.6410  0.00  0.00     0.000 HD
BRANCH 45 58
ATOM     58  O4  BGC B   5      -2.839   7.209  -6.2200  0.00  0.00     0.000 O
BRANCH 58 62
ATOM     59  C1  BGC B   5      -6.527   5.834  -4.9330  0.00  0.00     0.000 C
ATOM     60  C2  BGC B   5      -5.545   6.188  -3.8340  0.00  0.00     0.000 C
ATOM     61  C3  BGC B   5      -4.423   7.050  -4.3800  0.00  0.00     0.000 C
ATOM     62  C4  BGC B   5      -3.773   6.350  -5.5620  0.00  0.00     0.000 C
ATOM     63  C5  BGC B   5      -4.830   5.947  -6.6010  0.00  0.00     0.000 C
ATOM     64  O5  BGC B   5      -5.817   5.142  -5.9650  0.00  0.00     0.000 O
ATOM     65   O  BGC B   5      -3.633   4.013  -7.1700  0.00  0.00     0.000 O
ATOM     67  HD  BGC B   5      -2.836   3.676  -7.1350  0.00  0.00     0.000 HD
ATOM     67   O  BGC B   5      -3.633   4.013  -7.1700  0.00  0.00     0.000 O
ATOM     69  HD  BGC B   5      -2.836   3.676  -7.1350  0.00  0.00     0.000 HD
ENDBRANCH 58 62
ENDBRANCH 45 58
ENDBRANCH 44 48
ENDBRANCH 31 44
ENDBRANCH 30 34
ENDBRANCH 17 30
ENDBRANCH 16 20
ENDBRANCH 1 16
TORSDOF 8
ENDMDL
MODEL 47
REMARK VINA RESULT:      -5.3     27.299     31.705
ROOT
ATOM      1  C1  BGC B   1      -3.212 -19.748  -7.3290  0.00  0.00     0.000 C
ATOM      2  C2  BGC B   1      -2.387 -19.824  -8.6130  0.00  0.00     0.000 C
ATOM      3  C3  BGC B   1      -3.285 -19.647  -9.8210  0.00  0.00     0.000 C
ATOM      4  C4  BGC B   1      -4.462 -20.612  -9.7650  0.00  0.00     0.000 C
ATOM      5  C5  BGC B   1      -5.190 -20.408  -8.4440  0.00  0.00     0.000 C
ATOM      6  O5  BGC B   1      -4.259 -20.707  -7.3880  0.00  0.00     0.000 O
ATOM      7   O  BGC B   1      -1.398 -18.781  -8.6010  0.00  0.00     0.000 O
ATOM      9  HD  BGC B   1      -1.124 -18.478  -9.3650  0.00  0.00     0.000 HD
ATOM      9   O  BGC B   1      -2.512 -19.855 -11.0070  0.00  0.00     0.000 O
ATOM     11  HD  BGC B   1      -2.238 -19.551 -11.7700  0.00  0.00     0.000 HD
ATOM     11   O  BGC B   1      -5.337 -20.357 -10.8420  0.00  0.00     0.000 O
ATOM     13  HD  BGC B   1      -5.064 -20.053 -11.6050  0.00  0.00     0.000 HD
ATOM     13   C  BGC B   1      -6.429 -21.273  -8.2570  0.00  0.00     0.000 C
ATOM     14   O  BGC B   1      -6.148 -22.661  -8.4090  0.00  0.00     0.000 O
ATOM     16  HD  BGC B   1      -5.875 -22.357  -9.1720  0.00  0.00     0.000 HD
ENDROOT
BRANCH 1 16
ATOM     16  O4  BGC B   2      -2.357 -20.195  -6.2790  0.00  0.00     0.000 O
BRANCH 16 20
ATOM     17  C1  BGC B   2      -2.111 -18.815  -2.4610  0.00  0.00     0.000 C
ATOM     18  C2  BGC B   2      -2.199 -20.331  -2.5590  0.00  0.00     0.000 C
ATOM     19  C3  BGC B   2      -1.919 -20.741  -4.0030  0.00  0.00     0.000 C
ATOM     20  C4  BGC B   2      -2.839 -20.001  -4.9520  0.00  0.00     0.000 C
ATOM     21  C5  BGC B   2      -2.860 -18.495  -4.6880  0.00  0.00     0.000 C
ATOM     22  O5  BGC B   2      -3.151 -18.279  -3.3010  0.00  0.00     0.000 O
ATOM     23   O  BGC B   2      -1.220 -20.939  -1.7000  0.00  0.00     0.000 O
ATOM     25  HD  BGC B   2      -1.262 -20.804  -2.5540  0.00  0.00     0.000 HD
ATOM     25   O  BGC B   2      -2.087 -22.146  -4.1490  0.00  0.00     0.000 O
ATOM     27  HD  BGC B   2      -2.129 -22.012  -5.0030  0.00  0.00     0.000 HD
ATOM     27   C  BGC B   2      -3.919 -17.763  -5.5030  0.00  0.00     0.000 C
ATOM     28   O  BGC B   2      -5.229 -18.270  -5.3080  0.00  0.00     0.000 O
ATOM     30  HD  BGC B   2      -5.271 -18.136  -6.1620  0.00  0.00     0.000 HD
BRANCH 17 30
ATOM     30  O4  BGC B   3      -2.486 -18.468  -1.1420  0.00  0.00     0.000 O
BRANCH 30 34
ATOM     31  C1  BGC B   3      -1.590 -15.686   1.7540  0.00  0.00     0.000 C
ATOM     32  C2  BGC B   3      -1.925 -15.092   0.3850  0.00  0.00     0.000 C
ATOM     33  C3  BGC B   3      -2.610 -16.154  -0.4560  0.00  0.00     0.000 C
ATOM     34  C4  BGC B   3      -1.737 -17.406  -0.5420  0.00  0.00     0.000 C
ATOM     35  C5  BGC B   3      -1.324 -17.857   0.8480  0.00  0.00     0.000 C
ATOM     36  O5  BGC B   3      -0.700 -16.769   1.5370  0.00  0.00     0.000 O
ATOM     37   O  BGC B   3      -2.822 -13.997   0.5490  0.00  0.00     0.000 O
ATOM     39  HD  BGC B   3      -2.712 -13.803  -0.2880  0.00  0.00     0.000 HD
ATOM     39   O  BGC B   3      -2.847 -15.619  -1.7500  0.00  0.00     0.000 O
ATOM     41  HD  BGC B   3      -2.737 -15.426  -2.5870  0.00  0.00     0.000 HD
ATOM     41   C  BGC B   3      -0.373 -19.050   0.8550  0.00  0.00     0.000 C
ATOM     42   O  BGC B   3       0.788 -18.749   0.1180  0.00  0.00     0.000 O
ATOM     44  HD  BGC B   3       0.898 -18.555  -0.7190  0.00  0.00     0.000 HD
BRANCH 31 44
ATOM     44  O4  BGC B   4      -0.869 -14.712   2.4640  0.00  0.00     0.000 O
BRANCH 44 48
ATOM     45  C1  BGC B   4      -0.402 -13.335   6.2970  0.00  0.00     0.000 C
ATOM     46  C2  BGC B   4       0.480 -14.520   5.9330  0.00  0.00     0.000 C
ATOM     47  C3  BGC B   4       0.515 -14.680   4.4330  0.00  0.00     0.000 C
ATOM     48  C4  BGC B   4      -0.908 -14.775   3.8750  0.00  0.00     0.000 C
ATOM     49  C5  BGC B   4      -1.760 -13.599   4.3690  0.00  0.00     0.000 C
ATOM     50  O5  BGC B   4      -1.726 -13.546   5.8030  0.00  0.00     0.000 O
ATOM     51   O  BGC B   4       1.821 -14.303   6.4140  0.00  0.00     0.000 O
ATOM     53  HD  BGC B   4       1.943 -14.115   5.5770  0.00  0.00     0.000 HD
ATOM     53   O  BGC B   4       1.242 -15.875   4.1120  0.00  0.00     0.000 O
ATOM     55  HD  BGC B   4       1.364 -15.687   3.2750  0.00  0.00     0.000 HD
ATOM     55   C  BGC B   4      -3.221 -13.669   3.9620  0.00  0.00     0.000 C
ATOM     56   O  BGC B   4      -3.740 -14.922   4.4110  0.00  0.00     0.000 O
ATOM     58  HD  BGC B   4      -3.617 -14.734   3.5750  0.00  0.00     0.000 HD
BRANCH 45 58
ATOM     58  O4  BGC B   5      -0.592 -13.407   7.7090  0.00  0.00     0.000 O
BRANCH 58 62
ATOM     59  C1  BGC B   5      -1.077 -11.038  11.0710  0.00  0.00     0.000 C
ATOM     60  C2  BGC B   5      -2.154 -10.896  10.0150  0.00  0.00     0.000 C
ATOM     61  C3  BGC B   5      -2.116 -12.070   9.0540  0.00  0.00     0.000 C
ATOM     62  C4  BGC B   5      -0.719 -12.204   8.4710  0.00  0.00     0.000 C
ATOM     63  C5  BGC B   5       0.331 -12.263   9.5900  0.00  0.00     0.000 C
ATOM     64  O5  BGC B   5       0.192 -11.110  10.4130  0.00  0.00     0.000 O
ATOM     65   O  BGC B   5       1.899 -11.122   8.2730  0.00  0.00     0.000 O
ATOM     67  HD  BGC B   5       2.083 -10.938   7.4470  0.00  0.00     0.000 HD
ATOM     67   O  BGC B   5       1.899 -11.122   8.2730  0.00  0.00     0.000 O
ATOM     69  HD  BGC B   5       2.083 -10.938   7.4470  0.00  0.00     0.000 HD
ENDBRANCH 58 62
ENDBRANCH 45 58
ENDBRANCH 44 48
ENDBRANCH 31 44
ENDBRANCH 30 34
ENDBRANCH 17 30
ENDBRANCH 16 20
ENDBRANCH 1 16
TORSDOF 8
ENDMDL
MODEL 48
REMARK VINA RESULT:      -5.3     17.157     20.677
ROOT
ATOM      1  C1  BGC B   1      14.279  12.126  -8.8200  0.00  0.00     0.000 C
ATOM      2  C2  BGC B   1      15.672  11.675  -9.2590  0.00  0.00     0.000 C
ATOM      3  C3  BGC B   1      16.372  12.796 -10.0020  0.00  0.00     0.000 C
ATOM      4  C4  BGC B   1      15.493  13.329 -11.1270  0.00  0.00     0.000 C
ATOM      5  C5  BGC B   1      14.155  13.750 -10.5340  0.00  0.00     0.000 C
ATOM      6  O5  BGC B   1      13.554  12.578  -9.9550  0.00  0.00     0.000 O
ATOM      7   O  BGC B   1      16.443  11.323  -8.0980  0.00  0.00     0.000 O
ATOM      9  HD  BGC B   1      17.304  11.406  -8.1470  0.00  0.00     0.000 HD
ATOM      9   O  BGC B   1      17.614  12.306 -10.5160  0.00  0.00     0.000 O
ATOM     11  HD  BGC B   1      18.475  12.388 -10.5640  0.00  0.00     0.000 HD
ATOM     11   O  BGC B   1      16.120  14.438 -11.7340  0.00  0.00     0.000 O
ATOM     13  HD  BGC B   1      16.980  14.520 -11.7820  0.00  0.00     0.000 HD
ATOM     13   C  BGC B   1      13.177  14.353 -11.5320  0.00  0.00     0.000 C
ATOM     14   O  BGC B   1      12.931  13.492 -12.6390  0.00  0.00     0.000 O
ATOM     16  HD  BGC B   1      13.791  13.574 -12.6870  0.00  0.00     0.000 HD
ENDROOT
BRANCH 1 16
ATOM     16  O4  BGC B   2      13.598  10.950  -8.3870  0.00  0.00     0.000 O
BRANCH 16 20
ATOM     17  C1  BGC B   2      10.957   9.759  -5.5340  0.00  0.00     0.000 C
ATOM     18  C2  BGC B   2      10.296  10.225  -6.8220  0.00  0.00     0.000 C
ATOM     19  C3  BGC B   2      11.359  10.292  -7.9160  0.00  0.00     0.000 C
ATOM     20  C4  BGC B   2      12.526  11.148  -7.4690  0.00  0.00     0.000 C
ATOM     21  C5  BGC B   2      13.035  10.761  -6.0800  0.00  0.00     0.000 C
ATOM     22  O5  BGC B   2      11.926  10.761  -5.1720  0.00  0.00     0.000 O
ATOM     23   O  BGC B   2       9.273   9.296  -7.2170  0.00  0.00     0.000 O
ATOM     25  HD  BGC B   2      10.082   9.443  -7.4880  0.00  0.00     0.000 HD
ATOM     25   O  BGC B   2      10.793  10.816  -9.1110  0.00  0.00     0.000 O
ATOM     27  HD  BGC B   2      11.602  10.963  -9.3830  0.00  0.00     0.000 HD
ATOM     27   C  BGC B   2      14.078  11.730  -5.5380  0.00  0.00     0.000 C
ATOM     28   O  BGC B   2      13.627  13.074  -5.4910  0.00  0.00     0.000 O
ATOM     30  HD  BGC B   2      14.436  13.221  -5.7620  0.00  0.00     0.000 HD
BRANCH 17 30
ATOM     30  O4  BGC B   3       9.969   9.818  -4.5220  0.00  0.00     0.000 O
BRANCH 30 34
ATOM     31  C1  BGC B   3       8.630   7.661  -1.2860  0.00  0.00     0.000 C
ATOM     32  C2  BGC B   3      10.047   8.213  -1.1370  0.00  0.00     0.000 C
ATOM     33  C3  BGC B   3      10.265   9.293  -2.1830  0.00  0.00     0.000 C
ATOM     34  C4  BGC B   3       9.978   8.742  -3.5790  0.00  0.00     0.000 C
ATOM     35  C5  BGC B   3       8.612   8.081  -3.6160  0.00  0.00     0.000 C
ATOM     36  O5  BGC B   3       8.532   7.094  -2.5820  0.00  0.00     0.000 O
ATOM     37   O  BGC B   3      10.197   8.798   0.1540  0.00  0.00     0.000 O
ATOM     39  HD  BGC B   3      11.046   8.873   0.0030  0.00  0.00     0.000 HD
ATOM     39   O  BGC B   3      11.607   9.745  -2.0890  0.00  0.00     0.000 O
ATOM     41  HD  BGC B   3      12.457   9.820  -2.2400  0.00  0.00     0.000 HD
ATOM     41   C  BGC B   3       8.278   7.421  -4.9490  0.00  0.00     0.000 C
ATOM     42   O  BGC B   3       9.251   6.455  -5.2700  0.00  0.00     0.000 O
ATOM     44  HD  BGC B   3      10.101   6.530  -5.4210  0.00  0.00     0.000 HD
BRANCH 31 44
ATOM     44  O4  BGC B   4       8.500   6.599  -0.3750  0.00  0.00     0.000 O
BRANCH 44 48
ATOM     45  C1  BGC B   4       5.784   4.919   2.1950  0.00  0.00     0.000 C
ATOM     46  C2  BGC B   4       5.328   4.994   0.7440  0.00  0.00     0.000 C
ATOM     47  C3  BGC B   4       6.520   5.250  -0.1450  0.00  0.00     0.000 C
ATOM     48  C4  BGC B   4       7.280   6.493   0.3290  0.00  0.00     0.000 C
ATOM     49  C5  BGC B   4       7.612   6.384   1.8230  0.00  0.00     0.000 C
ATOM     50  O5  BGC B   4       6.411   6.146   2.5710  0.00  0.00     0.000 O
ATOM     51   O  BGC B   4       4.711   3.752   0.3560  0.00  0.00     0.000 O
ATOM     53  HD  BGC B   4       5.483   3.645  -0.0220  0.00  0.00     0.000 HD
ATOM     53   O  BGC B   4       6.060   5.448  -1.4890  0.00  0.00     0.000 O
ATOM     55  HD  BGC B   4       6.831   5.342  -1.8680  0.00  0.00     0.000 HD
ATOM     55   C  BGC B   4       8.264   7.622   2.4120  0.00  0.00     0.000 C
ATOM     56   O  BGC B   4       7.411   8.735   2.1410  0.00  0.00     0.000 O
ATOM     58  HD  BGC B   4       8.182   8.628   1.7630  0.00  0.00     0.000 HD
BRANCH 45 58
ATOM     58  O4  BGC B   5       4.592   4.936   2.9800  0.00  0.00     0.000 O
BRANCH 58 62
ATOM     59  C1  BGC B   5       2.754   2.962   6.1220  0.00  0.00     0.000 C
ATOM     60  C2  BGC B   5       3.848   3.934   6.5160  0.00  0.00     0.000 C
ATOM     61  C3  BGC B   5       4.153   4.883   5.3730  0.00  0.00     0.000 C
ATOM     62  C4  BGC B   5       4.483   4.084   4.1230  0.00  0.00     0.000 C
ATOM     63  C5  BGC B   5       3.375   3.064   3.8250  0.00  0.00     0.000 C
ATOM     64  O5  BGC B   5       3.191   2.237   4.9690  0.00  0.00     0.000 O
ATOM     65   O  BGC B   5       4.925   1.525   2.9740  0.00  0.00     0.000 O
ATOM     67  HD  BGC B   5       5.724   1.482   2.6410  0.00  0.00     0.000 HD
ATOM     67   O  BGC B   5       4.925   1.525   2.9740  0.00  0.00     0.000 O
ATOM     69  HD  BGC B   5       5.724   1.482   2.6410  0.00  0.00     0.000 HD
ENDBRANCH 58 62
ENDBRANCH 45 58
ENDBRANCH 44 48
ENDBRANCH 31 44
ENDBRANCH 30 34
ENDBRANCH 17 30
ENDBRANCH 16 20
ENDBRANCH 1 16
TORSDOF 8
ENDMDL
MODEL 49
REMARK VINA RESULT:      -5.3     15.697     19.241
ROOT
ATOM      1  C1  BGC B   1      12.410  -0.352 -26.2490  0.00  0.00     0.000 C
ATOM      2  C2  BGC B   1      13.087   0.900 -26.8040  0.00  0.00     0.000 C
ATOM      3  C3  BGC B   1      14.130   1.406 -25.8260  0.00  0.00     0.000 C
ATOM      4  C4  BGC B   1      13.528   1.572 -24.4360  0.00  0.00     0.000 C
ATOM      5  C5  BGC B   1      12.910   0.247 -24.0160  0.00  0.00     0.000 C
ATOM      6  O5  BGC B   1      11.873  -0.063 -24.9650  0.00  0.00     0.000 O
ATOM      7   O  BGC B   1      13.725   0.578 -28.0510  0.00  0.00     0.000 O
ATOM      9  HD  BGC B   1      14.416   1.046 -28.2830  0.00  0.00     0.000 HD
ATOM      9   O  BGC B   1      14.652   2.647 -26.3080  0.00  0.00     0.000 O
ATOM     11  HD  BGC B   1      15.343   3.116 -26.5390  0.00  0.00     0.000 HD
ATOM     11   O  BGC B   1      14.540   1.942 -23.5240  0.00  0.00     0.000 O
ATOM     13  HD  BGC B   1      15.230   2.410 -23.7550  0.00  0.00     0.000 HD
ATOM     13   C  BGC B   1      12.306   0.238 -22.6190  0.00  0.00     0.000 C
ATOM     14   O  BGC B   1      11.337   1.267 -22.4410  0.00  0.00     0.000 O
ATOM     16  HD  BGC B   1      12.028   1.735 -22.6720  0.00  0.00     0.000 HD
ENDROOT
BRANCH 1 16
ATOM     16  O4  BGC B   2      11.276  -0.594 -27.0800  0.00  0.00     0.000 O
BRANCH 16 20
ATOM     17  C1  BGC B   2       8.432  -3.397 -27.8450  0.00  0.00     0.000 C
ATOM     18  C2  BGC B   2       8.186  -2.610 -26.5660  0.00  0.00     0.000 C
ATOM     19  C3  BGC B   2       9.084  -1.375 -26.5770  0.00  0.00     0.000 C
ATOM     20  C4  BGC B   2      10.530  -1.774 -26.7960  0.00  0.00     0.000 C
ATOM     21  C5  BGC B   2      10.699  -2.721 -27.9840  0.00  0.00     0.000 C
ATOM     22  O5  BGC B   2       9.805  -3.828 -27.8160  0.00  0.00     0.000 O
ATOM     23   O  BGC B   2       6.813  -2.192 -26.5000  0.00  0.00     0.000 O
ATOM     25  HD  BGC B   2       7.551  -1.785 -26.6990  0.00  0.00     0.000 HD
ATOM     25   O  BGC B   2       8.949  -0.667 -25.3500  0.00  0.00     0.000 O
ATOM     27  HD  BGC B   2       9.687  -0.261 -25.5490  0.00  0.00     0.000 HD
ATOM     27   C  BGC B   2      12.112  -3.279 -28.1020  0.00  0.00     0.000 C
ATOM     28   O  BGC B   2      12.552  -3.947 -26.9300  0.00  0.00     0.000 O
ATOM     30  HD  BGC B   2      13.291  -3.541 -27.1300  0.00  0.00     0.000 HD
BRANCH 17 30
ATOM     30  O4  BGC B   3       7.669  -4.585 -27.7470  0.00  0.00     0.000 O
BRANCH 30 34
ATOM     31  C1  BGC B   3       5.788  -7.328 -30.1690  0.00  0.00     0.000 C
ATOM     32  C2  BGC B   3       7.252  -7.069 -30.5210  0.00  0.00     0.000 C
ATOM     33  C3  BGC B   3       7.924  -6.375 -29.3500  0.00  0.00     0.000 C
ATOM     34  C4  BGC B   3       7.162  -5.103 -28.9810  0.00  0.00     0.000 C
ATOM     35  C5  BGC B   3       5.688  -5.408 -28.7850  0.00  0.00     0.000 C
ATOM     36  O5  BGC B   3       5.178  -6.065 -29.9510  0.00  0.00     0.000 O
ATOM     37   O  BGC B   3       7.913  -8.312 -30.7490  0.00  0.00     0.000 O
ATOM     39  HD  BGC B   3       8.601  -7.874 -31.0410  0.00  0.00     0.000 HD
ATOM     39   O  BGC B   3       9.262  -6.070 -29.7140  0.00  0.00     0.000 O
ATOM     41  HD  BGC B   3       9.950  -5.632 -30.0060  0.00  0.00     0.000 HD
ATOM     41   C  BGC B   3       4.832  -4.178 -28.5040  0.00  0.00     0.000 C
ATOM     42   O  BGC B   3       4.961  -3.247 -29.5520  0.00  0.00     0.000 O
ATOM     44  HD  BGC B   3       5.649  -2.809 -29.8440  0.00  0.00     0.000 HD
BRANCH 31 44
ATOM     44  O4  BGC B   4       5.177  -7.875 -31.3090  0.00  0.00     0.000 O
BRANCH 44 48
ATOM     45  C1  BGC B   4       2.321 -10.608 -32.3960  0.00  0.00     0.000 C
ATOM     46  C2  BGC B   4       1.799  -9.426 -31.5920  0.00  0.00     0.000 C
ATOM     47  C3  BGC B   4       2.828  -8.322 -31.5930  0.00  0.00     0.000 C
ATOM     48  C4  BGC B   4       4.179  -8.855 -31.1040  0.00  0.00     0.000 C
ATOM     49  C5  BGC B   4       4.585 -10.104 -31.8970  0.00  0.00     0.000 C
ATOM     50  O5  BGC B   4       3.540 -11.085 -31.8230  0.00  0.00     0.000 O
ATOM     51   O  BGC B   4       0.579  -8.931 -32.1760  0.00  0.00     0.000 O
ATOM     53  HD  BGC B   4       1.127  -8.329 -32.4710  0.00  0.00     0.000 HD
ATOM     53   O  BGC B   4       2.380  -7.271 -30.7260  0.00  0.00     0.000 O
ATOM     55  HD  BGC B   4       2.928  -6.668 -31.0210  0.00  0.00     0.000 HD
ATOM     55   C  BGC B   4       5.857 -10.772 -31.4060  0.00  0.00     0.000 C
ATOM     56   O  BGC B   4       5.690 -11.059 -30.0160  0.00  0.00     0.000 O
ATOM     58  HD  BGC B   4       6.237 -10.457 -30.3110  0.00  0.00     0.000 HD
BRANCH 45 58
ATOM     58  O4  BGC B   5       1.423 -11.686 -32.1350  0.00  0.00     0.000 O
BRANCH 58 62
ATOM     59  C1  BGC B   5      -0.501 -14.859 -33.9720  0.00  0.00     0.000 C
ATOM     60  C2  BGC B   5       1.012 -14.880 -34.0550  0.00  0.00     0.000 C
ATOM     61  C3  BGC B   5       1.615 -13.942 -33.0270  0.00  0.00     0.000 C
ATOM     62  C4  BGC B   5       1.024 -12.552 -33.2000  0.00  0.00     0.000 C
ATOM     63  C5  BGC B   5      -0.510 -12.610 -33.1870  0.00  0.00     0.000 C
ATOM     64  O5  BGC B   5      -0.945 -13.517 -34.1950  0.00  0.00     0.000 O
ATOM     65   O  BGC B   5      -0.658 -10.846 -34.7240  0.00  0.00     0.000 O
ATOM     67  HD  BGC B   5      -0.202 -10.178 -35.0340  0.00  0.00     0.000 HD
ATOM     67   O  BGC B   5      -0.658 -10.846 -34.7240  0.00  0.00     0.000 O
ATOM     69  HD  BGC B   5      -0.202 -10.178 -35.0340  0.00  0.00     0.000 HD
ENDBRANCH 58 62
ENDBRANCH 45 58
ENDBRANCH 44 48
ENDBRANCH 31 44
ENDBRANCH 30 34
ENDBRANCH 17 30
ENDBRANCH 16 20
ENDBRANCH 1 16
TORSDOF 8
ENDMDL
MODEL 50
REMARK VINA RESULT:      -5.2      1.760      2.598
ROOT
ATOM      1  C1  BGC B   1      19.668   3.961 -13.6500  0.00  0.00     0.000 C
ATOM      2  C2  BGC B   1      19.588   5.481 -13.5230  0.00  0.00     0.000 C
ATOM      3  C3  BGC B   1      19.912   6.134 -14.8530  0.00  0.00     0.000 C
ATOM      4  C4  BGC B   1      21.234   5.611 -15.4010  0.00  0.00     0.000 C
ATOM      5  C5  BGC B   1      21.155   4.094 -15.4840  0.00  0.00     0.000 C
ATOM      6  O5  BGC B   1      20.949   3.600 -14.1480  0.00  0.00     0.000 O
ATOM      7   O  BGC B   1      18.257   5.853 -13.1250  0.00  0.00     0.000 O
ATOM      9  HD  BGC B   1      17.970   6.635 -13.3610  0.00  0.00     0.000 HD
ATOM      9   O  BGC B   1      19.960   7.552 -14.6730  0.00  0.00     0.000 O
ATOM     11  HD  BGC B   1      19.673   8.335 -14.9080  0.00  0.00     0.000 HD
ATOM     11   O  BGC B   1      21.461   6.152 -16.6850  0.00  0.00     0.000 O
ATOM     13  HD  BGC B   1      21.174   6.934 -16.9210  0.00  0.00     0.000 HD
ATOM     13   C  BGC B   1      22.391   3.421 -16.0640  0.00  0.00     0.000 C
ATOM     14   O  BGC B   1      23.580   3.775 -15.3640  0.00  0.00     0.000 O
ATOM     16  HD  BGC B   1      23.293   4.557 -15.6000  0.00  0.00     0.000 HD
ENDROOT
BRANCH 1 16
ATOM     16  O4  BGC B   2      19.628   3.447 -12.3210  0.00  0.00     0.000 O
BRANCH 16 20
ATOM     17  C1  BGC B   2      18.499  -0.283 -13.4840  0.00  0.00     0.000 C
ATOM     18  C2  BGC B   2      17.332   0.669 -13.2660  0.00  0.00     0.000 C
ATOM     19  C3  BGC B   2      17.875   2.094 -13.1970  0.00  0.00     0.000 C
ATOM     20  C4  BGC B   2      18.966   2.196 -12.1510  0.00  0.00     0.000 C
ATOM     21  C5  BGC B   2      20.020   1.097 -12.2990  0.00  0.00     0.000 C
ATOM     22  O5  BGC B   2      19.354  -0.171 -12.3300  0.00  0.00     0.000 O
ATOM     23   O  BGC B   2      16.405   0.571 -14.3590  0.00  0.00     0.000 O
ATOM     25  HD  BGC B   2      17.014   1.147 -14.1440  0.00  0.00     0.000 HD
ATOM     25   O  BGC B   2      16.820   3.001 -12.8990  0.00  0.00     0.000 O
ATOM     27  HD  BGC B   2      17.430   3.577 -12.6830  0.00  0.00     0.000 HD
ATOM     27   C  BGC B   2      21.015   1.070 -11.1460  0.00  0.00     0.000 C
ATOM     28   O  BGC B   2      20.401   0.934  -9.8750  0.00  0.00     0.000 O
ATOM     30  HD  BGC B   2      21.011   1.510  -9.6600  0.00  0.00     0.000 HD
BRANCH 17 30
ATOM     30  O4  BGC B   3      17.973  -1.595 -13.4280  0.00  0.00     0.000 O
BRANCH 30 34
ATOM     31  C1  BGC B   3      18.597  -5.310 -15.0830  0.00  0.00     0.000 C
ATOM     32  C2  BGC B   3      19.676  -4.866 -14.0960  0.00  0.00     0.000 C
ATOM     33  C3  BGC B   3      19.143  -3.703 -13.2770  0.00  0.00     0.000 C
ATOM     34  C4  BGC B   3      18.672  -2.579 -14.1980  0.00  0.00     0.000 C
ATOM     35  C5  BGC B   3      17.712  -3.119 -15.2430  0.00  0.00     0.000 C
ATOM     36  O5  BGC B   3      18.328  -4.209 -15.9370  0.00  0.00     0.000 O
ATOM     37   O  BGC B   3      19.982  -5.940 -13.2100  0.00  0.00     0.000 O
ATOM     39  HD  BGC B   3      20.651  -5.480 -12.9100  0.00  0.00     0.000 HD
ATOM     39   O  BGC B   3      20.178  -3.248 -12.4180  0.00  0.00     0.000 O
ATOM     41  HD  BGC B   3      20.847  -2.788 -12.1180  0.00  0.00     0.000 HD
ATOM     41   C  BGC B   3      17.261  -2.081 -16.2650  0.00  0.00     0.000 C
ATOM     42   O  BGC B   3      18.377  -1.531 -16.9240  0.00  0.00     0.000 O
ATOM     44  HD  BGC B   3      19.046  -1.072 -16.6240  0.00  0.00     0.000 HD
BRANCH 31 44
ATOM     44  O4  BGC B   4      19.158  -6.313 -15.8890  0.00  0.00     0.000 O
BRANCH 44 48
ATOM     45  C1  BGC B   4      18.030  -9.333 -18.4220  0.00  0.00     0.000 C
ATOM     46  C2  BGC B   4      18.007  -7.941 -19.0390  0.00  0.00     0.000 C
ATOM     47  C3  BGC B   4      18.797  -6.993 -18.1700  0.00  0.00     0.000 C
ATOM     48  C4  BGC B   4      18.283  -7.039 -16.7280  0.00  0.00     0.000 C
ATOM     49  C5  BGC B   4      18.241  -8.485 -16.2170  0.00  0.00     0.000 C
ATOM     50  O5  BGC B   4      17.463  -9.293 -17.1120  0.00  0.00     0.000 O
ATOM     51   O  BGC B   4      18.594  -7.974 -20.3530  0.00  0.00     0.000 O
ATOM     53  HD  BGC B   4      19.259  -7.633 -19.9150  0.00  0.00     0.000 HD
ATOM     53   O  BGC B   4      18.658  -5.663 -18.6910  0.00  0.00     0.000 O
ATOM     55  HD  BGC B   4      19.322  -5.322 -18.2530  0.00  0.00     0.000 HD
ATOM     55   C  BGC B   4      17.634  -8.644 -14.8340  0.00  0.00     0.000 C
ATOM     56   O  BGC B   4      16.333  -8.054 -14.8590  0.00  0.00     0.000 O
ATOM     58  HD  BGC B   4      16.997  -7.713 -14.4210  0.00  0.00     0.000 HD
BRANCH 45 58
ATOM     58  O4  BGC B   5      17.066 -10.097 -19.1450  0.00  0.00     0.000 O
BRANCH 58 62
ATOM     59  C1  BGC B   5      16.240 -14.149 -19.3630  0.00  0.00     0.000 C
ATOM     60  C2  BGC B   5      15.091 -13.275 -18.9020  0.00  0.00     0.000 C
ATOM     61  C3  BGC B   5      15.353 -11.822 -19.2510  0.00  0.00     0.000 C
ATOM     62  C4  BGC B   5      16.696 -11.397 -18.6800  0.00  0.00     0.000 C
ATOM     63  C5  BGC B   5      17.803 -12.367 -19.1190  0.00  0.00     0.000 C
ATOM     64  O5  BGC B   5      17.438 -13.687 -18.7300  0.00  0.00     0.000 O
ATOM     65   O  BGC B   5      18.941 -12.094 -17.0880  0.00  0.00     0.000 O
ATOM     67  HD  BGC B   5      19.015 -11.545 -16.4220  0.00  0.00     0.000 HD
ATOM     67   O  BGC B   5      18.941 -12.094 -17.0880  0.00  0.00     0.000 O
ATOM     69  HD  BGC B   5      19.015 -11.545 -16.4220  0.00  0.00     0.000 HD
ENDBRANCH 58 62
ENDBRANCH 45 58
ENDBRANCH 44 48
ENDBRANCH 31 44
ENDBRANCH 30 34
ENDBRANCH 17 30
ENDBRANCH 16 20
ENDBRANCH 1 16
TORSDOF 8
ENDMDL
MODEL 51
REMARK VINA RESULT:      -5.2     28.089     29.996
ROOT
ATOM      1  C1  BGC B   1      -4.762 -19.327  -7.5090  0.00  0.00     0.000 C
ATOM      2  C2  BGC B   1      -3.808 -18.379  -6.7830  0.00  0.00     0.000 C
ATOM      3  C3  BGC B   1      -4.467 -17.836  -5.5290  0.00  0.00     0.000 C
ATOM      4  C4  BGC B   1      -5.832 -17.241  -5.8510  0.00  0.00     0.000 C
ATOM      5  C5  BGC B   1      -6.667 -18.303  -6.5530  0.00  0.00     0.000 C
ATOM      6  O5  BGC B   1      -5.984 -18.652  -7.7710  0.00  0.00     0.000 O
ATOM      7   O  BGC B   1      -2.616 -19.094  -6.4200  0.00  0.00     0.000 O
ATOM      9  HD  BGC B   1      -2.177 -18.819  -5.7260  0.00  0.00     0.000 HD
ATOM      9   O  BGC B   1      -3.607 -16.854  -4.9440  0.00  0.00     0.000 O
ATOM     11  HD  BGC B   1      -3.169 -16.579  -4.2500  0.00  0.00     0.000 HD
ATOM     11   O  BGC B   1      -6.467 -16.841  -4.6570  0.00  0.00     0.000 O
ATOM     13  HD  BGC B   1      -6.029 -16.566  -3.9630  0.00  0.00     0.000 HD
ATOM     13   C  BGC B   1      -8.085 -17.874  -6.8990  0.00  0.00     0.000 C
ATOM     14   O  BGC B   1      -8.116 -16.683  -7.6800  0.00  0.00     0.000 O
ATOM     16  HD  BGC B   1      -7.678 -16.408  -6.9860  0.00  0.00     0.000 HD
ENDROOT
BRANCH 1 16
ATOM     16  O4  BGC B   2      -4.187 -19.566  -8.7920  0.00  0.00     0.000 O
BRANCH 16 20
ATOM     17  C1  BGC B   2      -3.654 -22.487 -11.5700  0.00  0.00     0.000 C
ATOM     18  C2  BGC B   2      -5.113 -22.122 -11.3380  0.00  0.00     0.000 C
ATOM     19  C3  BGC B   2      -5.167 -20.801 -10.5760  0.00  0.00     0.000 C
ATOM     20  C4  BGC B   2      -4.337 -20.884  -9.3110  0.00  0.00     0.000 C
ATOM     21  C5  BGC B   2      -2.935 -21.438  -9.5700  0.00  0.00     0.000 C
ATOM     22  O5  BGC B   2      -3.058 -22.680 -10.2740  0.00  0.00     0.000 O
ATOM     23   O  BGC B   2      -5.790 -21.967 -12.5970  0.00  0.00     0.000 O
ATOM     25  HD  BGC B   2      -5.477 -21.407 -12.0140  0.00  0.00     0.000 HD
ATOM     25   O  BGC B   2      -6.517 -20.479 -10.2590  0.00  0.00     0.000 O
ATOM     27  HD  BGC B   2      -6.204 -19.920  -9.6760  0.00  0.00     0.000 HD
ATOM     27   C  BGC B   2      -2.156 -21.705  -8.2890  0.00  0.00     0.000 C
ATOM     28   O  BGC B   2      -2.825 -22.582  -7.3960  0.00  0.00     0.000 O
ATOM     30  HD  BGC B   2      -2.513 -22.022  -6.8140  0.00  0.00     0.000 HD
BRANCH 17 30
ATOM     30  O4  BGC B   3      -3.643 -23.766 -12.1760  0.00  0.00     0.000 O
BRANCH 30 34
ATOM     31  C1  BGC B   3      -0.974 -26.675 -13.3310  0.00  0.00     0.000 C
ATOM     32  C2  BGC B   3      -1.178 -26.565 -11.8210  0.00  0.00     0.000 C
ATOM     33  C3  BGC B   3      -2.442 -25.767 -11.5530  0.00  0.00     0.000 C
ATOM     34  C4  BGC B   3      -2.367 -24.409 -12.2490  0.00  0.00     0.000 C
ATOM     35  C5  BGC B   3      -2.020 -24.586 -13.7170  0.00  0.00     0.000 C
ATOM     36  O5  BGC B   3      -0.819 -25.357 -13.8330  0.00  0.00     0.000 O
ATOM     37   O  BGC B   3      -1.341 -27.869 -11.2660  0.00  0.00     0.000 O
ATOM     39  HD  BGC B   3      -1.289 -27.521 -10.4750  0.00  0.00     0.000 HD
ATOM     39   O  BGC B   3      -2.582 -25.603 -10.1490  0.00  0.00     0.000 O
ATOM     41  HD  BGC B   3      -2.529 -25.255  -9.3580  0.00  0.00     0.000 HD
ATOM     41   C  BGC B   3      -1.833 -23.274 -14.4720  0.00  0.00     0.000 C
ATOM     42   O  BGC B   3      -0.825 -22.503 -13.8640  0.00  0.00     0.000 O
ATOM     44  HD  BGC B   3      -0.773 -22.155 -13.0720  0.00  0.00     0.000 HD
BRANCH 31 44
ATOM     44  O4  BGC B   4       0.253 -27.328 -13.5380  0.00  0.00     0.000 O
BRANCH 44 48
ATOM     45  C1  BGC B   4       2.113 -29.861 -16.1700  0.00  0.00     0.000 C
ATOM     46  C2  BGC B   4       1.668 -28.533 -16.7680  0.00  0.00     0.000 C
ATOM     47  C3  BGC B   4       1.370 -27.556 -15.6580  0.00  0.00     0.000 C
ATOM     48  C4  BGC B   4       0.362 -28.160 -14.6750  0.00  0.00     0.000 C
ATOM     49  C5  BGC B   4       0.834 -29.539 -14.1980  0.00  0.00     0.000 C
ATOM     50  O5  BGC B   4       1.082 -30.385 -15.3310  0.00  0.00     0.000 O
ATOM     51   O  BGC B   4       2.712 -27.994 -17.6020  0.00  0.00     0.000 O
ATOM     53  HD  BGC B   4       2.825 -27.497 -16.9010  0.00  0.00     0.000 HD
ATOM     53   O  BGC B   4       0.829 -26.357 -16.2310  0.00  0.00     0.000 O
ATOM     55  HD  BGC B   4       0.942 -25.861 -15.5300  0.00  0.00     0.000 HD
ATOM     55   C  BGC B   4      -0.157 -30.269 -13.3090  0.00  0.00     0.000 C
ATOM     56   O  BGC B   4      -1.397 -30.349 -14.0130  0.00  0.00     0.000 O
ATOM     58  HD  BGC B   4      -1.284 -29.853 -13.3130  0.00  0.00     0.000 HD
BRANCH 45 58
ATOM     58  O4  BGC B   5       2.124 -30.792 -17.2520  0.00  0.00     0.000 O
BRANCH 58 62
ATOM     59  C1  BGC B   5       4.695 -33.554 -18.9570  0.00  0.00     0.000 C
ATOM     60  C2  BGC B   5       3.662 -34.127 -18.0080  0.00  0.00     0.000 C
ATOM     61  C3  BGC B   5       2.542 -33.132 -17.7760  0.00  0.00     0.000 C
ATOM     62  C4  BGC B   5       3.126 -31.811 -17.3000  0.00  0.00     0.000 C
ATOM     63  C5  BGC B   5       4.220 -31.326 -18.2620  0.00  0.00     0.000 C
ATOM     64  O5  BGC B   5       5.207 -32.345 -18.3880  0.00  0.00     0.000 O
ATOM     65   O  BGC B   5       5.442 -30.376 -16.5000  0.00  0.00     0.000 O
ATOM     67  HD  BGC B   5       5.346 -30.086 -15.6900  0.00  0.00     0.000 HD
ATOM     67   O  BGC B   5       5.442 -30.376 -16.5000  0.00  0.00     0.000 O
ATOM     69  HD  BGC B   5       5.346 -30.086 -15.6900  0.00  0.00     0.000 HD
ENDBRANCH 58 62
ENDBRANCH 45 58
ENDBRANCH 44 48
ENDBRANCH 31 44
ENDBRANCH 30 34
ENDBRANCH 17 30
ENDBRANCH 16 20
ENDBRANCH 1 16
TORSDOF 8
ENDMDL
MODEL 52
REMARK VINA RESULT:      -5.2     23.513     25.441
ROOT
ATOM      1  C1  BGC B   1      -5.055  -3.934 -21.7720  0.00  0.00     0.000 C
ATOM      2  C2  BGC B   1      -4.052  -2.880 -21.3070  0.00  0.00     0.000 C
ATOM      3  C3  BGC B   1      -4.641  -1.492 -21.4700  0.00  0.00     0.000 C
ATOM      4  C4  BGC B   1      -5.163  -1.291 -22.8870  0.00  0.00     0.000 C
ATOM      5  C5  BGC B   1      -6.157  -2.401 -23.1970  0.00  0.00     0.000 C
ATOM      6  O5  BGC B   1      -5.447  -3.650 -23.1080  0.00  0.00     0.000 O
ATOM      7   O  BGC B   1      -3.740  -3.102 -19.9220  0.00  0.00     0.000 O
ATOM      9  HD  BGC B   1      -3.500  -2.417 -19.4490  0.00  0.00     0.000 HD
ATOM      9   O  BGC B   1      -3.636  -0.523 -21.1550  0.00  0.00     0.000 O
ATOM     11  HD  BGC B   1      -3.396   0.161 -20.6820  0.00  0.00     0.000 HD
ATOM     11   O  BGC B   1      -5.800  -0.035 -22.9840  0.00  0.00     0.000 O
ATOM     13  HD  BGC B   1      -5.559   0.649 -22.5110  0.00  0.00     0.000 HD
ATOM     13   C  BGC B   1      -6.808  -2.311 -24.5690  0.00  0.00     0.000 C
ATOM     14   O  BGC B   1      -5.850  -2.254 -25.6220  0.00  0.00     0.000 O
ATOM     16  HD  BGC B   1      -5.610  -1.570 -25.1490  0.00  0.00     0.000 HD
ENDROOT
BRANCH 1 16
ATOM     16  O4  BGC B   2      -4.335  -5.163 -21.8490  0.00  0.00     0.000 O
BRANCH 16 20
ATOM     17  C1  BGC B   2      -4.741  -9.157 -21.2010  0.00  0.00     0.000 C
ATOM     18  C2  BGC B   2      -5.601  -8.632 -22.3410  0.00  0.00     0.000 C
ATOM     19  C3  BGC B   2      -5.103  -7.240 -22.7230  0.00  0.00     0.000 C
ATOM     20  C4  BGC B   2      -5.064  -6.339 -21.5060  0.00  0.00     0.000 C
ATOM     21  C5  BGC B   2      -4.350  -6.991 -20.3210  0.00  0.00     0.000 C
ATOM     22  O5  BGC B   2      -4.941  -8.274 -20.0810  0.00  0.00     0.000 O
ATOM     23   O  BGC B   2      -5.493  -9.500 -23.4810  0.00  0.00     0.000 O
ATOM     25  HD  BGC B   2      -5.150  -8.729 -23.2830  0.00  0.00     0.000 HD
ATOM     25   O  BGC B   2      -5.947  -6.681 -23.7230  0.00  0.00     0.000 O
ATOM     27  HD  BGC B   2      -5.605  -5.911 -23.5240  0.00  0.00     0.000 HD
ATOM     27   C  BGC B   2      -4.467  -6.179 -19.0370  0.00  0.00     0.000 C
ATOM     28   O  BGC B   2      -5.808  -5.912 -18.6600  0.00  0.00     0.000 O
ATOM     30  HD  BGC B   2      -5.465  -5.142 -18.4620  0.00  0.00     0.000 HD
BRANCH 17 30
ATOM     30  O4  BGC B   3      -5.301 -10.393 -20.8010  0.00  0.00     0.000 O
BRANCH 30 34
ATOM     31  C1  BGC B   3      -4.133 -14.108 -19.4730  0.00  0.00     0.000 C
ATOM     32  C2  BGC B   3      -3.705 -12.949 -18.5730  0.00  0.00     0.000 C
ATOM     33  C3  BGC B   3      -4.515 -11.718 -18.9390  0.00  0.00     0.000 C
ATOM     34  C4  BGC B   3      -4.364 -11.409 -20.4280  0.00  0.00     0.000 C
ATOM     35  C5  BGC B   3      -4.666 -12.645 -21.2570  0.00  0.00     0.000 C
ATOM     36  O5  BGC B   3      -3.847 -13.730 -20.8100  0.00  0.00     0.000 O
ATOM     37   O  BGC B   3      -3.975 -13.278 -17.2120  0.00  0.00     0.000 O
ATOM     39  HD  BGC B   3      -3.535 -12.573 -16.9710  0.00  0.00     0.000 HD
ATOM     39   O  BGC B   3      -4.058 -10.628 -18.1530  0.00  0.00     0.000 O
ATOM     41  HD  BGC B   3      -3.618  -9.922 -17.9120  0.00  0.00     0.000 HD
ATOM     41   C  BGC B   3      -4.451 -12.454 -22.7550  0.00  0.00     0.000 C
ATOM     42   O  BGC B   3      -3.124 -12.059 -23.0080  0.00  0.00     0.000 O
ATOM     44  HD  BGC B   3      -2.684 -11.353 -22.7670  0.00  0.00     0.000 HD
BRANCH 31 44
ATOM     44  O4  BGC B   4      -3.295 -15.195 -19.1760  0.00  0.00     0.000 O
BRANCH 44 48
ATOM     45  C1  BGC B   4      -3.068 -19.242 -19.7920  0.00  0.00     0.000 C
ATOM     46  C2  BGC B   4      -2.520 -18.392 -20.9290  0.00  0.00     0.000 C
ATOM     47  C3  BGC B   4      -2.294 -16.982 -20.4410  0.00  0.00     0.000 C
ATOM     48  C4  BGC B   4      -3.576 -16.425 -19.8140  0.00  0.00     0.000 C
ATOM     49  C5  BGC B   4      -4.118 -17.387 -18.7500  0.00  0.00     0.000 C
ATOM     50  O5  BGC B   4      -4.300 -18.690 -19.3230  0.00  0.00     0.000 O
ATOM     51   O  BGC B   4      -1.270 -18.935 -21.3930  0.00  0.00     0.000 O
ATOM     53  HD  BGC B   4      -0.966 -18.276 -20.9210  0.00  0.00     0.000 HD
ATOM     53   O  BGC B   4      -1.904 -16.164 -21.5530  0.00  0.00     0.000 O
ATOM     55  HD  BGC B   4      -1.600 -15.505 -21.0810  0.00  0.00     0.000 HD
ATOM     55   C  BGC B   4      -5.452 -16.975 -18.1530  0.00  0.00     0.000 C
ATOM     56   O  BGC B   4      -6.376 -16.802 -19.2280  0.00  0.00     0.000 O
ATOM     58  HD  BGC B   4      -6.072 -16.142 -18.7560  0.00  0.00     0.000 HD
BRANCH 45 58
ATOM     58  O4  BGC B   5      -3.494 -20.466 -20.3880  0.00  0.00     0.000 O
BRANCH 58 62
ATOM     59  C1  BGC B   5      -3.814 -24.528 -19.6450  0.00  0.00     0.000 C
ATOM     60  C2  BGC B   5      -4.666 -23.637 -18.7640  0.00  0.00     0.000 C
ATOM     61  C3  BGC B   5      -4.797 -22.254 -19.3730  0.00  0.00     0.000 C
ATOM     62  C4  BGC B   5      -3.413 -21.684 -19.6430  0.00  0.00     0.000 C
ATOM     63  C5  BGC B   5      -2.576 -22.668 -20.4720  0.00  0.00     0.000 C
ATOM     64  O5  BGC B   5      -2.528 -23.918 -19.7920  0.00  0.00     0.000 O
ATOM     65   O  BGC B   5      -0.605 -22.013 -19.3850  0.00  0.00     0.000 O
ATOM     67  HD  BGC B   5      -0.270 -21.358 -18.9280  0.00  0.00     0.000 HD
ATOM     67   O  BGC B   5      -0.605 -22.013 -19.3850  0.00  0.00     0.000 O
ATOM     69  HD  BGC B   5      -0.270 -21.358 -18.9280  0.00  0.00     0.000 HD
ENDBRANCH 58 62
ENDBRANCH 45 58
ENDBRANCH 44 48
ENDBRANCH 31 44
ENDBRANCH 30 34
ENDBRANCH 17 30
ENDBRANCH 16 20
ENDBRANCH 1 16
TORSDOF 8
ENDMDL
MODEL 53
REMARK VINA RESULT:      -5.2     26.228     30.436
ROOT
ATOM      1  C1  BGC B   1       2.197 -28.500 -19.7580  0.00  0.00     0.000 C
ATOM      2  C2  BGC B   1       3.252 -29.232 -20.5860  0.00  0.00     0.000 C
ATOM      3  C3  BGC B   1       3.314 -30.691 -20.1790  0.00  0.00     0.000 C
ATOM      4  C4  BGC B   1       3.484 -30.824 -18.6710  0.00  0.00     0.000 C
ATOM      5  C5  BGC B   1       2.358 -30.061 -17.9900  0.00  0.00     0.000 C
ATOM      6  O5  BGC B   1       2.477 -28.680 -18.3770  0.00  0.00     0.000 O
ATOM      7   O  BGC B   1       2.907 -29.143 -21.9780  0.00  0.00     0.000 O
ATOM      9  HD  BGC B   1       3.177 -29.778 -22.5010  0.00  0.00     0.000 HD
ATOM      9   O  BGC B   1       4.396 -31.319 -20.8720  0.00  0.00     0.000 O
ATOM     11  HD  BGC B   1       4.666 -31.955 -21.3950  0.00  0.00     0.000 HD
ATOM     11   O  BGC B   1       3.432 -32.186 -18.3060  0.00  0.00     0.000 O
ATOM     13  HD  BGC B   1       3.702 -32.821 -18.8290  0.00  0.00     0.000 HD
ATOM     13   C  BGC B   1       2.361 -30.139 -16.4700  0.00  0.00     0.000 C
ATOM     14   O  BGC B   1       3.599 -29.715 -15.9080  0.00  0.00     0.000 O
ATOM     16  HD  BGC B   1       3.869 -30.351 -16.4310  0.00  0.00     0.000 HD
ENDROOT
BRANCH 1 16
ATOM     16  O4  BGC B   2       2.396 -27.109 -20.0000  0.00  0.00     0.000 O
BRANCH 16 20
ATOM     17  C1  BGC B   2       0.432 -23.551 -19.8430  0.00  0.00     0.000 C
ATOM     18  C2  BGC B   2       0.921 -24.039 -18.4880  0.00  0.00     0.000 C
ATOM     19  C3  BGC B   2       1.935 -25.159 -18.7130  0.00  0.00     0.000 C
ATOM     20  C4  BGC B   2       1.341 -26.243 -19.5890  0.00  0.00     0.000 C
ATOM     21  C5  BGC B   2       0.691 -25.680 -20.8530  0.00  0.00     0.000 C
ATOM     22  O5  BGC B   2      -0.239 -24.659 -20.4720  0.00  0.00     0.000 O
ATOM     23   O  BGC B   2       1.558 -22.965 -17.7760  0.00  0.00     0.000 O
ATOM     25  HD  BGC B   2       1.856 -23.649 -18.2160  0.00  0.00     0.000 HD
ATOM     25   O  BGC B   2       2.341 -25.703 -17.4620  0.00  0.00     0.000 O
ATOM     27  HD  BGC B   2       2.639 -26.387 -17.9020  0.00  0.00     0.000 HD
ATOM     27   C  BGC B   2      -0.073 -26.731 -21.6480  0.00  0.00     0.000 C
ATOM     28   O  BGC B   2      -1.072 -27.394 -20.8880  0.00  0.00     0.000 O
ATOM     30  HD  BGC B   2      -0.773 -28.077 -21.3280  0.00  0.00     0.000 HD
BRANCH 17 30
ATOM     30  O4  BGC B   3      -0.583 -22.598 -19.5930  0.00  0.00     0.000 O
BRANCH 30 34
ATOM     31  C1  BGC B   3      -2.166 -19.632 -21.9640  0.00  0.00     0.000 C
ATOM     32  C2  BGC B   3      -3.176 -20.682 -21.5030  0.00  0.00     0.000 C
ATOM     33  C3  BGC B   3      -2.579 -21.463 -20.3460  0.00  0.00     0.000 C
ATOM     34  C4  BGC B   3      -1.232 -22.061 -20.7500  0.00  0.00     0.000 C
ATOM     35  C5  BGC B   3      -0.330 -20.987 -21.3320  0.00  0.00     0.000 C
ATOM     36  O5  BGC B   3      -1.009 -20.324 -22.4040  0.00  0.00     0.000 O
ATOM     37   O  BGC B   3      -4.362 -20.035 -21.0470  0.00  0.00     0.000 O
ATOM     39  HD  BGC B   3      -4.748 -20.809 -21.0040  0.00  0.00     0.000 HD
ATOM     39   O  BGC B   3      -3.491 -22.486 -19.9750  0.00  0.00     0.000 O
ATOM     41  HD  BGC B   3      -3.877 -23.260 -19.9320  0.00  0.00     0.000 HD
ATOM     41   C  BGC B   3       1.005 -21.512 -21.8480  0.00  0.00     0.000 C
ATOM     42   O  BGC B   3       0.792 -22.497 -22.8310  0.00  0.00     0.000 O
ATOM     44  HD  BGC B   3       0.406 -23.271 -22.7870  0.00  0.00     0.000 HD
BRANCH 31 44
ATOM     44  O4  BGC B   4      -2.709 -19.002 -23.0960  0.00  0.00     0.000 O
BRANCH 44 48
ATOM     45  C1  BGC B   4      -2.781 -15.337 -24.9310  0.00  0.00     0.000 C
ATOM     46  C2  BGC B   4      -1.546 -16.175 -25.2290  0.00  0.00     0.000 C
ATOM     47  C3  BGC B   4      -1.806 -17.610 -24.8390  0.00  0.00     0.000 C
ATOM     48  C4  BGC B   4      -2.271 -17.689 -23.3820  0.00  0.00     0.000 C
ATOM     49  C5  BGC B   4      -3.452 -16.741 -23.1400  0.00  0.00     0.000 C
ATOM     50  O5  BGC B   4      -3.093 -15.410 -23.5390  0.00  0.00     0.000 O
ATOM     51   O  BGC B   4      -1.238 -16.118 -26.6340  0.00  0.00     0.000 O
ATOM     53  HD  BGC B   4      -1.609 -16.900 -26.6070  0.00  0.00     0.000 HD
ATOM     53   O  BGC B   4      -0.593 -18.360 -25.0020  0.00  0.00     0.000 O
ATOM     55  HD  BGC B   4      -0.964 -19.142 -24.9750  0.00  0.00     0.000 HD
ATOM     55   C  BGC B   4      -3.909 -16.663 -21.6950  0.00  0.00     0.000 C
ATOM     56   O  BGC B   4      -2.776 -16.310 -20.8980  0.00  0.00     0.000 O
ATOM     58  HD  BGC B   4      -3.147 -17.092 -20.8710  0.00  0.00     0.000 HD
BRANCH 45 58
ATOM     58  O4  BGC B   5      -2.375 -13.977 -25.0780  0.00  0.00     0.000 O
BRANCH 58 62
ATOM     59  C1  BGC B   5      -3.508 -10.465 -26.9590  0.00  0.00     0.000 C
ATOM     60  C2  BGC B   5      -4.200 -10.750 -25.6420  0.00  0.00     0.000 C
ATOM     61  C3  BGC B   5      -3.438 -11.799 -24.8550  0.00  0.00     0.000 C
ATOM     62  C4  BGC B   5      -3.249 -13.040 -25.7130  0.00  0.00     0.000 C
ATOM     63  C5  BGC B   5      -2.616 -12.672 -27.0630  0.00  0.00     0.000 C
ATOM     64  O5  BGC B   5      -3.426 -11.688 -27.6980  0.00  0.00     0.000 O
ATOM     65   O  BGC B   5      -3.820 -14.357 -28.1620  0.00  0.00     0.000 O
ATOM     67  HD  BGC B   5      -4.235 -15.102 -28.0100  0.00  0.00     0.000 HD
ATOM     67   O  BGC B   5      -3.820 -14.357 -28.1620  0.00  0.00     0.000 O
ATOM     69  HD  BGC B   5      -4.235 -15.102 -28.0100  0.00  0.00     0.000 HD
ENDBRANCH 58 62
ENDBRANCH 45 58
ENDBRANCH 44 48
ENDBRANCH 31 44
ENDBRANCH 30 34
ENDBRANCH 17 30
ENDBRANCH 16 20
ENDBRANCH 1 16
TORSDOF 8
ENDMDL
MODEL 54
REMARK VINA RESULT:      -5.1     24.937     26.418
ROOT
ATOM      1  C1  BGC B   1      -5.466  -3.952 -26.4900  0.00  0.00     0.000 C
ATOM      2  C2  BGC B   1      -4.669  -2.788 -25.9030  0.00  0.00     0.000 C
ATOM      3  C3  BGC B   1      -5.444  -1.494 -26.0640  0.00  0.00     0.000 C
ATOM      4  C4  BGC B   1      -5.878  -1.301 -27.5110  0.00  0.00     0.000 C
ATOM      5  C5  BGC B   1      -6.668  -2.527 -27.9450  0.00  0.00     0.000 C
ATOM      6  O5  BGC B   1      -5.790  -3.663 -27.8430  0.00  0.00     0.000 O
ATOM      7   O  BGC B   1      -4.438  -3.031 -24.5060  0.00  0.00     0.000 O
ATOM      9  HD  BGC B   1      -4.339  -2.343 -23.9890  0.00  0.00     0.000 HD
ATOM      9   O  BGC B   1      -4.622  -0.407 -25.6290  0.00  0.00     0.000 O
ATOM     11  HD  BGC B   1      -4.524   0.281 -25.1120  0.00  0.00     0.000 HD
ATOM     11   O  BGC B   1      -6.684  -0.148 -27.6150  0.00  0.00     0.000 O
ATOM     13  HD  BGC B   1      -6.586   0.540 -27.0980  0.00  0.00     0.000 HD
ATOM     13   C  BGC B   1      -7.216  -2.465 -29.3630  0.00  0.00     0.000 C
ATOM     14   O  BGC B   1      -6.198  -2.219 -30.3280  0.00  0.00     0.000 O
ATOM     16  HD  BGC B   1      -6.100  -1.531 -29.8110  0.00  0.00     0.000 HD
ENDROOT
BRANCH 1 16
ATOM     16  O4  BGC B   2      -4.568  -5.059 -26.5510  0.00  0.00     0.000 O
BRANCH 16 20
ATOM     17  C1  BGC B   2      -4.448  -9.102 -26.1300  0.00  0.00     0.000 C
ATOM     18  C2  BGC B   2      -5.146  -8.640 -27.4010  0.00  0.00     0.000 C
ATOM     19  C3  BGC B   2      -4.812  -7.167 -27.6290  0.00  0.00     0.000 C
ATOM     20  C4  BGC B   2      -5.151  -6.350 -26.3990  0.00  0.00     0.000 C
ATOM     21  C5  BGC B   2      -4.583  -6.962 -25.1180  0.00  0.00     0.000 C
ATOM     22  O5  BGC B   2      -4.998  -8.332 -25.0440  0.00  0.00     0.000 O
ATOM     23   O  BGC B   2      -4.684  -9.407 -28.5250  0.00  0.00     0.000 O
ATOM     25  HD  BGC B   2      -4.513  -8.608 -28.2370  0.00  0.00     0.000 HD
ATOM     25   O  BGC B   2      -5.527  -6.678 -28.7580  0.00  0.00     0.000 O
ATOM     27  HD  BGC B   2      -5.356  -5.880 -28.4700  0.00  0.00     0.000 HD
ATOM     27   C  BGC B   2      -5.072  -6.260 -23.8570  0.00  0.00     0.000 C
ATOM     28   O  BGC B   2      -6.485  -6.222 -23.7470  0.00  0.00     0.000 O
ATOM     30  HD  BGC B   2      -6.314  -5.424 -23.4590  0.00  0.00     0.000 HD
BRANCH 17 30
ATOM     30  O4  BGC B   3      -4.870 -10.431 -25.8910  0.00  0.00     0.000 O
BRANCH 30 34
ATOM     31  C1  BGC B   3      -3.466 -13.936 -24.2580  0.00  0.00     0.000 C
ATOM     32  C2  BGC B   3      -3.751 -12.832 -23.2410  0.00  0.00     0.000 C
ATOM     33  C3  BGC B   3      -4.618 -11.772 -23.8970  0.00  0.00     0.000 C
ATOM     34  C4  BGC B   3      -3.949 -11.256 -25.1710  0.00  0.00     0.000 C
ATOM     35  C5  BGC B   3      -3.564 -12.417 -26.0720  0.00  0.00     0.000 C
ATOM     36  O5  BGC B   3      -2.759 -13.344 -25.3360  0.00  0.00     0.000 O
ATOM     37   O  BGC B   3      -4.466 -13.378 -22.1340  0.00  0.00     0.000 O
ATOM     39  HD  BGC B   3      -4.355 -12.628 -21.7150  0.00  0.00     0.000 HD
ATOM     39   O  BGC B   3      -4.813 -10.714 -22.9710  0.00  0.00     0.000 O
ATOM     41  HD  BGC B   3      -4.702  -9.964 -22.5510  0.00  0.00     0.000 HD
ATOM     41   C  BGC B   3      -2.807 -12.001 -27.3280  0.00  0.00     0.000 C
ATOM     42   O  BGC B   3      -1.638 -11.297 -26.9800  0.00  0.00     0.000 O
ATOM     44  HD  BGC B   3      -1.527 -10.548 -26.5600  0.00  0.00     0.000 HD
BRANCH 31 44
ATOM     44  O4  BGC B   4      -2.582 -14.843 -23.6510  0.00  0.00     0.000 O
BRANCH 44 48
ATOM     45  C1  BGC B   4      -1.672 -18.840 -23.6090  0.00  0.00     0.000 C
ATOM     46  C2  BGC B   4      -1.174 -18.085 -24.8330  0.00  0.00     0.000 C
ATOM     47  C3  BGC B   4      -1.213 -16.601 -24.5600  0.00  0.00     0.000 C
ATOM     48  C4  BGC B   4      -2.613 -16.182 -24.1020  0.00  0.00     0.000 C
ATOM     49  C5  BGC B   4      -3.083 -17.056 -22.9330  0.00  0.00     0.000 C
ATOM     50  O5  BGC B   4      -3.009 -18.441 -23.3030  0.00  0.00     0.000 O
ATOM     51   O  BGC B   4       0.180 -18.472 -25.1340  0.00  0.00     0.000 O
ATOM     53  HD  BGC B   4       0.337 -17.709 -24.7550  0.00  0.00     0.000 HD
ATOM     53   O  BGC B   4      -0.866 -15.901 -25.7630  0.00  0.00     0.000 O
ATOM     55  HD  BGC B   4      -0.710 -15.138 -25.3840  0.00  0.00     0.000 HD
ATOM     55   C  BGC B   4      -4.509 -16.792 -22.4840  0.00  0.00     0.000 C
ATOM     56   O  BGC B   4      -5.357 -16.935 -23.6250  0.00  0.00     0.000 O
ATOM     58  HD  BGC B   4      -5.201 -16.172 -23.2460  0.00  0.00     0.000 HD
BRANCH 45 58
ATOM     58  O4  BGC B   5      -1.849 -20.192 -24.0290  0.00  0.00     0.000 O
BRANCH 58 62
ATOM     59  C1  BGC B   5      -0.977 -24.071 -22.8680  0.00  0.00     0.000 C
ATOM     60  C2  BGC B   5      -2.193 -23.453 -22.2090  0.00  0.00     0.000 C
ATOM     61  C3  BGC B   5      -2.660 -22.236 -22.9850  0.00  0.00     0.000 C
ATOM     62  C4  BGC B   5      -1.504 -21.261 -23.1440  0.00  0.00     0.000 C
ATOM     63  C5  BGC B   5      -0.279 -21.967 -23.7430  0.00  0.00     0.000 C
ATOM     64  O5  BGC B   5       0.057 -23.082 -22.9220  0.00  0.00     0.000 O
ATOM     65   O  BGC B   5       1.187 -20.625 -22.5000  0.00  0.00     0.000 O
ATOM     67  HD  BGC B   5       1.222 -19.866 -22.0840  0.00  0.00     0.000 HD
ATOM     67   O  BGC B   5       1.187 -20.625 -22.5000  0.00  0.00     0.000 O
ATOM     69  HD  BGC B   5       1.222 -19.866 -22.0840  0.00  0.00     0.000 HD
ENDBRANCH 58 62
ENDBRANCH 45 58
ENDBRANCH 44 48
ENDBRANCH 31 44
ENDBRANCH 30 34
ENDBRANCH 17 30
ENDBRANCH 16 20
ENDBRANCH 1 16
TORSDOF 8
ENDMDL
MODEL 55
REMARK VINA RESULT:      -5.1     25.110     26.446
ROOT
ATOM      1  C1  BGC B   1      -3.644 -12.185 -26.2280  0.00  0.00     0.000 C
ATOM      2  C2  BGC B   1      -3.957 -11.451 -24.9250  0.00  0.00     0.000 C
ATOM      3  C3  BGC B   1      -5.144 -10.527 -25.1200  0.00  0.00     0.000 C
ATOM      4  C4  BGC B   1      -4.928  -9.619 -26.3240  0.00  0.00     0.000 C
ATOM      5  C5  BGC B   1      -4.644 -10.489 -27.5390  0.00  0.00     0.000 C
ATOM      6  O5  BGC B   1      -3.443 -11.233 -27.2640  0.00  0.00     0.000 O
ATOM      7   O  BGC B   1      -4.270 -12.414 -23.9040  0.00  0.00     0.000 O
ATOM      9  HD  BGC B   1      -4.797 -12.164 -23.2640  0.00  0.00     0.000 HD
ATOM      9   O  BGC B   1      -5.331  -9.758 -23.9280  0.00  0.00     0.000 O
ATOM     11  HD  BGC B   1      -5.858  -9.508 -23.2870  0.00  0.00     0.000 HD
ATOM     11   O  BGC B   1      -6.086  -8.845 -26.5470  0.00  0.00     0.000 O
ATOM     13  HD  BGC B   1      -6.613  -8.595 -25.9060  0.00  0.00     0.000 HD
ATOM     13   C  BGC B   1      -4.453  -9.725 -28.8410  0.00  0.00     0.000 C
ATOM     14   O  BGC B   1      -3.433  -8.736 -28.7450  0.00  0.00     0.000 O
ATOM     16  HD  BGC B   1      -3.960  -8.487 -28.1040  0.00  0.00     0.000 HD
ENDROOT
BRANCH 1 16
ATOM     16  O4  BGC B   2      -2.374 -12.805 -26.0410  0.00  0.00     0.000 O
BRANCH 16 20
ATOM     17  C1  BGC B   2      -0.242 -16.114 -27.0610  0.00  0.00     0.000 C
ATOM     18  C2  BGC B   2      -0.617 -15.239 -28.2480  0.00  0.00     0.000 C
ATOM     19  C3  BGC B   2      -1.076 -13.881 -27.7220  0.00  0.00     0.000 C
ATOM     20  C4  BGC B   2      -2.181 -14.053 -26.7010  0.00  0.00     0.000 C
ATOM     21  C5  BGC B   2      -1.830 -15.088 -25.6310  0.00  0.00     0.000 C
ATOM     22  O5  BGC B   2      -1.439 -16.303 -26.2830  0.00  0.00     0.000 O
ATOM     23   O  BGC B   2       0.522 -15.052 -29.1030  0.00  0.00     0.000 O
ATOM     25  HD  BGC B   2       0.131 -14.553 -28.5130  0.00  0.00     0.000 HD
ATOM     25   O  BGC B   2      -1.525 -13.070 -28.8020  0.00  0.00     0.000 O
ATOM     27  HD  BGC B   2      -1.916 -12.571 -28.2120  0.00  0.00     0.000 HD
ATOM     27   C  BGC B   2      -3.000 -15.411 -24.7100  0.00  0.00     0.000 C
ATOM     28   O  BGC B   2      -4.154 -15.857 -25.4030  0.00  0.00     0.000 O
ATOM     30  HD  BGC B   2      -4.545 -15.359 -24.8130  0.00  0.00     0.000 HD
BRANCH 17 30
ATOM     30  O4  BGC B   3       0.068 -17.394 -27.5780  0.00  0.00     0.000 O
BRANCH 30 34
ATOM     31  C1  BGC B   3       2.784 -20.434 -27.0220  0.00  0.00     0.000 C
ATOM     32  C2  BGC B   3       1.717 -20.330 -25.9340  0.00  0.00     0.000 C
ATOM     33  C3  BGC B   3       0.577 -19.466 -26.4440  0.00  0.00     0.000 C
ATOM     34  C4  BGC B   3       1.106 -18.106 -26.8980  0.00  0.00     0.000 C
ATOM     35  C5  BGC B   3       2.259 -18.285 -27.8690  0.00  0.00     0.000 C
ATOM     36  O5  BGC B   3       3.258 -19.120 -27.2740  0.00  0.00     0.000 O
ATOM     37   O  BGC B   3       1.204 -21.629 -25.6440  0.00  0.00     0.000 O
ATOM     39  HD  BGC B   3       0.783 -21.293 -24.9660  0.00  0.00     0.000 HD
ATOM     39   O  BGC B   3      -0.373 -19.311 -25.4000  0.00  0.00     0.000 O
ATOM     41  HD  BGC B   3      -0.794 -18.976 -24.7220  0.00  0.00     0.000 HD
ATOM     41   C  BGC B   3       2.911 -16.978 -28.3050  0.00  0.00     0.000 C
ATOM     42   O  BGC B   3       3.379 -16.270 -27.1810  0.00  0.00     0.000 O
ATOM     44  HD  BGC B   3       2.957 -15.935 -26.5030  0.00  0.00     0.000 HD
BRANCH 31 44
ATOM     44  O4  BGC B   4       3.863 -21.151 -26.4790  0.00  0.00     0.000 O
BRANCH 44 48
ATOM     45  C1  BGC B   4       6.934 -23.614 -27.6200  0.00  0.00     0.000 C
ATOM     46  C2  BGC B   4       6.853 -22.300 -28.3850  0.00  0.00     0.000 C
ATOM     47  C3  BGC B   4       5.966 -21.337 -27.6360  0.00  0.00     0.000 C
ATOM     48  C4  BGC B   4       4.602 -21.976 -27.3570  0.00  0.00     0.000 C
ATOM     49  C5  BGC B   4       4.775 -23.340 -26.6780  0.00  0.00     0.000 C
ATOM     50  O5  BGC B   4       5.628 -24.174 -27.4750  0.00  0.00     0.000 O
ATOM     51   O  BGC B   4       8.166 -21.725 -28.5180  0.00  0.00     0.000 O
ATOM     53  HD  BGC B   4       7.862 -21.227 -27.8780  0.00  0.00     0.000 HD
ATOM     53   O  BGC B   4       5.793 -20.154 -28.4300  0.00  0.00     0.000 O
ATOM     55  HD  BGC B   4       5.489 -19.656 -27.7900  0.00  0.00     0.000 HD
ATOM     55   C  BGC B   4       3.480 -24.104 -26.4660  0.00  0.00     0.000 C
ATOM     56   O  BGC B   4       2.832 -24.223 -27.7340  0.00  0.00     0.000 O
ATOM     58  HD  BGC B   4       2.529 -23.726 -27.0940  0.00  0.00     0.000 HD
BRANCH 45 58
ATOM     58  O4  BGC B   5       7.564 -24.542 -28.5030  0.00  0.00     0.000 O
BRANCH 58 62
ATOM     59  C1  BGC B   5      11.121 -26.649 -28.2660  0.00  0.00     0.000 C
ATOM     60  C2  BGC B   5       9.879 -27.492 -28.4770  0.00  0.00     0.000 C
ATOM     61  C3  BGC B   5       8.727 -26.631 -28.9590  0.00  0.00     0.000 C
ATOM     62  C4  BGC B   5       8.513 -25.480 -27.9890  0.00  0.00     0.000 C
ATOM     63  C5  BGC B   5       9.825 -24.716 -27.7580  0.00  0.00     0.000 C
ATOM     64  O5  BGC B   5      10.817 -25.632 -27.3060  0.00  0.00     0.000 O
ATOM     65   O  BGC B   5       9.247 -24.261 -25.5320  0.00  0.00     0.000 O
ATOM     67  HD  BGC B   5       8.560 -24.210 -25.0080  0.00  0.00     0.000 HD
ATOM     67   O  BGC B   5       9.247 -24.261 -25.5320  0.00  0.00     0.000 O
ATOM     69  HD  BGC B   5       8.560 -24.210 -25.0080  0.00  0.00     0.000 HD
ENDBRANCH 58 62
ENDBRANCH 45 58
ENDBRANCH 44 48
ENDBRANCH 31 44
ENDBRANCH 30 34
ENDBRANCH 17 30
ENDBRANCH 16 20
ENDBRANCH 1 16
TORSDOF 8
ENDMDL
MODEL 56
REMARK VINA RESULT:      -5.0     14.166     20.997
ROOT
ATOM      1  C1  BGC B   1      19.318 -13.946 -24.5340  0.00  0.00     0.000 C
ATOM      2  C2  BGC B   1      18.279 -13.019 -25.1620  0.00  0.00     0.000 C
ATOM      3  C3  BGC B   1      18.967 -11.851 -25.8420  0.00  0.00     0.000 C
ATOM      4  C4  BGC B   1      19.936 -11.165 -24.8860  0.00  0.00     0.000 C
ATOM      5  C5  BGC B   1      20.911 -12.208 -24.3590  0.00  0.00     0.000 C
ATOM      6  O5  BGC B   1      20.142 -13.197 -23.6510  0.00  0.00     0.000 O
ATOM      7   O  BGC B   1      17.519 -13.752 -26.1370  0.00  0.00     0.000 O
ATOM      9  HD  BGC B   1      17.176 -13.308 -26.7970  0.00  0.00     0.000 HD
ATOM      9   O  BGC B   1      17.972 -10.933 -26.3040  0.00  0.00     0.000 O
ATOM     11  HD  BGC B   1      17.629 -10.489 -26.9640  0.00  0.00     0.000 HD
ATOM     11   O  BGC B   1      20.639 -10.151 -25.5700  0.00  0.00     0.000 O
ATOM     13  HD  BGC B   1      20.296  -9.708 -26.2300  0.00  0.00     0.000 HD
ATOM     13   C  BGC B   1      21.980 -11.665 -23.4210  0.00  0.00     0.000 C
ATOM     14   O  BGC B   1      21.425 -10.963 -22.3130  0.00  0.00     0.000 O
ATOM     16  HD  BGC B   1      21.082 -10.519 -22.9730  0.00  0.00     0.000 HD
ENDROOT
BRANCH 1 16
ATOM     16  O4  BGC B   2      18.594 -14.845 -23.6950  0.00  0.00     0.000 O
BRANCH 16 20
ATOM     17  C1  BGC B   2      18.818 -18.661 -22.3090  0.00  0.00     0.000 C
ATOM     18  C2  BGC B   2      19.487 -17.641 -21.4000  0.00  0.00     0.000 C
ATOM     19  C3  BGC B   2      19.031 -16.245 -21.8200  0.00  0.00     0.000 C
ATOM     20  C4  BGC B   2      19.285 -16.026 -23.2970  0.00  0.00     0.000 C
ATOM     21  C5  BGC B   2      18.758 -17.176 -24.1560  0.00  0.00     0.000 C
ATOM     22  O5  BGC B   2      19.288 -18.406 -23.6460  0.00  0.00     0.000 O
ATOM     23   O  BGC B   2      19.105 -17.870 -20.0340  0.00  0.00     0.000 O
ATOM     25  HD  BGC B   2      18.863 -17.293 -20.6330  0.00  0.00     0.000 HD
ATOM     25   O  BGC B   2      19.713 -15.261 -21.0510  0.00  0.00     0.000 O
ATOM     27  HD  BGC B   2      19.471 -14.684 -21.6500  0.00  0.00     0.000 HD
ATOM     27   C  BGC B   2      19.171 -17.064 -25.6180  0.00  0.00     0.000 C
ATOM     28   O  BGC B   2      20.574 -16.975 -25.8010  0.00  0.00     0.000 O
ATOM     30  HD  BGC B   2      20.332 -16.398 -26.3990  0.00  0.00     0.000 HD
BRANCH 17 30
ATOM     30  O4  BGC B   3      19.350 -19.927 -21.9650  0.00  0.00     0.000 O
BRANCH 30 34
ATOM     31  C1  BGC B   3      18.198 -23.875 -22.0200  0.00  0.00     0.000 C
ATOM     32  C2  BGC B   3      17.706 -23.054 -23.2120  0.00  0.00     0.000 C
ATOM     33  C3  BGC B   3      18.507 -21.766 -23.2850  0.00  0.00     0.000 C
ATOM     34  C4  BGC B   3      18.418 -21.013 -21.9580  0.00  0.00     0.000 C
ATOM     35  C5  BGC B   3      18.782 -21.929 -20.8040  0.00  0.00     0.000 C
ATOM     36  O5  BGC B   3      17.966 -23.104 -20.8520  0.00  0.00     0.000 O
ATOM     37   O  BGC B   3      17.920 -23.788 -24.4150  0.00  0.00     0.000 O
ATOM     39  HD  BGC B   3      17.455 -23.194 -24.8410  0.00  0.00     0.000 HD
ATOM     39   O  BGC B   3      17.992 -20.976 -24.3460  0.00  0.00     0.000 O
ATOM     41  HD  BGC B   3      17.527 -20.382 -24.7710  0.00  0.00     0.000 HD
ATOM     41   C  BGC B   3      18.633 -21.285 -19.4300  0.00  0.00     0.000 C
ATOM     42   O  BGC B   3      17.311 -20.837 -19.2460  0.00  0.00     0.000 O
ATOM     44  HD  BGC B   3      16.846 -20.243 -19.6710  0.00  0.00     0.000 HD
BRANCH 31 44
ATOM     44  O4  BGC B   4      17.369 -25.005 -21.9240  0.00  0.00     0.000 O
BRANCH 44 48
ATOM     45  C1  BGC B   4      17.675 -29.035 -21.2380  0.00  0.00     0.000 C
ATOM     46  C2  BGC B   4      17.485 -28.188 -19.9870  0.00  0.00     0.000 C
ATOM     47  C3  BGC B   4      16.998 -26.815 -20.3800  0.00  0.00     0.000 C
ATOM     48  C4  BGC B   4      17.943 -26.190 -21.4120  0.00  0.00     0.000 C
ATOM     49  C5  BGC B   4      18.163 -27.148 -22.5900  0.00  0.00     0.000 C
ATOM     50  O5  BGC B   4      18.627 -28.415 -22.1040  0.00  0.00     0.000 O
ATOM     51   O  BGC B   4      16.512 -28.801 -19.1200  0.00  0.00     0.000 O
ATOM     53  HD  BGC B   4      16.016 -28.180 -19.4640  0.00  0.00     0.000 HD
ATOM     53   O  BGC B   4      16.949 -25.989 -19.2070  0.00  0.00     0.000 O
ATOM     55  HD  BGC B   4      16.453 -25.369 -19.5520  0.00  0.00     0.000 HD
ATOM     55   C  BGC B   4      19.178 -26.664 -23.6100  0.00  0.00     0.000 C
ATOM     56   O  BGC B   4      20.397 -26.392 -22.9160  0.00  0.00     0.000 O
ATOM     58  HD  BGC B   4      19.901 -25.771 -23.2610  0.00  0.00     0.000 HD
BRANCH 45 58
ATOM     58  O4  BGC B   5      18.371 -30.207 -20.8140  0.00  0.00     0.000 O
BRANCH 58 62
ATOM     59  C1  BGC B   5      18.852 -34.203 -21.7870  0.00  0.00     0.000 C
ATOM     60  C2  BGC B   5      18.793 -33.250 -22.9640  0.00  0.00     0.000 C
ATOM     61  C3  BGC B   5      19.035 -31.824 -22.5070  0.00  0.00     0.000 C
ATOM     62  C4  BGC B   5      18.054 -31.472 -21.4000  0.00  0.00     0.000 C
ATOM     63  C5  BGC B   5      18.106 -32.518 -20.2780  0.00  0.00     0.000 C
ATOM     64  O5  BGC B   5      17.860 -33.805 -20.8360  0.00  0.00     0.000 O
ATOM     65   O  BGC B   5      15.813 -32.276 -19.8520  0.00  0.00     0.000 O
ATOM     67  HD  BGC B   5      15.159 -31.719 -19.9650  0.00  0.00     0.000 HD
ATOM     67   O  BGC B   5      15.813 -32.276 -19.8520  0.00  0.00     0.000 O
ATOM     69  HD  BGC B   5      15.159 -31.719 -19.9650  0.00  0.00     0.000 HD
ENDBRANCH 58 62
ENDBRANCH 45 58
ENDBRANCH 44 48
ENDBRANCH 31 44
ENDBRANCH 30 34
ENDBRANCH 17 30
ENDBRANCH 16 20
ENDBRANCH 1 16
TORSDOF 8
ENDMDL
MODEL 57
REMARK VINA RESULT:      -5.0     11.581     16.212
ROOT
ATOM      1  C1  BGC B   1      20.590   2.795 -20.2250  0.00  0.00     0.000 C
ATOM      2  C2  BGC B   1      21.182   2.076 -19.0130  0.00  0.00     0.000 C
ATOM      3  C3  BGC B   1      22.693   2.199 -19.0220  0.00  0.00     0.000 C
ATOM      4  C4  BGC B   1      23.262   1.755 -20.3640  0.00  0.00     0.000 C
ATOM      5  C5  BGC B   1      22.591   2.566 -21.4640  0.00  0.00     0.000 C
ATOM      6  O5  BGC B   1      21.181   2.280 -21.4100  0.00  0.00     0.000 O
ATOM      7   O  BGC B   1      20.666   2.673 -17.8110  0.00  0.00     0.000 O
ATOM      9  HD  BGC B   1      21.157   2.632 -17.0990  0.00  0.00     0.000 HD
ATOM      9   O  BGC B   1      23.228   1.408 -17.9560  0.00  0.00     0.000 O
ATOM     11  HD  BGC B   1      23.719   1.368 -17.2440  0.00  0.00     0.000 HD
ATOM     11   O  BGC B   1      24.655   1.977 -20.3850  0.00  0.00     0.000 O
ATOM     13  HD  BGC B   1      25.146   1.937 -19.6730  0.00  0.00     0.000 HD
ATOM     13   C  BGC B   1      23.091   2.271 -22.8710  0.00  0.00     0.000 C
ATOM     14   O  BGC B   1      22.992   0.889 -23.2030  0.00  0.00     0.000 O
ATOM     16  HD  BGC B   1      23.484   0.849 -22.4900  0.00  0.00     0.000 HD
ENDROOT
BRANCH 1 16
ATOM     16  O4  BGC B   2      19.221   2.401 -20.2910  0.00  0.00     0.000 O
BRANCH 16 20
ATOM     17  C1  BGC B   2      15.578   3.805 -21.4320  0.00  0.00     0.000 C
ATOM     18  C2  BGC B   2      16.419   3.277 -22.5850  0.00  0.00     0.000 C
ATOM     19  C3  BGC B   2      17.574   2.461 -22.0100  0.00  0.00     0.000 C
ATOM     20  C4  BGC B   2      18.348   3.280 -20.9970  0.00  0.00     0.000 C
ATOM     21  C5  BGC B   2      17.437   3.947 -19.9670  0.00  0.00     0.000 C
ATOM     22  O5  BGC B   2      16.423   4.682 -20.6630  0.00  0.00     0.000 O
ATOM     23   O  BGC B   2      15.622   2.433 -23.4320  0.00  0.00     0.000 O
ATOM     25  HD  BGC B   2      16.218   2.276 -22.8240  0.00  0.00     0.000 HD
ATOM     25   O  BGC B   2      18.434   2.033 -23.0590  0.00  0.00     0.000 O
ATOM     27  HD  BGC B   2      19.031   1.876 -22.4510  0.00  0.00     0.000 HD
ATOM     27   C  BGC B   2      18.178   4.922 -19.0610  0.00  0.00     0.000 C
ATOM     28   O  BGC B   2      18.867   5.937 -19.7710  0.00  0.00     0.000 O
ATOM     30  HD  BGC B   2      19.464   5.780 -19.1640  0.00  0.00     0.000 HD
BRANCH 17 30
ATOM     30  O4  BGC B   3      14.590   4.646 -21.9970  0.00  0.00     0.000 O
BRANCH 30 34
ATOM     31  C1  BGC B   3      10.617   5.605 -21.5290  0.00  0.00     0.000 C
ATOM     32  C2  BGC B   3      11.495   5.935 -20.3230  0.00  0.00     0.000 C
ATOM     33  C3  BGC B   3      12.951   5.914 -20.7550  0.00  0.00     0.000 C
ATOM     34  C4  BGC B   3      13.292   4.570 -21.3970  0.00  0.00     0.000 C
ATOM     35  C5  BGC B   3      12.294   4.238 -22.4920  0.00  0.00     0.000 C
ATOM     36  O5  BGC B   3      10.966   4.299 -21.9610  0.00  0.00     0.000 O
ATOM     37   O  BGC B   3      11.183   7.244 -19.8510  0.00  0.00     0.000 O
ATOM     39  HD  BGC B   3      11.678   7.094 -19.1570  0.00  0.00     0.000 HD
ATOM     39   O  BGC B   3      13.762   6.145 -19.6140  0.00  0.00     0.000 O
ATOM     41  HD  BGC B   3      14.258   5.995 -18.9190  0.00  0.00     0.000 HD
ATOM     41   C  BGC B   3      12.504   2.869 -23.1280  0.00  0.00     0.000 C
ATOM     42   O  BGC B   3      12.441   1.862 -22.1450  0.00  0.00     0.000 O
ATOM     44  HD  BGC B   3      12.936   1.712 -21.4510  0.00  0.00     0.000 HD
BRANCH 31 44
ATOM     44  O4  BGC B   4       9.291   5.533 -21.0700  0.00  0.00     0.000 O
BRANCH 44 48
ATOM     45  C1  BGC B   4       5.488   6.418 -22.3180  0.00  0.00     0.000 C
ATOM     46  C2  BGC B   4       6.006   5.058 -22.7650  0.00  0.00     0.000 C
ATOM     47  C3  BGC B   4       7.214   4.685 -21.9420  0.00  0.00     0.000 C
ATOM     48  C4  BGC B   4       8.265   5.797 -22.0050  0.00  0.00     0.000 C
ATOM     49  C5  BGC B   4       7.640   7.150 -21.6390  0.00  0.00     0.000 C
ATOM     50  O5  BGC B   4       6.508   7.405 -22.4830  0.00  0.00     0.000 O
ATOM     51   O  BGC B   4       4.985   4.058 -22.5840  0.00  0.00     0.000 O
ATOM     53  HD  BGC B   4       5.477   3.879 -21.8940  0.00  0.00     0.000 HD
ATOM     53   O  BGC B   4       7.767   3.467 -22.4610  0.00  0.00     0.000 O
ATOM     55  HD  BGC B   4       8.259   3.287 -21.7710  0.00  0.00     0.000 HD
ATOM     55   C  BGC B   4       8.579   8.334 -21.7860  0.00  0.00     0.000 C
ATOM     56   O  BGC B   4       9.081   8.329 -23.1230  0.00  0.00     0.000 O
ATOM     58  HD  BGC B   4       9.573   8.150 -22.4330  0.00  0.00     0.000 HD
BRANCH 45 58
ATOM     58  O4  BGC B   5       4.526   6.812 -23.2960  0.00  0.00     0.000 O
BRANCH 58 62
ATOM     59  C1  BGC B   5       1.759   9.843 -23.8450  0.00  0.00     0.000 C
ATOM     60  C2  BGC B   5       3.041   9.981 -24.6410  0.00  0.00     0.000 C
ATOM     61  C3  BGC B   5       3.780   8.658 -24.6950  0.00  0.00     0.000 C
ATOM     62  C4  BGC B   5       4.003   8.142 -23.2830  0.00  0.00     0.000 C
ATOM     63  C5  BGC B   5       2.680   8.101 -22.5060  0.00  0.00     0.000 C
ATOM     64  O5  BGC B   5       2.094   9.399 -22.5270  0.00  0.00     0.000 O
ATOM     65   O  BGC B   5       3.764   8.635 -20.4970  0.00  0.00     0.000 O
ATOM     67  HD  BGC B   5       4.545   8.614 -20.1230  0.00  0.00     0.000 HD
ATOM     67   O  BGC B   5       3.764   8.635 -20.4970  0.00  0.00     0.000 O
ATOM     69  HD  BGC B   5       4.545   8.614 -20.1230  0.00  0.00     0.000 HD
ENDBRANCH 58 62
ENDBRANCH 45 58
ENDBRANCH 44 48
ENDBRANCH 31 44
ENDBRANCH 30 34
ENDBRANCH 17 30
ENDBRANCH 16 20
ENDBRANCH 1 16
TORSDOF 8
ENDMDL
MODEL 58
REMARK VINA RESULT:      -5.0     15.827     22.877
ROOT
ATOM      1  C1  BGC B   1      11.949   9.077  -7.3440  0.00  0.00     0.000 C
ATOM      2  C2  BGC B   1      12.771   8.188  -8.2760  0.00  0.00     0.000 C
ATOM      3  C3  BGC B   1      14.235   8.579  -8.2110  0.00  0.00     0.000 C
ATOM      4  C4  BGC B   1      14.404  10.074  -8.4470  0.00  0.00     0.000 C
ATOM      5  C5  BGC B   1      13.542  10.822  -7.4410  0.00  0.00     0.000 C
ATOM      6  O5  BGC B   1      12.174  10.439  -7.6770  0.00  0.00     0.000 O
ATOM      7   O  BGC B   1      12.629   6.817  -7.8680  0.00  0.00     0.000 O
ATOM      9  HD  BGC B   1      13.281   6.275  -8.0450  0.00  0.00     0.000 HD
ATOM      9   O  BGC B   1      14.958   7.824  -9.1880  0.00  0.00     0.000 O
ATOM     11  HD  BGC B   1      15.610   7.282  -9.3650  0.00  0.00     0.000 HD
ATOM     11   O  BGC B   1      15.759  10.430  -8.2790  0.00  0.00     0.000 O
ATOM     13  HD  BGC B   1      16.411   9.888  -8.4550  0.00  0.00     0.000 HD
ATOM     13   C  BGC B   1      13.640  12.338  -7.5170  0.00  0.00     0.000 C
ATOM     14   O  BGC B   1      13.349  12.836  -8.8190  0.00  0.00     0.000 O
ATOM     16  HD  BGC B   1      14.001  12.294  -8.9960  0.00  0.00     0.000 HD
ENDROOT
BRANCH 1 16
ATOM     16  O4  BGC B   2      10.581   8.836  -7.6680  0.00  0.00     0.000 O
BRANCH 16 20
ATOM     17  C1  BGC B   2       6.859   9.095  -6.0490  0.00  0.00     0.000 C
ATOM     18  C2  BGC B   2       7.376  10.413  -6.6090  0.00  0.00     0.000 C
ATOM     19  C3  BGC B   2       8.585  10.122  -7.4950  0.00  0.00     0.000 C
ATOM     20  C4  BGC B   2       9.620   9.320  -6.7340  0.00  0.00     0.000 C
ATOM     21  C5  BGC B   2       9.013   8.105  -6.0300  0.00  0.00     0.000 C
ATOM     22  O5  BGC B   2       7.909   8.546  -5.2310  0.00  0.00     0.000 O
ATOM     23   O  BGC B   2       6.356  11.048  -7.3970  0.00  0.00     0.000 O
ATOM     25  HD  BGC B   2       7.068  10.597  -7.5940  0.00  0.00     0.000 HD
ATOM     25   O  BGC B   2       9.150  11.343  -7.9580  0.00  0.00     0.000 O
ATOM     27  HD  BGC B   2       9.863  10.892  -8.1550  0.00  0.00     0.000 HD
ATOM     27   C  BGC B   2      10.000   7.398  -5.1090  0.00  0.00     0.000 C
ATOM     28   O  BGC B   2      10.561   8.251  -4.1250  0.00  0.00     0.000 O
ATOM     30  HD  BGC B   2      11.274   7.800  -4.3230  0.00  0.00     0.000 HD
BRANCH 17 30
ATOM     30  O4  BGC B   3       5.816   9.414  -5.1480  0.00  0.00     0.000 O
BRANCH 30 34
ATOM     31  C1  BGC B   3       2.187   7.946  -3.8820  0.00  0.00     0.000 C
ATOM     32  C2  BGC B   3       3.395   7.125  -3.4340  0.00  0.00     0.000 C
ATOM     33  C3  BGC B   3       4.651   7.961  -3.6100  0.00  0.00     0.000 C
ATOM     34  C4  BGC B   3       4.761   8.452  -5.0530  0.00  0.00     0.000 C
ATOM     35  C5  BGC B   3       3.472   9.133  -5.4790  0.00  0.00     0.000 C
ATOM     36  O5  BGC B   3       2.370   8.247  -5.2570  0.00  0.00     0.000 O
ATOM     37   O  BGC B   3       3.261   6.796  -2.0530  0.00  0.00     0.000 O
ATOM     39  HD  BGC B   3       3.941   6.266  -2.1300  0.00  0.00     0.000 HD
ATOM     39   O  BGC B   3       5.774   7.164  -3.2640  0.00  0.00     0.000 O
ATOM     41  HD  BGC B   3       6.454   6.634  -3.3410  0.00  0.00     0.000 HD
ATOM     41   C  BGC B   3       3.458   9.575  -6.9380  0.00  0.00     0.000 C
ATOM     42   O  BGC B   3       3.681   8.470  -7.7820  0.00  0.00     0.000 O
ATOM     44  HD  BGC B   3       4.362   7.940  -7.8590  0.00  0.00     0.000 HD
BRANCH 31 44
ATOM     44  O4  BGC B   4       1.063   7.108  -3.8030  0.00  0.00     0.000 O
BRANCH 44 48
ATOM     45  C1  BGC B   4      -2.956   7.251  -3.0060  0.00  0.00     0.000 C
ATOM     46  C2  BGC B   4      -2.553   7.828  -4.3560  0.00  0.00     0.000 C
ATOM     47  C3  BGC B   4      -1.155   7.373  -4.7000  0.00  0.00     0.000 C
ATOM     48  C4  BGC B   4      -0.188   7.721  -3.5640  0.00  0.00     0.000 C
ATOM     49  C5  BGC B   4      -0.717   7.193  -2.2250  0.00  0.00     0.000 C
ATOM     50  O5  BGC B   4      -2.044   7.689  -1.9980  0.00  0.00     0.000 O
ATOM     51   O  BGC B   4      -3.460   7.374  -5.3780  0.00  0.00     0.000 O
ATOM     53  HD  BGC B   4      -2.792   6.848  -5.5440  0.00  0.00     0.000 HD
ATOM     53   O  BGC B   4      -0.740   8.029  -5.9070  0.00  0.00     0.000 O
ATOM     55  HD  BGC B   4      -0.073   7.503  -6.0730  0.00  0.00     0.000 HD
ATOM     55   C  BGC B   4       0.117   7.590  -1.0200  0.00  0.00     0.000 C
ATOM     56   O  BGC B   4       0.230   9.014  -1.0180  0.00  0.00     0.000 O
ATOM     58  HD  BGC B   4       0.897   8.488  -1.1840  0.00  0.00     0.000 HD
BRANCH 45 58
ATOM     58  O4  BGC B   5      -4.160   7.923  -2.6380  0.00  0.00     0.000 O
BRANCH 58 62
ATOM     59  C1  BGC B   5      -7.814   7.299  -0.7930  0.00  0.00     0.000 C
ATOM     60  C2  BGC B   5      -6.601   6.866   0.0050  0.00  0.00     0.000 C
ATOM     61  C3  BGC B   5      -5.342   7.502  -0.5520  0.00  0.00     0.000 C
ATOM     62  C4  BGC B   5      -5.228   7.188  -2.0350  0.00  0.00     0.000 C
ATOM     63  C5  BGC B   5      -6.518   7.577  -2.7720  0.00  0.00     0.000 C
ATOM     64  O5  BGC B   5      -7.617   6.913  -2.1570  0.00  0.00     0.000 O
ATOM     65   O  BGC B   5      -6.286   5.785  -4.2660  0.00  0.00     0.000 O
ATOM     67  HD  BGC B   5      -5.691   5.244  -4.5870  0.00  0.00     0.000 HD
ATOM     67   O  BGC B   5      -6.286   5.785  -4.2660  0.00  0.00     0.000 O
ATOM     69  HD  BGC B   5      -5.691   5.244  -4.5870  0.00  0.00     0.000 HD
ENDBRANCH 58 62
ENDBRANCH 45 58
ENDBRANCH 44 48
ENDBRANCH 31 44
ENDBRANCH 30 34
ENDBRANCH 17 30
ENDBRANCH 16 20
ENDBRANCH 1 16
TORSDOF 8
ENDMDL
MODEL 59
REMARK VINA RESULT:      -5.0     27.419     30.038
ROOT
ATOM      1  C1  BGC B   1      -3.700 -19.527  -8.4760  0.00  0.00     0.000 C
ATOM      2  C2  BGC B   1      -3.227 -19.135  -9.8750  0.00  0.00     0.000 C
ATOM      3  C3  BGC B   1      -4.072 -17.995 -10.4100  0.00  0.00     0.000 C
ATOM      4  C4  BGC B   1      -5.555 -18.331 -10.3120  0.00  0.00     0.000 C
ATOM      5  C5  BGC B   1      -5.874 -18.683  -8.8660  0.00  0.00     0.000 C
ATOM      6  O5  BGC B   1      -5.086 -19.837  -8.5200  0.00  0.00     0.000 O
ATOM      7   O  BGC B   1      -1.854 -18.716  -9.8100  0.00  0.00     0.000 O
ATOM      9  HD  BGC B   1      -1.578 -18.149 -10.4030  0.00  0.00     0.000 HD
ATOM      9   O  BGC B   1      -3.697 -17.739 -11.7670  0.00  0.00     0.000 O
ATOM     11  HD  BGC B   1      -3.420 -17.171 -12.3590  0.00  0.00     0.000 HD
ATOM     11   O  BGC B   1      -6.321 -17.217 -10.7160  0.00  0.00     0.000 O
ATOM     13  HD  BGC B   1      -6.044 -16.649 -11.3090  0.00  0.00     0.000 HD
ATOM     13   C  BGC B   1      -7.338 -18.998  -8.5940  0.00  0.00     0.000 C
ATOM     14   O  BGC B   1      -7.835 -20.036  -9.4330  0.00  0.00     0.000 O
ATOM     16  HD  BGC B   1      -7.559 -19.468 -10.0260  0.00  0.00     0.000 HD
ENDROOT
BRANCH 1 16
ATOM     16  O4  BGC B   2      -3.054 -20.761  -8.1690  0.00  0.00     0.000 O
BRANCH 16 20
ATOM     17  C1  BGC B   2      -1.208 -22.568  -5.0280  0.00  0.00     0.000 C
ATOM     18  C2  BGC B   2      -2.681 -22.926  -5.1600  0.00  0.00     0.000 C
ATOM     19  C3  BGC B   2      -3.161 -22.499  -6.5440  0.00  0.00     0.000 C
ATOM     20  C4  BGC B   2      -2.851 -21.035  -6.7850  0.00  0.00     0.000 C
ATOM     21  C5  BGC B   2      -1.400 -20.685  -6.4550  0.00  0.00     0.000 C
ATOM     22  O5  BGC B   2      -1.113 -21.135  -5.1250  0.00  0.00     0.000 O
ATOM     23   O  BGC B   2      -2.859 -24.345  -5.0170  0.00  0.00     0.000 O
ATOM     25  HD  BGC B   2      -2.849 -23.810  -5.6980  0.00  0.00     0.000 HD
ATOM     25   O  BGC B   2      -4.560 -22.732  -6.6650  0.00  0.00     0.000 O
ATOM     27  HD  BGC B   2      -4.549 -22.198  -7.3460  0.00  0.00     0.000 HD
ATOM     27   C  BGC B   2      -1.123 -19.188  -6.5090  0.00  0.00     0.000 C
ATOM     28   O  BGC B   2      -1.969 -18.429  -5.6620  0.00  0.00     0.000 O
ATOM     30  HD  BGC B   2      -1.959 -17.894  -6.3440  0.00  0.00     0.000 HD
BRANCH 17 30
ATOM     30  O4  BGC B   3      -0.829 -22.874  -3.6990  0.00  0.00     0.000 O
BRANCH 30 34
ATOM     31  C1  BGC B   3       2.642 -23.268  -1.5270  0.00  0.00     0.000 C
ATOM     32  C2  BGC B   3       2.038 -21.865  -1.5080  0.00  0.00     0.000 C
ATOM     33  C3  BGC B   3       0.599 -21.943  -1.9870  0.00  0.00     0.000 C
ATOM     34  C4  BGC B   3       0.536 -22.605  -3.3630  0.00  0.00     0.000 C
ATOM     35  C5  BGC B   3       1.279 -23.930  -3.3470  0.00  0.00     0.000 C
ATOM     36  O5  BGC B   3       2.613 -23.721  -2.8710  0.00  0.00     0.000 O
ATOM     37   O  BGC B   3       2.042 -21.363  -0.1730  0.00  0.00     0.000 O
ATOM     39  HD  BGC B   3       1.808 -20.589  -0.4810  0.00  0.00     0.000 HD
ATOM     39   O  BGC B   3       0.070 -20.627  -2.0400  0.00  0.00     0.000 O
ATOM     41  HD  BGC B   3      -0.164 -19.852  -2.3480  0.00  0.00     0.000 HD
ATOM     41   C  BGC B   3       1.346 -24.619  -4.7050  0.00  0.00     0.000 C
ATOM     42   O  BGC B   3       1.959 -23.773  -5.6490  0.00  0.00     0.000 O
ATOM     44  HD  BGC B   3       1.724 -22.998  -5.9570  0.00  0.00     0.000 HD
BRANCH 31 44
ATOM     44  O4  BGC B   4       3.997 -23.142  -1.1780  0.00  0.00     0.000 O
BRANCH 44 48
ATOM     45  C1  BGC B   4       6.965 -25.203   0.7580  0.00  0.00     0.000 C
ATOM     46  C2  BGC B   4       6.164 -26.026  -0.2410  0.00  0.00     0.000 C
ATOM     47  C3  BGC B   4       5.395 -25.102  -1.1530  0.00  0.00     0.000 C
ATOM     48  C4  BGC B   4       4.544 -24.130  -0.3290  0.00  0.00     0.000 C
ATOM     49  C5  BGC B   4       5.404 -23.417   0.7220  0.00  0.00     0.000 C
ATOM     50  O5  BGC B   4       6.083 -24.388   1.5320  0.00  0.00     0.000 O
ATOM     51   O  BGC B   4       7.051 -26.837  -1.0350  0.00  0.00     0.000 O
ATOM     53  HD  BGC B   4       6.888 -26.210  -1.6100  0.00  0.00     0.000 HD
ATOM     53   O  BGC B   4       4.547 -25.889  -2.0010  0.00  0.00     0.000 O
ATOM     55  HD  BGC B   4       4.383 -25.262  -2.5750  0.00  0.00     0.000 HD
ATOM     55   C  BGC B   4       4.625 -22.518   1.6650  0.00  0.00     0.000 C
ATOM     56   O  BGC B   4       3.599 -23.307   2.2710  0.00  0.00     0.000 O
ATOM     58  HD  BGC B   4       3.435 -22.680   1.6960  0.00  0.00     0.000 HD
BRANCH 45 58
ATOM     58  O4  BGC B   5       7.448 -26.130   1.7300  0.00  0.00     0.000 O
BRANCH 58 62
ATOM     59  C1  BGC B   5      11.031 -27.000   3.6160  0.00  0.00     0.000 C
ATOM     60  C2  BGC B   5      10.017 -26.253   4.4580  0.00  0.00     0.000 C
ATOM     61  C3  BGC B   5       8.635 -26.354   3.8430  0.00  0.00     0.000 C
ATOM     62  C4  BGC B   5       8.685 -25.875   2.4010  0.00  0.00     0.000 C
ATOM     63  C5  BGC B   5       9.784 -26.614   1.6230  0.00  0.00     0.000 C
ATOM     64  O5  BGC B   5      11.024 -26.438   2.3000  0.00  0.00     0.000 O
ATOM     65   O  BGC B   5      10.235 -24.716   0.3230  0.00  0.00     0.000 O
ATOM     67  HD  BGC B   5       9.874 -23.973   0.0630  0.00  0.00     0.000 HD
ATOM     67   O  BGC B   5      10.235 -24.716   0.3230  0.00  0.00     0.000 O
ATOM     69  HD  BGC B   5       9.874 -23.973   0.0630  0.00  0.00     0.000 HD
ENDBRANCH 58 62
ENDBRANCH 45 58
ENDBRANCH 44 48
ENDBRANCH 31 44
ENDBRANCH 30 34
ENDBRANCH 17 30
ENDBRANCH 16 20
ENDBRANCH 1 16
TORSDOF 8
ENDMDL
MODEL 60
REMARK VINA RESULT:      -4.9     28.058     29.876
ROOT
ATOM      1  C1  BGC B   1      -4.084 -20.247  -8.1400  0.00  0.00     0.000 C
ATOM      2  C2  BGC B   1      -3.214 -19.402  -7.2100  0.00  0.00     0.000 C
ATOM      3  C3  BGC B   1      -4.075 -18.733  -6.1560  0.00  0.00     0.000 C
ATOM      4  C4  BGC B   1      -5.231 -17.980  -6.8040  0.00  0.00     0.000 C
ATOM      5  C5  BGC B   1      -6.008 -18.950  -7.6810  0.00  0.00     0.000 C
ATOM      6  O5  BGC B   1      -5.106 -19.430  -8.6950  0.00  0.00     0.000 O
ATOM      7   O  BGC B   1      -2.250 -20.251  -6.5640  0.00  0.00     0.000 O
ATOM      9  HD  BGC B   1      -1.959 -20.009  -5.7850  0.00  0.00     0.000 HD
ATOM      9   O  BGC B   1      -3.258 -17.848  -5.3850  0.00  0.00     0.000 O
ATOM     11  HD  BGC B   1      -2.966 -17.605  -4.6070  0.00  0.00     0.000 HD
ATOM     11   O  BGC B   1      -6.075 -17.456  -5.8020  0.00  0.00     0.000 O
ATOM     13  HD  BGC B   1      -5.783 -17.213  -5.0230  0.00  0.00     0.000 HD
ATOM     13   C  BGC B   1      -7.231 -18.356  -8.3640  0.00  0.00     0.000 C
ATOM     14   O  BGC B   1      -6.913 -17.202  -9.1360  0.00  0.00     0.000 O
ATOM     16  HD  BGC B   1      -6.622 -16.959  -8.3570  0.00  0.00     0.000 HD
ENDROOT
BRANCH 1 16
ATOM     16  O4  BGC B   2      -3.255 -20.606  -9.2430  0.00  0.00     0.000 O
BRANCH 16 20
ATOM     17  C1  BGC B   2      -2.526 -23.643 -11.8480  0.00  0.00     0.000 C
ATOM     18  C2  BGC B   2      -3.931 -23.069 -11.9550  0.00  0.00     0.000 C
ATOM     19  C3  BGC B   2      -3.968 -21.734 -11.2150  0.00  0.00     0.000 C
ATOM     20  C4  BGC B   2      -3.470 -21.903  -9.7940  0.00  0.00     0.000 C
ATOM     21  C5  BGC B   2      -2.141 -22.656  -9.7270  0.00  0.00     0.000 C
ATOM     22  O5  BGC B   2      -2.276 -23.885 -10.4510  0.00  0.00     0.000 O
ATOM     23   O  BGC B   2      -4.271 -22.851 -13.3350  0.00  0.00     0.000 O
ATOM     25  HD  BGC B   2      -4.024 -22.327 -12.6910  0.00  0.00     0.000 HD
ATOM     25   O  BGC B   2      -5.293 -21.217 -11.2150  0.00  0.00     0.000 O
ATOM     27  HD  BGC B   2      -5.045 -20.693 -10.5720  0.00  0.00     0.000 HD
ATOM     27   C  BGC B   2      -1.723 -22.999  -8.3030  0.00  0.00     0.000 C
ATOM     28   O  BGC B   2      -2.697 -23.748  -7.5960  0.00  0.00     0.000 O
ATOM     30  HD  BGC B   2      -2.450 -23.224  -6.9530  0.00  0.00     0.000 HD
BRANCH 17 30
ATOM     30  O4  BGC B   3      -2.560 -24.925 -12.4450  0.00  0.00     0.000 O
BRANCH 30 34
ATOM     31  C1  BGC B   3      -0.189 -27.081 -15.0250  0.00  0.00     0.000 C
ATOM     32  C2  BGC B   3      -0.008 -27.437 -13.5490  0.00  0.00     0.000 C
ATOM     33  C3  BGC B   3      -1.185 -26.886 -12.7640  0.00  0.00     0.000 C
ATOM     34  C4  BGC B   3      -1.326 -25.384 -13.0060  0.00  0.00     0.000 C
ATOM     35  C5  BGC B   3      -1.356 -25.089 -14.4960  0.00  0.00     0.000 C
ATOM     36  O5  BGC B   3      -0.203 -25.666 -15.1180  0.00  0.00     0.000 O
ATOM     37   O  BGC B   3       0.010 -28.855 -13.4010  0.00  0.00     0.000 O
ATOM     39  HD  BGC B   3       0.250 -28.749 -12.5750  0.00  0.00     0.000 HD
ATOM     39   O  BGC B   3      -0.971 -27.153 -11.3860  0.00  0.00     0.000 O
ATOM     41  HD  BGC B   3      -0.730 -27.047 -10.5610  0.00  0.00     0.000 HD
ATOM     41   C  BGC B   3      -1.403 -23.603 -14.8330  0.00  0.00     0.000 C
ATOM     42   O  BGC B   3      -0.295 -22.942 -14.2680  0.00  0.00     0.000 O
ATOM     44  HD  BGC B   3      -0.055 -22.836 -13.4430  0.00  0.00     0.000 HD
BRANCH 31 44
ATOM     44  O4  BGC B   4       0.963 -27.515 -15.7010  0.00  0.00     0.000 O
BRANCH 44 48
ATOM     45  C1  BGC B   4       2.141 -28.989 -19.3400  0.00  0.00     0.000 C
ATOM     46  C2  BGC B   4       1.842 -27.497 -19.3230  0.00  0.00     0.000 C
ATOM     47  C3  BGC B   4       1.809 -27.006 -17.8960  0.00  0.00     0.000 C
ATOM     48  C4  BGC B   4       0.829 -27.843 -17.0690  0.00  0.00     0.000 C
ATOM     49  C5  BGC B   4       1.135 -29.339 -17.2200  0.00  0.00     0.000 C
ATOM     50  O5  BGC B   4       1.136 -29.694 -18.6110  0.00  0.00     0.000 O
ATOM     51   O  BGC B   4       2.863 -26.780 -20.0430  0.00  0.00     0.000 O
ATOM     53  HD  BGC B   4       3.121 -26.611 -19.2340  0.00  0.00     0.000 HD
ATOM     53   O  BGC B   4       1.398 -25.632 -17.8890  0.00  0.00     0.000 O
ATOM     55  HD  BGC B   4       1.656 -25.462 -17.0800  0.00  0.00     0.000 HD
ATOM     55   C  BGC B   4       0.143 -30.256 -16.5280  0.00  0.00     0.000 C
ATOM     56   O  BGC B   4      -1.161 -29.932 -17.0130  0.00  0.00     0.000 O
ATOM     58  HD  BGC B   4      -0.903 -29.762 -16.2040  0.00  0.00     0.000 HD
BRANCH 45 58
ATOM     58  O4  BGC B   5       1.901 -29.420 -20.6790  0.00  0.00     0.000 O
BRANCH 58 62
ATOM     59  C1  BGC B   5       3.028 -32.421 -23.3010  0.00  0.00     0.000 C
ATOM     60  C2  BGC B   5       1.801 -32.718 -22.4620  0.00  0.00     0.000 C
ATOM     61  C3  BGC B   5       1.242 -31.440 -21.8670  0.00  0.00     0.000 C
ATOM     62  C4  BGC B   5       2.335 -30.717 -21.0960  0.00  0.00     0.000 C
ATOM     63  C5  BGC B   5       3.578 -30.519 -21.9760  0.00  0.00     0.000 C
ATOM     64  O5  BGC B   5       4.002 -31.787 -22.4650  0.00  0.00     0.000 O
ATOM     65   O  BGC B   5       5.006 -30.764 -20.1330  0.00  0.00     0.000 O
ATOM     67  HD  BGC B   5       5.012 -30.707 -19.2690  0.00  0.00     0.000 HD
ATOM     67   O  BGC B   5       5.006 -30.764 -20.1330  0.00  0.00     0.000 O
ATOM     69  HD  BGC B   5       5.012 -30.707 -19.2690  0.00  0.00     0.000 HD
ENDBRANCH 58 62
ENDBRANCH 45 58
ENDBRANCH 44 48
ENDBRANCH 31 44
ENDBRANCH 30 34
ENDBRANCH 17 30
ENDBRANCH 16 20
ENDBRANCH 1 16
TORSDOF 8
ENDMDL
MODEL 61
REMARK VINA RESULT:      -4.9     15.459     20.687
ROOT
ATOM      1  C1  BGC B   1      17.428 -12.658 -27.9280  0.00  0.00     0.000 C
ATOM      2  C2  BGC B   1      16.136 -12.059 -28.4800  0.00  0.00     0.000 C
ATOM      3  C3  BGC B   1      16.450 -10.867 -29.3640  0.00  0.00     0.000 C
ATOM      4  C4  BGC B   1      17.348  -9.877 -28.6330  0.00  0.00     0.000 C
ATOM      5  C5  BGC B   1      18.592 -10.613 -28.1590  0.00  0.00     0.000 C
ATOM      6  O5  BGC B   1      18.162 -11.646 -27.2530  0.00  0.00     0.000 O
ATOM      7   O  BGC B   1      15.447 -13.054 -29.2560  0.00  0.00     0.000 O
ATOM      9  HD  BGC B   1      14.933 -12.780 -29.8970  0.00  0.00     0.000 HD
ATOM      9   O  BGC B   1      15.222 -10.248 -29.7580  0.00  0.00     0.000 O
ATOM     11  HD  BGC B   1      14.708  -9.974 -30.3990  0.00  0.00     0.000 HD
ATOM     11   O  BGC B   1      17.711  -8.832 -29.5090  0.00  0.00     0.000 O
ATOM     13  HD  BGC B   1      17.197  -8.558 -30.1500  0.00  0.00     0.000 HD
ATOM     13   C  BGC B   1      19.618  -9.742 -27.4480  0.00  0.00     0.000 C
ATOM     14   O  BGC B   1      19.059  -9.039 -26.3430  0.00  0.00     0.000 O
ATOM     16  HD  BGC B   1      18.545  -8.765 -26.9840  0.00  0.00     0.000 HD
ENDROOT
BRANCH 1 16
ATOM     16  O4  BGC B   2      17.037 -13.576 -26.9080  0.00  0.00     0.000 O
BRANCH 16 20
ATOM     17  C1  BGC B   2      18.140 -17.108 -25.2220  0.00  0.00     0.000 C
ATOM     18  C2  BGC B   2      18.973 -15.922 -24.7580  0.00  0.00     0.000 C
ATOM     19  C3  BGC B   2      18.252 -14.637 -25.1570  0.00  0.00     0.000 C
ATOM     20  C4  BGC B   2      17.946 -14.641 -26.6410  0.00  0.00     0.000 C
ATOM     21  C5  BGC B   2      17.276 -15.939 -27.0940  0.00  0.00     0.000 C
ATOM     22  O5  BGC B   2      18.080 -17.043 -26.6590  0.00  0.00     0.000 O
ATOM     23   O  BGC B   2      19.123 -15.953 -23.3280  0.00  0.00     0.000 O
ATOM     25  HD  BGC B   2      18.625 -15.492 -23.8670  0.00  0.00     0.000 HD
ATOM     25   O  BGC B   2      19.052 -13.509 -24.8220  0.00  0.00     0.000 O
ATOM     27  HD  BGC B   2      18.555 -13.047 -25.3600  0.00  0.00     0.000 HD
ATOM     27   C  BGC B   2      17.134 -16.036 -28.6080  0.00  0.00     0.000 C
ATOM     28   O  BGC B   2      18.366 -15.903 -29.2980  0.00  0.00     0.000 O
ATOM     30  HD  BGC B   2      17.869 -15.441 -29.8360  0.00  0.00     0.000 HD
BRANCH 17 30
ATOM     30  O4  BGC B   3      18.891 -18.273 -24.9360  0.00  0.00     0.000 O
BRANCH 30 34
ATOM     31  C1  BGC B   3      18.321 -22.202 -23.8580  0.00  0.00     0.000 C
ATOM     32  C2  BGC B   3      17.916 -21.873 -25.2950  0.00  0.00     0.000 C
ATOM     33  C3  BGC B   3      18.532 -20.541 -25.6860  0.00  0.00     0.000 C
ATOM     34  C4  BGC B   3      18.129 -19.458 -24.6860  0.00  0.00     0.000 C
ATOM     35  C5  BGC B   3      18.429 -19.911 -23.2680  0.00  0.00     0.000 C
ATOM     36  O5  BGC B   3      17.801 -21.175 -23.0280  0.00  0.00     0.000 O
ATOM     37   O  BGC B   3      18.417 -22.878 -26.1730  0.00  0.00     0.000 O
ATOM     39  HD  BGC B   3      17.948 -22.531 -26.8120  0.00  0.00     0.000 HD
ATOM     39   O  BGC B   3      18.088 -20.207 -26.9920  0.00  0.00     0.000 O
ATOM     41  HD  BGC B   3      17.618 -19.859 -27.6320  0.00  0.00     0.000 HD
ATOM     41   C  BGC B   3      17.975 -18.928 -22.1940  0.00  0.00     0.000 C
ATOM     42   O  BGC B   3      16.591 -18.693 -22.3060  0.00  0.00     0.000 O
ATOM     44  HD  BGC B   3      16.122 -18.345 -22.9450  0.00  0.00     0.000 HD
BRANCH 31 44
ATOM     44  O4  BGC B   4      17.652 -23.383 -23.4980  0.00  0.00     0.000 O
BRANCH 44 48
ATOM     45  C1  BGC B   4      18.111 -26.719 -21.1600  0.00  0.00     0.000 C
ATOM     46  C2  BGC B   4      17.934 -25.419 -20.3890  0.00  0.00     0.000 C
ATOM     47  C3  BGC B   4      17.390 -24.356 -21.3120  0.00  0.00     0.000 C
ATOM     48  C4  BGC B   4      18.281 -24.223 -22.5520  0.00  0.00     0.000 C
ATOM     49  C5  BGC B   4      18.493 -25.591 -23.2120  0.00  0.00     0.000 C
ATOM     50  O5  BGC B   4      19.014 -26.518 -22.2490  0.00  0.00     0.000 O
ATOM     51   O  BGC B   4      17.010 -25.613 -19.3010  0.00  0.00     0.000 O
ATOM     53  HD  BGC B   4      16.484 -25.210 -19.8570  0.00  0.00     0.000 HD
ATOM     53   O  BGC B   4      17.352 -23.107 -20.6070  0.00  0.00     0.000 O
ATOM     55  HD  BGC B   4      16.825 -22.703 -21.1630  0.00  0.00     0.000 HD
ATOM     55   C  BGC B   4      19.458 -25.579 -24.3840  0.00  0.00     0.000 C
ATOM     56   O  BGC B   4      20.690 -25.015 -23.9280  0.00  0.00     0.000 O
ATOM     58  HD  BGC B   4      20.163 -24.612 -24.4840  0.00  0.00     0.000 HD
BRANCH 45 58
ATOM     58  O4  BGC B   5      18.858 -27.583 -20.3040  0.00  0.00     0.000 O
BRANCH 58 62
ATOM     59  C1  BGC B   5      19.575 -31.655 -20.0620  0.00  0.00     0.000 C
ATOM     60  C2  BGC B   5      20.766 -30.807 -20.4600  0.00  0.00     0.000 C
ATOM     61  C3  BGC B   5      20.521 -29.350 -20.1180  0.00  0.00     0.000 C
ATOM     62  C4  BGC B   5      19.220 -28.891 -20.7560  0.00  0.00     0.000 C
ATOM     63  C5  BGC B   5      18.070 -29.835 -20.3780  0.00  0.00     0.000 C
ATOM     64  O5  BGC B   5      18.422 -31.163 -20.7530  0.00  0.00     0.000 O
ATOM     65   O  BGC B   5      17.043 -29.529 -22.4630  0.00  0.00     0.000 O
ATOM     67  HD  BGC B   5      17.016 -28.977 -23.1300  0.00  0.00     0.000 HD
ATOM     67   O  BGC B   5      17.043 -29.529 -22.4630  0.00  0.00     0.000 O
ATOM     69  HD  BGC B   5      17.016 -28.977 -23.1300  0.00  0.00     0.000 HD
ENDBRANCH 58 62
ENDBRANCH 45 58
ENDBRANCH 44 48
ENDBRANCH 31 44
ENDBRANCH 30 34
ENDBRANCH 17 30
ENDBRANCH 16 20
ENDBRANCH 1 16
TORSDOF 8
ENDMDL
MODEL 62
REMARK VINA RESULT:      -4.9     15.827     21.831
ROOT
ATOM      1  C1  BGC B   1      12.139  10.010  -7.6850  0.00  0.00     0.000 C
ATOM      2  C2  BGC B   1      13.166   9.053  -8.2880  0.00  0.00     0.000 C
ATOM      3  C3  BGC B   1      14.567   9.590  -8.0730  0.00  0.00     0.000 C
ATOM      4  C4  BGC B   1      14.674  11.029  -8.5630  0.00  0.00     0.000 C
ATOM      5  C5  BGC B   1      13.604  11.856  -7.8660  0.00  0.00     0.000 C
ATOM      6  O5  BGC B   1      12.326  11.306  -8.2350  0.00  0.00     0.000 O
ATOM      7   O  BGC B   1      13.048   7.770  -7.6520  0.00  0.00     0.000 O
ATOM      9  HD  BGC B   1      13.755   7.271  -7.6170  0.00  0.00     0.000 HD
ATOM      9   O  BGC B   1      15.496   8.747  -8.7610  0.00  0.00     0.000 O
ATOM     11  HD  BGC B   1      16.203   8.249  -8.7270  0.00  0.00     0.000 HD
ATOM     11   O  BGC B   1      15.953  11.540  -8.2570  0.00  0.00     0.000 O
ATOM     13  HD  BGC B   1      16.661  11.041  -8.2220  0.00  0.00     0.000 HD
ATOM     13   C  BGC B   1      13.613  13.337  -8.2160  0.00  0.00     0.000 C
ATOM     14   O  BGC B   1      13.517  13.564  -9.6190  0.00  0.00     0.000 O
ATOM     16  HD  BGC B   1      14.224  13.065  -9.5840  0.00  0.00     0.000 HD
ENDROOT
BRANCH 1 16
ATOM     16  O4  BGC B   2      10.866   9.583  -8.1660  0.00  0.00     0.000 O
BRANCH 16 20
ATOM     17  C1  BGC B   2       6.954   9.456  -7.0600  0.00  0.00     0.000 C
ATOM     18  C2  BGC B   2       7.382  10.795  -7.6440  0.00  0.00     0.000 C
ATOM     19  C3  BGC B   2       8.726  10.611  -8.3450  0.00  0.00     0.000 C
ATOM     20  C4  BGC B   2       9.735   9.992  -7.4000  0.00  0.00     0.000 C
ATOM     21  C5  BGC B   2       9.188   8.752  -6.6930  0.00  0.00     0.000 C
ATOM     22  O5  BGC B   2       7.940   9.093  -6.0760  0.00  0.00     0.000 O
ATOM     23   O  BGC B   2       6.410  11.249  -8.6010  0.00  0.00     0.000 O
ATOM     25  HD  BGC B   2       7.191  10.881  -8.6720  0.00  0.00     0.000 HD
ATOM     25   O  BGC B   2       9.200  11.866  -8.8200  0.00  0.00     0.000 O
ATOM     27  HD  BGC B   2       9.981  11.498  -8.8910  0.00  0.00     0.000 HD
ATOM     27   C  BGC B   2      10.117   8.231  -5.6040  0.00  0.00     0.000 C
ATOM     28   O  BGC B   2      10.434   9.204  -4.6210  0.00  0.00     0.000 O
ATOM     30  HD  BGC B   2      11.215   8.836  -4.6920  0.00  0.00     0.000 HD
BRANCH 17 30
ATOM     30  O4  BGC B   3       5.767   9.690  -6.3260  0.00  0.00     0.000 O
BRANCH 30 34
ATOM     31  C1  BGC B   3       2.127   7.904  -5.6310  0.00  0.00     0.000 C
ATOM     32  C2  BGC B   3       3.281   7.337  -4.8040  0.00  0.00     0.000 C
ATOM     33  C3  BGC B   3       4.443   8.313  -4.8470  0.00  0.00     0.000 C
ATOM     34  C4  BGC B   3       4.831   8.608  -6.2960  0.00  0.00     0.000 C
ATOM     35  C5  BGC B   3       3.610   9.029  -7.0950  0.00  0.00     0.000 C
ATOM     36  O5  BGC B   3       2.590   8.033  -6.9660  0.00  0.00     0.000 O
ATOM     37   O  BGC B   3       2.866   7.189  -3.4470  0.00  0.00     0.000 O
ATOM     39  HD  BGC B   3       3.599   6.757  -3.2870  0.00  0.00     0.000 HD
ATOM     39   O  BGC B   3       5.535   7.744  -4.1420  0.00  0.00     0.000 O
ATOM     41  HD  BGC B   3       6.269   7.312  -3.9820  0.00  0.00     0.000 HD
ATOM     41   C  BGC B   3       3.888   9.256  -8.5770  0.00  0.00     0.000 C
ATOM     42   O  BGC B   3       4.421   8.088  -9.1550  0.00  0.00     0.000 O
ATOM     44  HD  BGC B   3       5.154   7.656  -8.9950  0.00  0.00     0.000 HD
BRANCH 31 44
ATOM     44  O4  BGC B   4       1.114   6.931  -5.6520  0.00  0.00     0.000 O
BRANCH 44 48
ATOM     45  C1  BGC B   4      -2.947   6.599  -6.1060  0.00  0.00     0.000 C
ATOM     46  C2  BGC B   4      -2.175   6.805  -7.4010  0.00  0.00     0.000 C
ATOM     47  C3  BGC B   4      -0.712   6.520  -7.1660  0.00  0.00     0.000 C
ATOM     48  C4  BGC B   4      -0.189   7.358  -5.9950  0.00  0.00     0.000 C
ATOM     49  C5  BGC B   4      -1.079   7.173  -4.7600  0.00  0.00     0.000 C
ATOM     50  O5  BGC B   4      -2.442   7.474  -5.0950  0.00  0.00     0.000 O
ATOM     51   O  BGC B   4      -2.670   5.913  -8.4170  0.00  0.00     0.000 O
ATOM     53  HD  BGC B   4      -1.947   5.487  -8.2010  0.00  0.00     0.000 HD
ATOM     53   O  BGC B   4       0.020   6.844  -8.3570  0.00  0.00     0.000 O
ATOM     55  HD  BGC B   4       0.742   6.418  -8.1410  0.00  0.00     0.000 HD
ATOM     55   C  BGC B   4      -0.708   8.054  -3.5800  0.00  0.00     0.000 C
ATOM     56   O  BGC B   4      -0.707   9.409  -4.0330  0.00  0.00     0.000 O
ATOM     58  HD  BGC B   4       0.016   8.984  -3.8160  0.00  0.00     0.000 HD
BRANCH 45 58
ATOM     58  O4  BGC B   5      -4.251   7.129  -6.3390  0.00  0.00     0.000 O
BRANCH 58 62
ATOM     59  C1  BGC B   5      -8.212   6.552  -5.2760  0.00  0.00     0.000 C
ATOM     60  C2  BGC B   5      -7.210   6.420  -4.1470  0.00  0.00     0.000 C
ATOM     61  C3  BGC B   5      -5.884   7.046  -4.5360  0.00  0.00     0.000 C
ATOM     62  C4  BGC B   5      -5.398   6.436  -5.8420  0.00  0.00     0.000 C
ATOM     63  C5  BGC B   5      -6.488   6.530  -6.9200  0.00  0.00     0.000 C
ATOM     64  O5  BGC B   5      -7.672   5.906  -6.4340  0.00  0.00     0.000 O
ATOM     65   O  BGC B   5      -5.818   4.494  -7.8700  0.00  0.00     0.000 O
ATOM     67  HD  BGC B   5      -5.138   3.959  -7.9150  0.00  0.00     0.000 HD
ATOM     67   O  BGC B   5      -5.818   4.494  -7.8700  0.00  0.00     0.000 O
ATOM     69  HD  BGC B   5      -5.138   3.959  -7.9150  0.00  0.00     0.000 HD
ENDBRANCH 58 62
ENDBRANCH 45 58
ENDBRANCH 44 48
ENDBRANCH 31 44
ENDBRANCH 30 34
ENDBRANCH 17 30
ENDBRANCH 16 20
ENDBRANCH 1 16
TORSDOF 8
ENDMDL
MODEL 63
REMARK VINA RESULT:      -4.9     25.629     27.270
ROOT
ATOM      1  C1  BGC B   1      -4.294 -10.573 -27.1470  0.00  0.00     0.000 C
ATOM      2  C2  BGC B   1      -4.573  -9.598 -26.0050  0.00  0.00     0.000 C
ATOM      3  C3  BGC B   1      -5.453  -8.463 -26.4910  0.00  0.00     0.000 C
ATOM      4  C4  BGC B   1      -4.865  -7.823 -27.7430  0.00  0.00     0.000 C
ATOM      5  C5  BGC B   1      -4.660  -8.910 -28.7880  0.00  0.00     0.000 C
ATOM      6  O5  BGC B   1      -3.730  -9.863 -28.2410  0.00  0.00     0.000 O
ATOM      7   O  BGC B   1      -5.244 -10.294 -24.9410  0.00  0.00     0.000 O
ATOM      9  HD  BGC B   1      -5.767  -9.835 -24.4260  0.00  0.00     0.000 HD
ATOM      9   O  BGC B   1      -5.588  -7.499 -25.4420  0.00  0.00     0.000 O
ATOM     11  HD  BGC B   1      -6.111  -7.040 -24.9270  0.00  0.00     0.000 HD
ATOM     11   O  BGC B   1      -5.753  -6.844 -28.2360  0.00  0.00     0.000 O
ATOM     13  HD  BGC B   1      -6.276  -6.384 -27.7210  0.00  0.00     0.000 HD
ATOM     13   C  BGC B   1      -4.120  -8.419 -30.1240  0.00  0.00     0.000 C
ATOM     14   O  BGC B   1      -2.903  -7.691 -29.9810  0.00  0.00     0.000 O
ATOM     16  HD  BGC B   1      -3.426  -7.232 -29.4660  0.00  0.00     0.000 HD
ENDROOT
BRANCH 1 16
ATOM     16  O4  BGC B   2      -3.255 -11.436 -26.6890  0.00  0.00     0.000 O
BRANCH 16 20
ATOM     17  C1  BGC B   2      -1.652 -15.104 -27.4050  0.00  0.00     0.000 C
ATOM     18  C2  BGC B   2      -1.150 -14.022 -28.3510  0.00  0.00     0.000 C
ATOM     19  C3  BGC B   2      -1.522 -12.660 -27.7700  0.00  0.00     0.000 C
ATOM     20  C4  BGC B   2      -3.008 -12.595 -27.4800  0.00  0.00     0.000 C
ATOM     21  C5  BGC B   2      -3.500 -13.806 -26.6860  0.00  0.00     0.000 C
ATOM     22  O5  BGC B   2      -3.087 -14.997 -27.3680  0.00  0.00     0.000 O
ATOM     23   O  BGC B   2       0.279 -14.103 -28.4810  0.00  0.00     0.000 O
ATOM     25  HD  BGC B   2      -0.251 -13.580 -28.0390  0.00  0.00     0.000 HD
ATOM     25   O  BGC B   2      -1.151 -11.629 -28.6770  0.00  0.00     0.000 O
ATOM     27  HD  BGC B   2      -1.682 -11.105 -28.2360  0.00  0.00     0.000 HD
ATOM     27   C  BGC B   2      -5.017 -13.851 -26.5520  0.00  0.00     0.000 C
ATOM     28   O  BGC B   2      -5.693 -13.828 -27.7980  0.00  0.00     0.000 O
ATOM     30  HD  BGC B   2      -6.224 -13.304 -27.3570  0.00  0.00     0.000 HD
BRANCH 17 30
ATOM     30  O4  BGC B   3      -1.390 -16.346 -28.0300  0.00  0.00     0.000 O
BRANCH 30 34
ATOM     31  C1  BGC B   3      -0.284 -20.175 -27.0100  0.00  0.00     0.000 C
ATOM     32  C2  BGC B   3      -1.769 -19.872 -26.8180  0.00  0.00     0.000 C
ATOM     33  C3  BGC B   3      -2.115 -18.608 -27.5850  0.00  0.00     0.000 C
ATOM     34  C4  BGC B   3      -1.206 -17.459 -27.1490  0.00  0.00     0.000 C
ATOM     35  C5  BGC B   3       0.251 -17.879 -27.2290  0.00  0.00     0.000 C
ATOM     36  O5  BGC B   3       0.443 -19.080 -26.4750  0.00  0.00     0.000 O
ATOM     37   O  BGC B   3      -2.546 -20.946 -27.3440  0.00  0.00     0.000 O
ATOM     39  HD  BGC B   3      -3.250 -20.588 -26.9890  0.00  0.00     0.000 HD
ATOM     39   O  BGC B   3      -3.477 -18.291 -27.3390  0.00  0.00     0.000 O
ATOM     41  HD  BGC B   3      -4.181 -17.933 -26.9840  0.00  0.00     0.000 HD
ATOM     41   C  BGC B   3       1.228 -16.823 -26.7240  0.00  0.00     0.000 C
ATOM     42   O  BGC B   3       0.932 -16.486 -25.3890  0.00  0.00     0.000 O
ATOM     44  HD  BGC B   3       0.228 -16.128 -25.0340  0.00  0.00     0.000 HD
BRANCH 31 44
ATOM     44  O4  BGC B   4       0.020 -21.287 -26.2070  0.00  0.00     0.000 O
BRANCH 44 48
ATOM     45  C1  BGC B   4       3.214 -23.645 -25.1870  0.00  0.00     0.000 C
ATOM     46  C2  BGC B   4       3.084 -22.363 -24.3770  0.00  0.00     0.000 C
ATOM     47  C3  BGC B   4       1.698 -21.793 -24.5570  0.00  0.00     0.000 C
ATOM     48  C4  BGC B   4       1.384 -21.619 -26.0460  0.00  0.00     0.000 C
ATOM     49  C5  BGC B   4       1.638 -22.926 -26.8070  0.00  0.00     0.000 C
ATOM     50  O5  BGC B   4       2.981 -23.372 -26.5690  0.00  0.00     0.000 O
ATOM     51   O  BGC B   4       3.301 -22.638 -22.9800  0.00  0.00     0.000 O
ATOM     53  HD  BGC B   4       2.437 -22.581 -22.9750  0.00  0.00     0.000 HD
ATOM     53   O  BGC B   4       1.632 -20.522 -23.8960  0.00  0.00     0.000 O
ATOM     55  HD  BGC B   4       0.768 -20.465 -23.8910  0.00  0.00     0.000 HD
ATOM     55   C  BGC B   4       1.465 -22.819 -28.3120  0.00  0.00     0.000 C
ATOM     56   O  BGC B   4       2.313 -21.766 -28.7740  0.00  0.00     0.000 O
ATOM     58  HD  BGC B   4       1.449 -21.709 -28.7690  0.00  0.00     0.000 HD
BRANCH 45 58
ATOM     58  O4  BGC B   5       4.603 -23.976 -25.1740  0.00  0.00     0.000 O
BRANCH 58 62
ATOM     59  C1  BGC B   5       7.210 -27.164 -25.6050  0.00  0.00     0.000 C
ATOM     60  C2  BGC B   5       6.377 -26.836 -26.8270  0.00  0.00     0.000 C
ATOM     61  C3  BGC B   5       5.788 -25.443 -26.7130  0.00  0.00     0.000 C
ATOM     62  C4  BGC B   5       5.013 -25.325 -25.4100  0.00  0.00     0.000 C
ATOM     63  C5  BGC B   5       5.888 -25.747 -24.2200  0.00  0.00     0.000 C
ATOM     64  O5  BGC B   5       6.372 -27.066 -24.4490  0.00  0.00     0.000 O
ATOM     65   O  BGC B   5       4.038 -26.634 -23.0860  0.00  0.00     0.000 O
ATOM     67  HD  BGC B   5       3.174 -26.582 -23.0570  0.00  0.00     0.000 HD
ATOM     67   O  BGC B   5       4.038 -26.634 -23.0860  0.00  0.00     0.000 O
ATOM     69  HD  BGC B   5       3.174 -26.582 -23.0570  0.00  0.00     0.000 HD
ENDBRANCH 58 62
ENDBRANCH 45 58
ENDBRANCH 44 48
ENDBRANCH 31 44
ENDBRANCH 30 34
ENDBRANCH 17 30
ENDBRANCH 16 20
ENDBRANCH 1 16
TORSDOF 8
ENDMDL
MODEL 64
REMARK VINA RESULT:      -4.9     27.539     29.608
ROOT
ATOM      1  C1  BGC B   1      -6.203 -17.752  -6.5330  0.00  0.00     0.000 C
ATOM      2  C2  BGC B   1      -7.526 -17.995  -5.8090  0.00  0.00     0.000 C
ATOM      3  C3  BGC B   1      -7.980 -16.726  -5.1140  0.00  0.00     0.000 C
ATOM      4  C4  BGC B   1      -6.869 -16.164  -4.2360  0.00  0.00     0.000 C
ATOM      5  C5  BGC B   1      -5.630 -15.963  -5.0960  0.00  0.00     0.000 C
ATOM      6  O5  BGC B   1      -5.247 -17.253  -5.6070  0.00  0.00     0.000 O
ATOM      7   O  BGC B   1      -8.522 -18.393  -6.7650  0.00  0.00     0.000 O
ATOM      9  HD  BGC B   1      -9.349 -18.213  -6.5830  0.00  0.00     0.000 HD
ATOM      9   O  BGC B   1      -9.146 -17.015  -4.3380  0.00  0.00     0.000 O
ATOM     11  HD  BGC B   1      -9.974 -16.835  -4.1560  0.00  0.00     0.000 HD
ATOM     11   O  BGC B   1      -7.278 -14.931  -3.6850  0.00  0.00     0.000 O
ATOM     13  HD  BGC B   1      -8.105 -14.751  -3.5030  0.00  0.00     0.000 HD
ATOM     13   C  BGC B   1      -4.438 -15.358  -4.3680  0.00  0.00     0.000 C
ATOM     14   O  BGC B   1      -4.071 -16.106  -3.2130  0.00  0.00     0.000 O
ATOM     16  HD  BGC B   1      -4.899 -15.926  -3.0320  0.00  0.00     0.000 HD
ENDROOT
BRANCH 1 16
ATOM     16  O4  BGC B   2      -5.716 -19.037  -6.9140  0.00  0.00     0.000 O
BRANCH 16 20
ATOM     17  C1  BGC B   2      -3.405 -20.877  -9.7090  0.00  0.00     0.000 C
ATOM     18  C2  BGC B   2      -2.613 -20.040  -8.7160  0.00  0.00     0.000 C
ATOM     19  C3  BGC B   2      -3.517 -19.711  -7.5300  0.00  0.00     0.000 C
ATOM     20  C4  BGC B   2      -4.801 -19.063  -8.0060  0.00  0.00     0.000 C
ATOM     21  C5  BGC B   2      -5.463 -19.847  -9.1400  0.00  0.00     0.000 C
ATOM     22  O5  BGC B   2      -4.494 -20.058 -10.1750  0.00  0.00     0.000 O
ATOM     23   O  BGC B   2      -1.472 -20.778  -8.2470  0.00  0.00     0.000 O
ATOM     25  HD  BGC B   2      -2.246 -20.593  -7.9040  0.00  0.00     0.000 HD
ATOM     25   O  BGC B   2      -2.835 -18.848  -6.6270  0.00  0.00     0.000 O
ATOM     27  HD  BGC B   2      -3.608 -18.663  -6.2830  0.00  0.00     0.000 HD
ATOM     27   C  BGC B   2      -6.648 -19.113  -9.7560  0.00  0.00     0.000 C
ATOM     28   O  BGC B   2      -6.320 -17.820 -10.2380  0.00  0.00     0.000 O
ATOM     30  HD  BGC B   2      -7.093 -17.635  -9.8940  0.00  0.00     0.000 HD
BRANCH 17 30
ATOM     30  O4  BGC B   3      -2.575 -21.066 -10.8400  0.00  0.00     0.000 O
BRANCH 30 34
ATOM     31  C1  BGC B   3      -1.460 -24.210 -13.2460  0.00  0.00     0.000 C
ATOM     32  C2  BGC B   3      -2.588 -23.348 -13.8110  0.00  0.00     0.000 C
ATOM     33  C3  BGC B   3      -2.629 -22.033 -13.0530  0.00  0.00     0.000 C
ATOM     34  C4  BGC B   3      -2.764 -22.292 -11.5530  0.00  0.00     0.000 C
ATOM     35  C5  BGC B   3      -1.698 -23.268 -11.0870  0.00  0.00     0.000 C
ATOM     36  O5  BGC B   3      -1.760 -24.457 -11.8820  0.00  0.00     0.000 O
ATOM     37   O  BGC B   3      -2.332 -23.069 -15.1860  0.00  0.00     0.000 O
ATOM     39  HD  BGC B   3      -3.128 -22.735 -15.2490  0.00  0.00     0.000 HD
ATOM     39   O  BGC B   3      -3.728 -21.272 -13.5310  0.00  0.00     0.000 O
ATOM     41  HD  BGC B   3      -4.524 -20.937 -13.5950  0.00  0.00     0.000 HD
ATOM     41   C  BGC B   3      -1.813 -23.656  -9.6170  0.00  0.00     0.000 C
ATOM     42   O  BGC B   3      -3.078 -24.219  -9.3610  0.00  0.00     0.000 O
ATOM     44  HD  BGC B   3      -3.874 -23.885  -9.4250  0.00  0.00     0.000 HD
BRANCH 31 44
ATOM     44  O4  BGC B   4      -1.519 -25.452 -13.8990  0.00  0.00     0.000 O
BRANCH 44 48
ATOM     45  C1  BGC B   4       0.945 -28.434 -15.2570  0.00  0.00     0.000 C
ATOM     46  C2  BGC B   4       0.687 -28.453 -13.7570  0.00  0.00     0.000 C
ATOM     47  C3  BGC B   4      -0.509 -27.589 -13.4410  0.00  0.00     0.000 C
ATOM     48  C4  BGC B   4      -0.315 -26.182 -14.0170  0.00  0.00     0.000 C
ATOM     49  C5  BGC B   4       0.042 -26.254 -15.5070  0.00  0.00     0.000 C
ATOM     50  O5  BGC B   4       1.190 -27.095 -15.6910  0.00  0.00     0.000 O
ATOM     51   O  BGC B   4       0.422 -29.800 -13.3200  0.00  0.00     0.000 O
ATOM     53  HD  BGC B   4      -0.389 -29.497 -13.3290  0.00  0.00     0.000 HD
ATOM     53   O  BGC B   4      -0.659 -27.512 -12.0170  0.00  0.00     0.000 O
ATOM     55  HD  BGC B   4      -1.471 -27.209 -12.0260  0.00  0.00     0.000 HD
ATOM     55   C  BGC B   4       0.367 -24.913 -16.1400  0.00  0.00     0.000 C
ATOM     56   O  BGC B   4       1.414 -24.313 -15.3750  0.00  0.00     0.000 O
ATOM     58  HD  BGC B   4       0.603 -24.010 -15.3850  0.00  0.00     0.000 HD
BRANCH 45 58
ATOM     58  O4  BGC B   5       2.219 -29.049 -15.4430  0.00  0.00     0.000 O
BRANCH 58 62
ATOM     59  C1  BGC B   5       4.287 -31.571 -17.9950  0.00  0.00     0.000 C
ATOM     60  C2  BGC B   5       3.631 -30.375 -18.6540  0.00  0.00     0.000 C
ATOM     61  C3  BGC B   5       3.274 -29.325 -17.6190  0.00  0.00     0.000 C
ATOM     62  C4  BGC B   5       2.419 -29.955 -16.5310  0.00  0.00     0.000 C
ATOM     63  C5  BGC B   5       3.103 -31.206 -15.9600  0.00  0.00     0.000 C
ATOM     64  O5  BGC B   5       3.378 -32.107 -17.0280  0.00  0.00     0.000 O
ATOM     65   O  BGC B   5       1.038 -32.261 -15.6160  0.00  0.00     0.000 O
ATOM     67  HD  BGC B   5       0.195 -32.085 -15.5210  0.00  0.00     0.000 HD
ATOM     67   O  BGC B   5       1.038 -32.261 -15.6160  0.00  0.00     0.000 O
ATOM     69  HD  BGC B   5       0.195 -32.085 -15.5210  0.00  0.00     0.000 HD
ENDBRANCH 58 62
ENDBRANCH 45 58
ENDBRANCH 44 48
ENDBRANCH 31 44
ENDBRANCH 30 34
ENDBRANCH 17 30
ENDBRANCH 16 20
ENDBRANCH 1 16
TORSDOF 8
ENDMDL
MODEL 65
REMARK VINA RESULT:      -4.9      5.843      8.833
ROOT
ATOM      1  C1  BGC B   1      21.259  -0.715 -21.1630  0.00  0.00     0.000 C
ATOM      2  C2  BGC B   1      21.154  -0.180 -22.5900  0.00  0.00     0.000 C
ATOM      3  C3  BGC B   1      21.973   1.089 -22.7310  0.00  0.00     0.000 C
ATOM      4  C4  BGC B   1      21.601   2.093 -21.6470  0.00  0.00     0.000 C
ATOM      5  C5  BGC B   1      21.769   1.422 -20.2910  0.00  0.00     0.000 C
ATOM      6  O5  BGC B   1      20.867   0.301 -20.2510  0.00  0.00     0.000 O
ATOM      7   O  BGC B   1      21.655  -1.169 -23.5050  0.00  0.00     0.000 O
ATOM      9  HD  BGC B   1      21.990  -0.892 -24.2540  0.00  0.00     0.000 HD
ATOM      9   O  BGC B   1      21.751   1.640 -24.0330  0.00  0.00     0.000 O
ATOM     11  HD  BGC B   1      22.086   1.917 -24.7820  0.00  0.00     0.000 HD
ATOM     11   O  BGC B   1      22.447   3.219 -21.7340  0.00  0.00     0.000 O
ATOM     13  HD  BGC B   1      22.782   3.496 -22.4830  0.00  0.00     0.000 HD
ATOM     13   C  BGC B   1      21.481   2.318 -19.0950  0.00  0.00     0.000 C
ATOM     14   O  BGC B   1      20.183   2.901 -19.1540  0.00  0.00     0.000 O
ATOM     16  HD  BGC B   1      20.517   3.178 -19.9030  0.00  0.00     0.000 HD
ENDROOT
BRANCH 1 16
ATOM     16  O4  BGC B   2      20.260  -1.727 -21.0440  0.00  0.00     0.000 O
BRANCH 16 20
ATOM     17  C1  BGC B   2      19.531  -5.303 -19.2500  0.00  0.00     0.000 C
ATOM     18  C2  BGC B   2      19.548  -4.127 -18.2850  0.00  0.00     0.000 C
ATOM     19  C3  BGC B   2      19.461  -2.835 -19.0930  0.00  0.00     0.000 C
ATOM     20  C4  BGC B   2      20.551  -2.794 -20.1450  0.00  0.00     0.000 C
ATOM     21  C5  BGC B   2      20.616  -4.081 -20.9670  0.00  0.00     0.000 C
ATOM     22  O5  BGC B   2      20.711  -5.193 -20.0680  0.00  0.00     0.000 O
ATOM     23   O  BGC B   2      18.421  -4.202 -17.3960  0.00  0.00     0.000 O
ATOM     25  HD  BGC B   2      18.596  -3.727 -18.0980  0.00  0.00     0.000 HD
ATOM     25   O  BGC B   2      19.571  -1.712 -18.2260  0.00  0.00     0.000 O
ATOM     27  HD  BGC B   2      19.746  -1.237 -18.9280  0.00  0.00     0.000 HD
ATOM     27   C  BGC B   2      21.823  -4.132 -21.8960  0.00  0.00     0.000 C
ATOM     28   O  BGC B   2      23.060  -3.968 -21.2220  0.00  0.00     0.000 O
ATOM     30  HD  BGC B   2      23.235  -3.493 -21.9240  0.00  0.00     0.000 HD
BRANCH 17 30
ATOM     30  O4  BGC B   3      19.726  -6.471 -18.4760  0.00  0.00     0.000 O
BRANCH 30 34
ATOM     31  C1  BGC B   3      19.941 -10.551 -18.9550  0.00  0.00     0.000 C
ATOM     32  C2  BGC B   3      21.188  -9.793 -19.4070  0.00  0.00     0.000 C
ATOM     33  C3  BGC B   3      21.150  -8.392 -18.8220  0.00  0.00     0.000 C
ATOM     34  C4  BGC B   3      19.848  -7.692 -19.2120  0.00  0.00     0.000 C
ATOM     35  C5  BGC B   3      18.655  -8.565 -18.8640  0.00  0.00     0.000 C
ATOM     36  O5  BGC B   3      18.816  -9.854 -19.4660  0.00  0.00     0.000 O
ATOM     37   O  BGC B   3      22.352 -10.455 -18.9150  0.00  0.00     0.000 O
ATOM     39  HD  BGC B   3      22.837  -9.934 -19.4080  0.00  0.00     0.000 HD
ATOM     39   O  BGC B   3      22.272  -7.671 -19.3090  0.00  0.00     0.000 O
ATOM     41  HD  BGC B   3      22.756  -7.149 -19.8020  0.00  0.00     0.000 HD
ATOM     41   C  BGC B   3      17.315  -7.985 -19.3020  0.00  0.00     0.000 C
ATOM     42   O  BGC B   3      17.314  -7.759 -20.6920  0.00  0.00     0.000 O
ATOM     44  HD  BGC B   3      17.799  -7.237 -21.1850  0.00  0.00     0.000 HD
BRANCH 31 44
ATOM     44  O4  BGC B   4      19.960 -11.801 -19.5960  0.00  0.00     0.000 O
BRANCH 44 48
ATOM     45  C1  BGC B   4      19.249 -15.770 -18.8550  0.00  0.00     0.000 C
ATOM     46  C2  BGC B   4      18.006 -14.892 -18.8710  0.00  0.00     0.000 C
ATOM     47  C3  BGC B   4      18.331 -13.572 -19.5270  0.00  0.00     0.000 C
ATOM     48  C4  BGC B   4      19.539 -12.922 -18.8450  0.00  0.00     0.000 C
ATOM     49  C5  BGC B   4      20.714 -13.905 -18.7780  0.00  0.00     0.000 C
ATOM     50  O5  BGC B   4      20.296 -15.118 -18.1340  0.00  0.00     0.000 O
ATOM     51   O  BGC B   4      16.955 -15.539 -19.6120  0.00  0.00     0.000 O
ATOM     53  HD  BGC B   4      17.213 -14.969 -20.2100  0.00  0.00     0.000 HD
ATOM     53   O  BGC B   4      17.191 -12.709 -19.4180  0.00  0.00     0.000 O
ATOM     55  HD  BGC B   4      17.449 -12.139 -20.0170  0.00  0.00     0.000 HD
ATOM     55   C  BGC B   4      21.921 -13.390 -18.0150  0.00  0.00     0.000 C
ATOM     56   O  BGC B   4      21.480 -13.005 -16.7110  0.00  0.00     0.000 O
ATOM     58  HD  BGC B   4      21.738 -12.435 -17.3100  0.00  0.00     0.000 HD
BRANCH 45 58
ATOM     58  O4  BGC B   5      18.938 -16.872 -18.0030  0.00  0.00     0.000 O
BRANCH 58 62
ATOM     59  C1  BGC B   5      19.491 -20.958 -17.6120  0.00  0.00     0.000 C
ATOM     60  C2  BGC B   5      20.744 -20.117 -17.4800  0.00  0.00     0.000 C
ATOM     61  C3  BGC B   5      20.387 -18.665 -17.2220  0.00  0.00     0.000 C
ATOM     62  C4  BGC B   5      19.447 -18.173 -18.3110  0.00  0.00     0.000 C
ATOM     63  C5  BGC B   5      18.239 -19.111 -18.4480  0.00  0.00     0.000 C
ATOM     64  O5  BGC B   5      18.709 -20.433 -18.6900  0.00  0.00     0.000 O
ATOM     65   O  BGC B   5      18.126 -18.739 -20.7600  0.00  0.00     0.000 O
ATOM     67  HD  BGC B   5      18.367 -18.170 -21.3660  0.00  0.00     0.000 HD
ATOM     67   O  BGC B   5      18.126 -18.739 -20.7600  0.00  0.00     0.000 O
ATOM     69  HD  BGC B   5      18.367 -18.170 -21.3660  0.00  0.00     0.000 HD
ENDBRANCH 58 62
ENDBRANCH 45 58
ENDBRANCH 44 48
ENDBRANCH 31 44
ENDBRANCH 30 34
ENDBRANCH 17 30
ENDBRANCH 16 20
ENDBRANCH 1 16
TORSDOF 8
ENDMDL
MODEL 66
REMARK VINA RESULT:      -4.9     27.122     30.148
ROOT
ATOM      1  C1  BGC B   1      -1.993 -21.447  -7.8310  0.00  0.00     0.000 C
ATOM      2  C2  BGC B   1      -2.104 -20.077  -8.4970  0.00  0.00     0.000 C
ATOM      3  C3  BGC B   1      -3.211 -20.089  -9.5330  0.00  0.00     0.000 C
ATOM      4  C4  BGC B   1      -3.031 -21.253 -10.5000  0.00  0.00     0.000 C
ATOM      5  C5  BGC B   1      -2.953 -22.541  -9.6940  0.00  0.00     0.000 C
ATOM      6  O5  BGC B   1      -1.807 -22.440  -8.8300  0.00  0.00     0.000 O
ATOM      7   O  BGC B   1      -2.403 -19.088  -7.4970  0.00  0.00     0.000 O
ATOM      9  HD  BGC B   1      -2.838 -18.382  -7.7470  0.00  0.00     0.000 HD
ATOM      9   O  BGC B   1      -3.205 -18.841 -10.2310  0.00  0.00     0.000 O
ATOM     11  HD  BGC B   1      -3.640 -18.134 -10.4810  0.00  0.00     0.000 HD
ATOM     11   O  BGC B   1      -4.127 -21.306 -11.3870  0.00  0.00     0.000 O
ATOM     13  HD  BGC B   1      -4.562 -20.600 -11.6370  0.00  0.00     0.000 HD
ATOM     13   C  BGC B   1      -2.821 -23.808 -10.5270  0.00  0.00     0.000 C
ATOM     14   O  BGC B   1      -1.707 -23.761 -11.4130  0.00  0.00     0.000 O
ATOM     16  HD  BGC B   1      -2.142 -23.055 -11.6630  0.00  0.00     0.000 HD
ENDROOT
BRANCH 1 16
ATOM     16  O4  BGC B   2      -0.775 -21.432  -7.0890  0.00  0.00     0.000 O
BRANCH 16 20
ATOM     17  C1  BGC B   2       0.936 -23.138  -3.8190  0.00  0.00     0.000 C
ATOM     18  C2  BGC B   2       1.075 -23.970  -5.0850  0.00  0.00     0.000 C
ATOM     19  C3  BGC B   2       0.734 -23.088  -6.2840  0.00  0.00     0.000 C
ATOM     20  C4  BGC B   2      -0.628 -22.450  -6.1030  0.00  0.00     0.000 C
ATOM     21  C5  BGC B   2      -0.783 -21.787  -4.7340  0.00  0.00     0.000 C
ATOM     22  O5  BGC B   2      -0.445 -22.745  -3.7220  0.00  0.00     0.000 O
ATOM     23   O  BGC B   2       2.424 -24.446  -5.2190  0.00  0.00     0.000 O
ATOM     25  HD  BGC B   2       1.976 -23.807  -5.5950  0.00  0.00     0.000 HD
ATOM     25   O  BGC B   2       0.761 -23.862  -7.4780  0.00  0.00     0.000 O
ATOM     27  HD  BGC B   2       0.313 -23.224  -7.8540  0.00  0.00     0.000 HD
ATOM     27   C  BGC B   2      -2.204 -21.309  -4.4630  0.00  0.00     0.000 C
ATOM     28   O  BGC B   2      -3.175 -22.337  -4.5760  0.00  0.00     0.000 O
ATOM     30  HD  BGC B   2      -3.623 -21.698  -4.9530  0.00  0.00     0.000 HD
BRANCH 17 30
ATOM     30  O4  BGC B   3       1.148 -24.014  -2.7280  0.00  0.00     0.000 O
BRANCH 30 34
ATOM     31  C1  BGC B   3       3.513 -23.403   0.5830  0.00  0.00     0.000 C
ATOM     32  C2  BGC B   3       2.087 -23.856   0.8960  0.00  0.00     0.000 C
ATOM     33  C3  BGC B   3       1.462 -24.421  -0.3670  0.00  0.00     0.000 C
ATOM     34  C4  BGC B   3       1.531 -23.394  -1.4960  0.00  0.00     0.000 C
ATOM     35  C5  BGC B   3       2.951 -22.881  -1.6580  0.00  0.00     0.000 C
ATOM     36  O5  BGC B   3       3.424 -22.385  -0.4010  0.00  0.00     0.000 O
ATOM     37   O  BGC B   3       2.121 -24.885   1.8830  0.00  0.00     0.000 O
ATOM     39  HD  BGC B   3       1.259 -24.828   1.9480  0.00  0.00     0.000 HD
ATOM     39   O  BGC B   3       0.114 -24.768  -0.0860  0.00  0.00     0.000 O
ATOM     41  HD  BGC B   3      -0.747 -24.711  -0.0210  0.00  0.00     0.000 HD
ATOM     41   C  BGC B   3       3.098 -21.782  -2.7040  0.00  0.00     0.000 C
ATOM     42   O  BGC B   3       2.262 -20.694  -2.3860  0.00  0.00     0.000 O
ATOM     44  HD  BGC B   3       1.401 -20.637  -2.3200  0.00  0.00     0.000 HD
BRANCH 31 44
ATOM     44  O4  BGC B   4       4.020 -22.795   1.7430  0.00  0.00     0.000 O
BRANCH 44 48
ATOM     45  C1  BGC B   4       7.458 -21.039   3.1220  0.00  0.00     0.000 C
ATOM     46  C2  BGC B   4       6.541 -20.115   2.3340  0.00  0.00     0.000 C
ATOM     47  C3  BGC B   4       5.171 -20.737   2.2260  0.00  0.00     0.000 C
ATOM     48  C4  BGC B   4       5.273 -22.150   1.6430  0.00  0.00     0.000 C
ATOM     49  C5  BGC B   4       6.290 -22.985   2.4300  0.00  0.00     0.000 C
ATOM     50  O5  BGC B   4       7.553 -22.304   2.4650  0.00  0.00     0.000 O
ATOM     51   O  BGC B   4       6.429 -18.844   3.0030  0.00  0.00     0.000 O
ATOM     53  HD  BGC B   4       5.671 -19.190   3.2380  0.00  0.00     0.000 HD
ATOM     53   O  BGC B   4       4.358 -19.919   1.3720  0.00  0.00     0.000 O
ATOM     55  HD  BGC B   4       3.600 -20.265   1.6070  0.00  0.00     0.000 HD
ATOM     55   C  BGC B   4       6.547 -24.367   1.8550  0.00  0.00     0.000 C
ATOM     56   O  BGC B   4       6.939 -24.205   0.4910  0.00  0.00     0.000 O
ATOM     58  HD  BGC B   4       6.181 -24.551   0.7260  0.00  0.00     0.000 HD
BRANCH 45 58
ATOM     58  O4  BGC B   5       8.776 -20.515   2.9600  0.00  0.00     0.000 O
BRANCH 58 62
ATOM     59  C1  BGC B   5      12.266 -20.037   5.1370  0.00  0.00     0.000 C
ATOM     60  C2  BGC B   5      12.196 -21.290   4.2870  0.00  0.00     0.000 C
ATOM     61  C3  BGC B   5      11.104 -21.164   3.2420  0.00  0.00     0.000 C
ATOM     62  C4  BGC B   5       9.787 -20.827   3.9220  0.00  0.00     0.000 C
ATOM     63  C5  BGC B   5       9.945 -19.598   4.8280  0.00  0.00     0.000 C
ATOM     64  O5  BGC B   5      10.992 -19.845   5.7610  0.00  0.00     0.000 O
ATOM     65   O  BGC B   5       8.390 -20.446   6.3650  0.00  0.00     0.000 O
ATOM     67  HD  BGC B   5       7.735 -21.009   6.4230  0.00  0.00     0.000 HD
ATOM     67   O  BGC B   5       8.390 -20.446   6.3650  0.00  0.00     0.000 O
ATOM     69  HD  BGC B   5       7.735 -21.009   6.4230  0.00  0.00     0.000 HD
ENDBRANCH 58 62
ENDBRANCH 45 58
ENDBRANCH 44 48
ENDBRANCH 31 44
ENDBRANCH 30 34
ENDBRANCH 17 30
ENDBRANCH 16 20
ENDBRANCH 1 16
TORSDOF 8
ENDMDL
MODEL 67
REMARK VINA RESULT:      -4.8     25.258     26.683
ROOT
ATOM      1  C1  BGC B   1      -5.191  -8.402 -27.6100  0.00  0.00     0.000 C
ATOM      2  C2  BGC B   1      -4.739  -7.014 -27.1590  0.00  0.00     0.000 C
ATOM      3  C3  BGC B   1      -5.936  -6.090 -27.0370  0.00  0.00     0.000 C
ATOM      4  C4  BGC B   1      -6.760  -6.105 -28.3190  0.00  0.00     0.000 C
ATOM      5  C5  BGC B   1      -7.146  -7.544 -28.6270  0.00  0.00     0.000 C
ATOM      6  O5  BGC B   1      -5.927  -8.284 -28.8200  0.00  0.00     0.000 O
ATOM      7   O  BGC B   1      -4.092  -7.121 -25.8800  0.00  0.00     0.000 O
ATOM      9  HD  BGC B   1      -4.117  -6.430 -25.3570  0.00  0.00     0.000 HD
ATOM      9   O  BGC B   1      -5.472  -4.769 -26.7440  0.00  0.00     0.000 O
ATOM     11  HD  BGC B   1      -5.497  -4.079 -26.2220  0.00  0.00     0.000 HD
ATOM     11   O  BGC B   1      -7.921  -5.322 -28.1440  0.00  0.00     0.000 O
ATOM     13  HD  BGC B   1      -7.946  -4.632 -27.6210  0.00  0.00     0.000 HD
ATOM     13   C  BGC B   1      -8.019  -7.720 -29.8610  0.00  0.00     0.000 C
ATOM     14   O  BGC B   1      -7.433  -7.148 -31.0270  0.00  0.00     0.000 O
ATOM     16  HD  BGC B   1      -7.458  -6.458 -30.5040  0.00  0.00     0.000 HD
ENDROOT
BRANCH 1 16
ATOM     16  O4  BGC B   2      -4.006  -9.112 -27.9630  0.00  0.00     0.000 O
BRANCH 16 20
ATOM     17  C1  BGC B   2      -2.495 -12.887 -27.9300  0.00  0.00     0.000 C
ATOM     18  C2  BGC B   2      -3.273 -12.551 -29.1940  0.00  0.00     0.000 C
ATOM     19  C3  BGC B   2      -3.467 -11.038 -29.2550  0.00  0.00     0.000 C
ATOM     20  C4  BGC B   2      -4.106 -10.533 -27.9780  0.00  0.00     0.000 C
ATOM     21  C5  BGC B   2      -3.398 -11.055 -26.7270  0.00  0.00     0.000 C
ATOM     22  O5  BGC B   2      -3.310 -12.483 -26.8140  0.00  0.00     0.000 O
ATOM     23   O  BGC B   2      -2.540 -12.978 -30.3540  0.00  0.00     0.000 O
ATOM     25  HD  BGC B   2      -2.667 -12.208 -29.9780  0.00  0.00     0.000 HD
ATOM     25   O  BGC B   2      -4.274 -10.698 -30.3770  0.00  0.00     0.000 O
ATOM     27  HD  BGC B   2      -4.401  -9.928 -30.0020  0.00  0.00     0.000 HD
ATOM     27   C  BGC B   2      -4.138 -10.714 -25.4390  0.00  0.00     0.000 C
ATOM     28   O  BGC B   2      -5.478 -11.177 -25.4210  0.00  0.00     0.000 O
ATOM     30  HD  BGC B   2      -5.605 -10.407 -25.0460  0.00  0.00     0.000 HD
BRANCH 17 30
ATOM     30  O4  BGC B   3      -2.434 -14.299 -27.8510  0.00  0.00     0.000 O
BRANCH 30 34
ATOM     31  C1  BGC B   3       0.114 -17.273 -26.5910  0.00  0.00     0.000 C
ATOM     32  C2  BGC B   3      -0.527 -16.466 -25.4620  0.00  0.00     0.000 C
ATOM     33  C3  BGC B   3      -1.713 -15.699 -26.0190  0.00  0.00     0.000 C
ATOM     34  C4  BGC B   3      -1.277 -14.836 -27.2010  0.00  0.00     0.000 C
ATOM     35  C5  BGC B   3      -0.521 -15.674 -28.2180  0.00  0.00     0.000 C
ATOM     36  O5  BGC B   3       0.562 -16.348 -27.5680  0.00  0.00     0.000 O
ATOM     37   O  BGC B   3      -0.997 -17.354 -24.4500  0.00  0.00     0.000 O
ATOM     39  HD  BGC B   3      -1.149 -16.669 -23.9430  0.00  0.00     0.000 HD
ATOM     39   O  BGC B   3      -2.254 -14.894 -24.9830  0.00  0.00     0.000 O
ATOM     41  HD  BGC B   3      -2.407 -14.209 -24.4750  0.00  0.00     0.000 HD
ATOM     41   C  BGC B   3       0.033 -14.874 -29.3910  0.00  0.00     0.000 C
ATOM     42   O  BGC B   3       0.888 -13.857 -28.9250  0.00  0.00     0.000 O
ATOM     44  HD  BGC B   3       0.736 -13.172 -28.4180  0.00  0.00     0.000 HD
BRANCH 31 44
ATOM     44  O4  BGC B   4       1.263 -17.885 -26.0640  0.00  0.00     0.000 O
BRANCH 44 48
ATOM     45  C1  BGC B   4       3.484 -21.314 -26.4080  0.00  0.00     0.000 C
ATOM     46  C2  BGC B   4       3.606 -20.354 -27.5830  0.00  0.00     0.000 C
ATOM     47  C3  BGC B   4       3.082 -18.997 -27.1810  0.00  0.00     0.000 C
ATOM     48  C4  BGC B   4       1.659 -19.119 -26.6270  0.00  0.00     0.000 C
ATOM     49  C5  BGC B   4       1.601 -20.177 -25.5180  0.00  0.00     0.000 C
ATOM     50  O5  BGC B   4       2.116 -21.423 -26.0100  0.00  0.00     0.000 O
ATOM     51   O  BGC B   4       4.985 -20.228 -27.9760  0.00  0.00     0.000 O
ATOM     53  HD  BGC B   4       4.899 -19.485 -27.5400  0.00  0.00     0.000 HD
ATOM     53   O  BGC B   4       3.082 -18.142 -28.3330  0.00  0.00     0.000 O
ATOM     55  HD  BGC B   4       2.995 -17.399 -27.8970  0.00  0.00     0.000 HD
ATOM     55   C  BGC B   4       0.206 -20.452 -24.9860  0.00  0.00     0.000 C
ATOM     56   O  BGC B   4      -0.622 -20.804 -26.0960  0.00  0.00     0.000 O
ATOM     58  HD  BGC B   4      -0.708 -20.061 -25.6600  0.00  0.00     0.000 HD
BRANCH 45 58
ATOM     58  O4  BGC B   5       3.749 -22.613 -26.9350  0.00  0.00     0.000 O
BRANCH 58 62
ATOM     59  C1  BGC B   5       6.725 -25.204 -25.6780  0.00  0.00     0.000 C
ATOM     60  C2  BGC B   5       5.405 -25.856 -26.0390  0.00  0.00     0.000 C
ATOM     61  C3  BGC B   5       4.551 -24.909 -26.8610  0.00  0.00     0.000 C
ATOM     62  C4  BGC B   5       4.386 -23.595 -26.1150  0.00  0.00     0.000 C
ATOM     63  C5  BGC B   5       5.754 -23.029 -25.7090  0.00  0.00     0.000 C
ATOM     64  O5  BGC B   5       6.449 -24.007 -24.9430  0.00  0.00     0.000 O
ATOM     65   O  BGC B   5       4.870 -22.126 -23.7340  0.00  0.00     0.000 O
ATOM     67  HD  BGC B   5       4.120 -21.878 -23.3800  0.00  0.00     0.000 HD
ATOM     67   O  BGC B   5       4.870 -22.126 -23.7340  0.00  0.00     0.000 O
ATOM     69  HD  BGC B   5       4.120 -21.878 -23.3800  0.00  0.00     0.000 HD
ENDBRANCH 58 62
ENDBRANCH 45 58
ENDBRANCH 44 48
ENDBRANCH 31 44
ENDBRANCH 30 34
ENDBRANCH 17 30
ENDBRANCH 16 20
ENDBRANCH 1 16
TORSDOF 8
ENDMDL
MODEL 68
REMARK VINA RESULT:      -4.8     23.204     25.262
ROOT
ATOM      1  C1  BGC B   1      -5.314  -4.437 -20.7090  0.00  0.00     0.000 C
ATOM      2  C2  BGC B   1      -4.256  -3.381 -21.0260  0.00  0.00     0.000 C
ATOM      3  C3  BGC B   1      -4.532  -2.115 -20.2380  0.00  0.00     0.000 C
ATOM      4  C4  BGC B   1      -5.970  -1.655 -20.4420  0.00  0.00     0.000 C
ATOM      5  C5  BGC B   1      -6.899  -2.802 -20.0730  0.00  0.00     0.000 C
ATOM      6  O5  BGC B   1      -6.604  -3.898 -20.9590  0.00  0.00     0.000 O
ATOM      7   O  BGC B   1      -2.960  -3.887 -20.6690  0.00  0.00     0.000 O
ATOM      9  HD  BGC B   1      -2.349  -3.313 -20.4500  0.00  0.00     0.000 HD
ATOM      9   O  BGC B   1      -3.610  -1.102 -20.6520  0.00  0.00     0.000 O
ATOM     11  HD  BGC B   1      -3.000  -0.528 -20.4340  0.00  0.00     0.000 HD
ATOM     11   O  BGC B   1      -6.232  -0.540 -19.6190  0.00  0.00     0.000 O
ATOM     13  HD  BGC B   1      -5.622   0.034 -19.4000  0.00  0.00     0.000 HD
ATOM     13   C  BGC B   1      -8.384  -2.481 -20.1780  0.00  0.00     0.000 C
ATOM     14   O  BGC B   1      -8.745  -2.004 -21.4710  0.00  0.00     0.000 O
ATOM     16  HD  BGC B   1      -8.134  -1.430 -21.2520  0.00  0.00     0.000 HD
ENDROOT
BRANCH 1 16
ATOM     16  O4  BGC B   2      -5.148  -5.470 -21.6790  0.00  0.00     0.000 O
BRANCH 16 20
ATOM     17  C1  BGC B   2      -5.272  -9.527 -21.9200  0.00  0.00     0.000 C
ATOM     18  C2  BGC B   2      -6.593  -8.854 -22.2620  0.00  0.00     0.000 C
ATOM     19  C3  BGC B   2      -6.334  -7.367 -22.4940  0.00  0.00     0.000 C
ATOM     20  C4  BGC B   2      -5.615  -6.763 -21.3040  0.00  0.00     0.000 C
ATOM     21  C5  BGC B   2      -4.398  -7.585 -20.8800  0.00  0.00     0.000 C
ATOM     22  O5  BGC B   2      -4.810  -8.944 -20.6880  0.00  0.00     0.000 O
ATOM     23   O  BGC B   2      -7.145  -9.427 -23.4590  0.00  0.00     0.000 O
ATOM     25  HD  BGC B   2      -6.724  -8.689 -23.2900  0.00  0.00     0.000 HD
ATOM     25   O  BGC B   2      -7.564  -6.690 -22.7220  0.00  0.00     0.000 O
ATOM     27  HD  BGC B   2      -7.144  -5.952 -22.5520  0.00  0.00     0.000 HD
ATOM     27   C  BGC B   2      -3.778  -7.099 -19.5760  0.00  0.00     0.000 C
ATOM     28   O  BGC B   2      -4.696  -7.067 -18.4950  0.00  0.00     0.000 O
ATOM     30  HD  BGC B   2      -4.275  -6.329 -18.3250  0.00  0.00     0.000 HD
BRANCH 17 30
ATOM     30  O4  BGC B   3      -5.570 -10.874 -21.6030  0.00  0.00     0.000 O
BRANCH 30 34
ATOM     31  C1  BGC B   3      -3.670 -14.501 -21.1990  0.00  0.00     0.000 C
ATOM     32  C2  BGC B   3      -3.404 -13.515 -20.0620  0.00  0.00     0.000 C
ATOM     33  C3  BGC B   3      -4.444 -12.410 -20.1160  0.00  0.00     0.000 C
ATOM     34  C4  BGC B   3      -4.444 -11.751 -21.4950  0.00  0.00     0.000 C
ATOM     35  C5  BGC B   3      -4.568 -12.802 -22.5840  0.00  0.00     0.000 C
ATOM     36  O5  BGC B   3      -3.540 -13.784 -22.4170  0.00  0.00     0.000 O
ATOM     37   O  BGC B   3      -3.525 -14.188 -18.8110  0.00  0.00     0.000 O
ATOM     39  HD  BGC B   3      -3.205 -13.484 -18.4200  0.00  0.00     0.000 HD
ATOM     39   O  BGC B   3      -4.143 -11.459 -19.1060  0.00  0.00     0.000 O
ATOM     41  HD  BGC B   3      -3.824 -10.755 -18.7150  0.00  0.00     0.000 HD
ATOM     41   C  BGC B   3      -4.484 -12.242 -23.9990  0.00  0.00     0.000 C
ATOM     42   O  BGC B   3      -3.268 -11.554 -24.1780  0.00  0.00     0.000 O
ATOM     44  HD  BGC B   3      -2.949 -10.850 -23.7870  0.00  0.00     0.000 HD
BRANCH 31 44
ATOM     44  O4  BGC B   4      -2.633 -15.447 -21.1800  0.00  0.00     0.000 O
BRANCH 44 48
ATOM     45  C1  BGC B   4      -1.825 -19.317 -22.2650  0.00  0.00     0.000 C
ATOM     46  C2  BGC B   4      -2.146 -18.383 -23.4240  0.00  0.00     0.000 C
ATOM     47  C3  BGC B   4      -2.034 -16.951 -22.9610  0.00  0.00     0.000 C
ATOM     48  C4  BGC B   4      -2.907 -16.723 -21.7230  0.00  0.00     0.000 C
ATOM     49  C5  BGC B   4      -2.594 -17.765 -20.6430  0.00  0.00     0.000 C
ATOM     50  O5  BGC B   4      -2.735 -19.085 -21.1880  0.00  0.00     0.000 O
ATOM     51   O  BGC B   4      -1.219 -18.602 -24.5040  0.00  0.00     0.000 O
ATOM     53  HD  BGC B   4      -0.879 -17.876 -24.1770  0.00  0.00     0.000 HD
ATOM     53   O  BGC B   4      -2.465 -16.088 -24.0230  0.00  0.00     0.000 O
ATOM     55  HD  BGC B   4      -2.125 -15.362 -23.6960  0.00  0.00     0.000 HD
ATOM     55   C  BGC B   4      -3.491 -17.692 -19.4210  0.00  0.00     0.000 C
ATOM     56   O  BGC B   4      -4.845 -17.785 -19.8680  0.00  0.00     0.000 O
ATOM     58  HD  BGC B   4      -4.505 -17.059 -19.5410  0.00  0.00     0.000 HD
BRANCH 45 58
ATOM     58  O4  BGC B   5      -2.199 -20.624 -22.7000  0.00  0.00     0.000 O
BRANCH 58 62
ATOM     59  C1  BGC B   5      -0.416 -24.343 -23.0700  0.00  0.00     0.000 C
ATOM     60  C2  BGC B   5      -1.383 -24.198 -21.9120  0.00  0.00     0.000 C
ATOM     61  C3  BGC B   5      -2.270 -22.983 -22.1080  0.00  0.00     0.000 C
ATOM     62  C4  BGC B   5      -1.405 -21.752 -22.3250  0.00  0.00     0.000 C
ATOM     63  C5  BGC B   5      -0.396 -21.992 -23.4570  0.00  0.00     0.000 C
ATOM     64  O5  BGC B   5       0.372 -23.151 -23.1500  0.00  0.00     0.000 O
ATOM     65   O  BGC B   5       1.214 -20.657 -22.3970  0.00  0.00     0.000 O
ATOM     67  HD  BGC B   5       1.289 -20.027 -21.8080  0.00  0.00     0.000 HD
ATOM     67   O  BGC B   5       1.214 -20.657 -22.3970  0.00  0.00     0.000 O
ATOM     69  HD  BGC B   5       1.289 -20.027 -21.8080  0.00  0.00     0.000 HD
ENDBRANCH 58 62
ENDBRANCH 45 58
ENDBRANCH 44 48
ENDBRANCH 31 44
ENDBRANCH 30 34
ENDBRANCH 17 30
ENDBRANCH 16 20
ENDBRANCH 1 16
TORSDOF 8
ENDMDL
MODEL 69
REMARK VINA RESULT:      -4.8     26.053     30.704
ROOT
ATOM      1  C1  BGC B   1       0.026 -28.403 -18.0670  0.00  0.00     0.000 C
ATOM      2  C2  BGC B   1      -0.377 -29.717 -18.7330  0.00  0.00     0.000 C
ATOM      3  C3  BGC B   1      -0.455 -30.823 -17.6990  0.00  0.00     0.000 C
ATOM      4  C4  BGC B   1       0.830 -30.892 -16.8840  0.00  0.00     0.000 C
ATOM      5  C5  BGC B   1       1.088 -29.521 -16.2740  0.00  0.00     0.000 C
ATOM      6  O5  BGC B   1       1.245 -28.590 -17.3610  0.00  0.00     0.000 O
ATOM      7   O  BGC B   1      -1.663 -29.558 -19.3550  0.00  0.00     0.000 O
ATOM      9  HD  BGC B   1      -2.159 -30.263 -19.4390  0.00  0.00     0.000 HD
ATOM      9   O  BGC B   1      -0.702 -32.064 -18.3660  0.00  0.00     0.000 O
ATOM     11  HD  BGC B   1      -1.199 -32.769 -18.4510  0.00  0.00     0.000 HD
ATOM     11   O  BGC B   1       0.692 -31.854 -15.8620  0.00  0.00     0.000 O
ATOM     13  HD  BGC B   1       0.196 -32.559 -15.9460  0.00  0.00     0.000 HD
ATOM     13   C  BGC B   1       2.320 -29.439 -15.3850  0.00  0.00     0.000 C
ATOM     14   O  BGC B   1       3.502 -29.866 -16.0550  0.00  0.00     0.000 O
ATOM     16  HD  BGC B   1       3.006 -30.571 -16.1400  0.00  0.00     0.000 HD
ENDROOT
BRANCH 1 16
ATOM     16  O4  BGC B   2       0.345 -27.501 -19.1250  0.00  0.00     0.000 O
BRANCH 16 20
ATOM     17  C1  BGC B   2       0.084 -23.546 -20.0340  0.00  0.00     0.000 C
ATOM     18  C2  BGC B   2       1.377 -23.927 -19.3280  0.00  0.00     0.000 C
ATOM     19  C3  BGC B   2       1.523 -25.447 -19.3700  0.00  0.00     0.000 C
ATOM     20  C4  BGC B   2       0.284 -26.113 -18.8070  0.00  0.00     0.000 C
ATOM     21  C5  BGC B   2      -1.004 -25.559 -19.4150  0.00  0.00     0.000 C
ATOM     22  O5  BGC B   2      -0.995 -24.132 -19.2820  0.00  0.00     0.000 O
ATOM     23   O  BGC B   2       2.500 -23.328 -19.9960  0.00  0.00     0.000 O
ATOM     25  HD  BGC B   2       2.169 -24.128 -19.9860  0.00  0.00     0.000 HD
ATOM     25   O  BGC B   2       2.674 -25.843 -18.6340  0.00  0.00     0.000 O
ATOM     27  HD  BGC B   2       2.343 -26.643 -18.6250  0.00  0.00     0.000 HD
ATOM     27   C  BGC B   2      -2.259 -26.081 -18.7270  0.00  0.00     0.000 C
ATOM     28   O  BGC B   2      -2.280 -25.831 -17.3310  0.00  0.00     0.000 O
ATOM     30  HD  BGC B   2      -2.611 -26.631 -17.3210  0.00  0.00     0.000 HD
BRANCH 17 30
ATOM     30  O4  BGC B   3      -0.072 -22.148 -19.8760  0.00  0.00     0.000 O
BRANCH 30 34
ATOM     31  C1  BGC B   3      -2.115 -18.997 -21.5540  0.00  0.00     0.000 C
ATOM     32  C2  BGC B   3      -2.991 -19.978 -20.7750  0.00  0.00     0.000 C
ATOM     33  C3  BGC B   3      -2.101 -20.838 -19.8950  0.00  0.00     0.000 C
ATOM     34  C4  BGC B   3      -1.030 -21.528 -20.7390  0.00  0.00     0.000 C
ATOM     35  C5  BGC B   3      -0.295 -20.511 -21.5940  0.00  0.00     0.000 C
ATOM     36  O5  BGC B   3      -1.242 -19.765 -22.3660  0.00  0.00     0.000 O
ATOM     37   O  BGC B   3      -3.889 -19.253 -19.9390  0.00  0.00     0.000 O
ATOM     39  HD  BGC B   3      -4.301 -19.995 -19.7660  0.00  0.00     0.000 HD
ATOM     39   O  BGC B   3      -2.914 -21.796 -19.2340  0.00  0.00     0.000 O
ATOM     41  HD  BGC B   3      -3.325 -22.538 -19.0620  0.00  0.00     0.000 HD
ATOM     41   C  BGC B   3       0.733 -21.124 -22.5390  0.00  0.00     0.000 C
ATOM     42   O  BGC B   3       0.113 -22.059 -23.3890  0.00  0.00     0.000 O
ATOM     44  HD  BGC B   3      -0.298 -22.801 -23.2170  0.00  0.00     0.000 HD
BRANCH 31 44
ATOM     44  O4  BGC B   4      -2.958 -18.292 -22.4290  0.00  0.00     0.000 O
BRANCH 44 48
ATOM     45  C1  BGC B   4      -3.441 -14.564 -24.0640  0.00  0.00     0.000 C
ATOM     46  C2  BGC B   4      -2.058 -15.170 -24.2550  0.00  0.00     0.000 C
ATOM     47  C3  BGC B   4      -2.115 -16.652 -23.9760  0.00  0.00     0.000 C
ATOM     48  C4  BGC B   4      -2.717 -16.909 -22.5910  0.00  0.00     0.000 C
ATOM     49  C5  BGC B   4      -4.059 -16.182 -22.4430  0.00  0.00     0.000 C
ATOM     50  O5  BGC B   4      -3.888 -14.786 -22.7250  0.00  0.00     0.000 O
ATOM     51   O  BGC B   4      -1.612 -14.963 -25.6090  0.00  0.00     0.000 O
ATOM     53  HD  BGC B   4      -1.847 -15.794 -25.6670  0.00  0.00     0.000 HD
ATOM     53   O  BGC B   4      -0.784 -17.184 -24.0320  0.00  0.00     0.000 O
ATOM     55  HD  BGC B   4      -1.019 -18.015 -24.0910  0.00  0.00     0.000 HD
ATOM     55   C  BGC B   4      -4.678 -16.283 -21.0600  0.00  0.00     0.000 C
ATOM     56   O  BGC B   4      -3.715 -15.811 -20.1170  0.00  0.00     0.000 O
ATOM     58  HD  BGC B   4      -3.951 -16.643 -20.1750  0.00  0.00     0.000 HD
BRANCH 45 58
ATOM     58  O4  BGC B   5      -3.256 -13.149 -24.0890  0.00  0.00     0.000 O
BRANCH 58 62
ATOM     59  C1  BGC B   5      -5.361  -9.588 -24.2880  0.00  0.00     0.000 C
ATOM     60  C2  BGC B   5      -5.462 -10.331 -22.9710  0.00  0.00     0.000 C
ATOM     61  C3  BGC B   5      -4.357 -11.364 -22.8550  0.00  0.00     0.000 C
ATOM     62  C4  BGC B   5      -4.393 -12.283 -24.0660  0.00  0.00     0.000 C
ATOM     63  C5  BGC B   5      -4.368 -11.466 -25.3660  0.00  0.00     0.000 C
ATOM     64  O5  BGC B   5      -5.451 -10.543 -25.3500  0.00  0.00     0.000 O
ATOM     65   O  BGC B   5      -5.731 -13.032 -26.4560  0.00  0.00     0.000 O
ATOM     67  HD  BGC B   5      -5.982 -13.859 -26.4090  0.00  0.00     0.000 HD
ATOM     67   O  BGC B   5      -5.731 -13.032 -26.4560  0.00  0.00     0.000 O
ATOM     69  HD  BGC B   5      -5.982 -13.859 -26.4090  0.00  0.00     0.000 HD
ENDBRANCH 58 62
ENDBRANCH 45 58
ENDBRANCH 44 48
ENDBRANCH 31 44
ENDBRANCH 30 34
ENDBRANCH 17 30
ENDBRANCH 16 20
ENDBRANCH 1 16
TORSDOF 8
ENDMDL
MODEL 70
REMARK VINA RESULT:      -4.8     10.354     18.386
ROOT
ATOM      1  C1  BGC B   1      11.306  -2.982 -27.7180  0.00  0.00     0.000 C
ATOM      2  C2  BGC B   1      11.957  -4.363 -27.7060  0.00  0.00     0.000 C
ATOM      3  C3  BGC B   1      11.493  -5.169 -28.9040  0.00  0.00     0.000 C
ATOM      4  C4  BGC B   1       9.972  -5.185 -28.9870  0.00  0.00     0.000 C
ATOM      5  C5  BGC B   1       9.476  -3.746 -29.0070  0.00  0.00     0.000 C
ATOM      6  O5  BGC B   1       9.894  -3.130 -27.7750  0.00  0.00     0.000 O
ATOM      7   O  BGC B   1      13.386  -4.214 -27.7600  0.00  0.00     0.000 O
ATOM      9  HD  BGC B   1      13.844  -4.856 -28.1160  0.00  0.00     0.000 HD
ATOM      9   O  BGC B   1      12.011  -6.498 -28.7960  0.00  0.00     0.000 O
ATOM     11  HD  BGC B   1      12.470  -7.141 -29.1510  0.00  0.00     0.000 HD
ATOM     11   O  BGC B   1       9.569  -5.849 -30.1640  0.00  0.00     0.000 O
ATOM     13  HD  BGC B   1      10.027  -6.491 -30.5200  0.00  0.00     0.000 HD
ATOM     13   C  BGC B   1       7.968  -3.592 -29.1370  0.00  0.00     0.000 C
ATOM     14   O  BGC B   1       7.260  -4.301 -28.1240  0.00  0.00     0.000 O
ATOM     16  HD  BGC B   1       7.719  -4.944 -28.4800  0.00  0.00     0.000 HD
ENDROOT
BRANCH 1 16
ATOM     16  O4  BGC B   2      11.569  -2.406 -26.4400  0.00  0.00     0.000 O
BRANCH 16 20
ATOM     17  C1  BGC B   2      11.442   1.159 -24.4870  0.00  0.00     0.000 C
ATOM     18  C2  BGC B   2      10.089   0.472 -24.5940  0.00  0.00     0.000 C
ATOM     19  C3  BGC B   2      10.314  -0.982 -25.0020  0.00  0.00     0.000 C
ATOM     20  C4  BGC B   2      11.151  -1.055 -26.2630  0.00  0.00     0.000 C
ATOM     21  C5  BGC B   2      12.411  -0.193 -26.1760  0.00  0.00     0.000 C
ATOM     22  O5  BGC B   2      12.030   1.137 -25.8010  0.00  0.00     0.000 O
ATOM     23   O  BGC B   2       9.417   0.505 -23.3240  0.00  0.00     0.000 O
ATOM     25  HD  BGC B   2       9.849  -0.110 -23.7540  0.00  0.00     0.000 HD
ATOM     25   O  BGC B   2       9.062  -1.628 -25.2040  0.00  0.00     0.000 O
ATOM     27  HD  BGC B   2       9.494  -2.243 -25.6340  0.00  0.00     0.000 HD
ATOM     27   C  BGC B   2      13.163  -0.105 -27.4980  0.00  0.00     0.000 C
ATOM     28   O  BGC B   2      12.365   0.375 -28.5680  0.00  0.00     0.000 O
ATOM     30  HD  BGC B   2      12.797  -0.239 -28.9980  0.00  0.00     0.000 HD
BRANCH 17 30
ATOM     30  O4  BGC B   3      11.188   2.525 -24.2190  0.00  0.00     0.000 O
BRANCH 30 34
ATOM     31  C1  BGC B   3      13.350   5.530 -22.4250  0.00  0.00     0.000 C
ATOM     32  C2  BGC B   3      13.156   5.700 -23.9310  0.00  0.00     0.000 C
ATOM     33  C3  BGC B   3      12.039   4.779 -24.3900  0.00  0.00     0.000 C
ATOM     34  C4  BGC B   3      12.342   3.338 -23.9820  0.00  0.00     0.000 C
ATOM     35  C5  BGC B   3      12.665   3.265 -22.5000  0.00  0.00     0.000 C
ATOM     36  O5  BGC B   3      13.722   4.180 -22.1980  0.00  0.00     0.000 O
ATOM     37   O  BGC B   3      12.777   7.045 -24.2130  0.00  0.00     0.000 O
ATOM     39  HD  BGC B   3      12.880   6.880 -25.0570  0.00  0.00     0.000 HD
ATOM     39   O  BGC B   3      11.919   4.886 -25.8010  0.00  0.00     0.000 O
ATOM     41  HD  BGC B   3      12.022   4.721 -26.6440  0.00  0.00     0.000 HD
ATOM     41   C  BGC B   3      13.069   1.874 -22.0230  0.00  0.00     0.000 C
ATOM     42   O  BGC B   3      14.187   1.418 -22.7480  0.00  0.00     0.000 O
ATOM     44  HD  BGC B   3      14.290   1.253 -23.5910  0.00  0.00     0.000 HD
BRANCH 31 44
ATOM     44  O4  BGC B   4      14.453   6.317 -22.0560  0.00  0.00     0.000 O
BRANCH 44 48
ATOM     45  C1  BGC B   4      15.922   8.287 -18.7750  0.00  0.00     0.000 C
ATOM     46  C2  BGC B   4      16.347   6.830 -18.8870  0.00  0.00     0.000 C
ATOM     47  C3  BGC B   4      16.088   6.337 -20.2900  0.00  0.00     0.000 C
ATOM     48  C4  BGC B   4      14.628   6.587 -20.6800  0.00  0.00     0.000 C
ATOM     49  C5  BGC B   4      14.250   8.054 -20.4430  0.00  0.00     0.000 C
ATOM     50  O5  BGC B   4      14.532   8.413 -19.0820  0.00  0.00     0.000 O
ATOM     51   O  BGC B   4      17.752   6.702 -18.5960  0.00  0.00     0.000 O
ATOM     53  HD  BGC B   4      17.785   6.648 -19.4590  0.00  0.00     0.000 HD
ATOM     53   O  BGC B   4      16.370   4.931 -20.3450  0.00  0.00     0.000 O
ATOM     55  HD  BGC B   4      16.404   4.877 -21.2090  0.00  0.00     0.000 HD
ATOM     55   C  BGC B   4      12.787   8.374 -20.6920  0.00  0.00     0.000 C
ATOM     56   O  BGC B   4      12.005   7.490 -19.8870  0.00  0.00     0.000 O
ATOM     58  HD  BGC B   4      12.039   7.436 -20.7500  0.00  0.00     0.000 HD
BRANCH 45 58
ATOM     58  O4  BGC B   5      15.953   8.597 -17.3820  0.00  0.00     0.000 O
BRANCH 58 62
ATOM     59  C1  BGC B   5      16.713  11.695 -14.7410  0.00  0.00     0.000 C
ATOM     60  C2  BGC B   5      15.485  11.870 -15.6120  0.00  0.00     0.000 C
ATOM     61  C3  BGC B   5      15.069  10.543 -16.2180  0.00  0.00     0.000 C
ATOM     62  C4  BGC B   5      16.247   9.931 -16.9590  0.00  0.00     0.000 C
ATOM     63  C5  BGC B   5      17.480   9.855 -16.0460  0.00  0.00     0.000 C
ATOM     64  O5  BGC B   5      17.765  11.158 -15.5490  0.00  0.00     0.000 O
ATOM     65   O  BGC B   5      18.925  10.237 -17.8510  0.00  0.00     0.000 O
ATOM     67  HD  BGC B   5      18.959  10.181 -18.7140  0.00  0.00     0.000 HD
ATOM     67   O  BGC B   5      18.925  10.237 -17.8510  0.00  0.00     0.000 O
ATOM     69  HD  BGC B   5      18.959  10.181 -18.7140  0.00  0.00     0.000 HD
ENDBRANCH 58 62
ENDBRANCH 45 58
ENDBRANCH 44 48
ENDBRANCH 31 44
ENDBRANCH 30 34
ENDBRANCH 17 30
ENDBRANCH 16 20
ENDBRANCH 1 16
TORSDOF 8
ENDMDL
MODEL 71
REMARK VINA RESULT:      -4.8     22.678     29.857
ROOT
ATOM      1  C1  BGC B   1      -4.209 -23.308 -20.8820  0.00  0.00     0.000 C
ATOM      2  C2  BGC B   1      -5.547 -24.008 -21.1130  0.00  0.00     0.000 C
ATOM      3  C3  BGC B   1      -5.451 -25.464 -20.7010  0.00  0.00     0.000 C
ATOM      4  C4  BGC B   1      -4.258 -26.136 -21.3700  0.00  0.00     0.000 C
ATOM      5  C5  BGC B   1      -3.006 -25.338 -21.0370  0.00  0.00     0.000 C
ATOM      6  O5  BGC B   1      -3.186 -24.013 -21.5710  0.00  0.00     0.000 O
ATOM      7   O  BGC B   1      -6.561 -23.360 -20.3280  0.00  0.00     0.000 O
ATOM      9  HD  BGC B   1      -7.240 -23.835 -20.0750  0.00  0.00     0.000 HD
ATOM      9   O  BGC B   1      -6.670 -26.125 -21.0500  0.00  0.00     0.000 O
ATOM     11  HD  BGC B   1      -7.349 -26.601 -20.7980  0.00  0.00     0.000 HD
ATOM     11   O  BGC B   1      -4.128 -27.457 -20.8900  0.00  0.00     0.000 O
ATOM     13  HD  BGC B   1      -4.807 -27.932 -20.6380  0.00  0.00     0.000 HD
ATOM     13   C  BGC B   1      -1.714 -25.914 -21.5980  0.00  0.00     0.000 C
ATOM     14   O  BGC B   1      -1.770 -26.101 -23.0080  0.00  0.00     0.000 O
ATOM     16  HD  BGC B   1      -2.448 -26.576 -22.7560  0.00  0.00     0.000 HD
ENDROOT
BRANCH 1 16
ATOM     16  O4  BGC B   2      -4.300 -22.047 -21.5420  0.00  0.00     0.000 O
BRANCH 16 20
ATOM     17  C1  BGC B   2      -3.075 -18.180 -21.2480  0.00  0.00     0.000 C
ATOM     18  C2  BGC B   2      -1.935 -19.170 -21.4410  0.00  0.00     0.000 C
ATOM     19  C3  BGC B   2      -2.523 -20.503 -21.8980  0.00  0.00     0.000 C
ATOM     20  C4  BGC B   2      -3.595 -20.967 -20.9340  0.00  0.00     0.000 C
ATOM     21  C5  BGC B   2      -4.615 -19.871 -20.6240  0.00  0.00     0.000 C
ATOM     22  O5  BGC B   2      -3.909 -18.700 -20.1960  0.00  0.00     0.000 O
ATOM     23   O  BGC B   2      -1.027 -18.688 -22.4450  0.00  0.00     0.000 O
ATOM     25  HD  BGC B   2      -1.650 -19.288 -22.4440  0.00  0.00     0.000 HD
ATOM     25   O  BGC B   2      -1.492 -21.479 -21.9950  0.00  0.00     0.000 O
ATOM     27  HD  BGC B   2      -2.115 -22.080 -21.9940  0.00  0.00     0.000 HD
ATOM     27   C  BGC B   2      -5.586 -20.259 -19.5170  0.00  0.00     0.000 C
ATOM     28   O  BGC B   2      -4.943 -20.626 -18.3080  0.00  0.00     0.000 O
ATOM     30  HD  BGC B   2      -5.566 -21.227 -18.3070  0.00  0.00     0.000 HD
BRANCH 17 30
ATOM     30  O4  BGC B   3      -2.505 -16.998 -20.7190  0.00  0.00     0.000 O
BRANCH 30 34
ATOM     31  C1  BGC B   3      -3.677 -13.180 -19.7320  0.00  0.00     0.000 C
ATOM     32  C2  BGC B   3      -3.888 -14.214 -18.6260  0.00  0.00     0.000 C
ATOM     33  C3  BGC B   3      -3.071 -15.453 -18.9500  0.00  0.00     0.000 C
ATOM     34  C4  BGC B   3      -3.433 -15.976 -20.3390  0.00  0.00     0.000 C
ATOM     35  C5  BGC B   3      -3.340 -14.861 -21.3650  0.00  0.00     0.000 C
ATOM     36  O5  BGC B   3      -4.144 -13.756 -20.9410  0.00  0.00     0.000 O
ATOM     37   O  BGC B   3      -3.430 -13.683 -17.3850  0.00  0.00     0.000 O
ATOM     39  HD  BGC B   3      -3.783 -14.364 -16.9820  0.00  0.00     0.000 HD
ATOM     39   O  BGC B   3      -3.332 -16.436 -17.9600  0.00  0.00     0.000 O
ATOM     41  HD  BGC B   3      -3.685 -17.116 -17.5570  0.00  0.00     0.000 HD
ATOM     41   C  BGC B   3      -3.773 -15.272 -22.7680  0.00  0.00     0.000 C
ATOM     42   O  BGC B   3      -5.097 -15.751 -22.7460  0.00  0.00     0.000 O
ATOM     44  HD  BGC B   3      -5.451 -16.432 -22.3440  0.00  0.00     0.000 HD
BRANCH 31 44
ATOM     44  O4  BGC B   4      -4.524 -12.095 -19.4520  0.00  0.00     0.000 O
BRANCH 44 48
ATOM     45  C1  BGC B   4      -4.956  -8.112 -20.3210  0.00  0.00     0.000 C
ATOM     46  C2  BGC B   4      -5.416  -9.059 -21.4210  0.00  0.00     0.000 C
ATOM     47  C3  BGC B   4      -5.580 -10.447 -20.8540  0.00  0.00     0.000 C
ATOM     48  C4  BGC B   4      -4.291 -10.891 -20.1550  0.00  0.00     0.000 C
ATOM     49  C5  BGC B   4      -3.840  -9.838 -19.1360  0.00  0.00     0.000 C
ATOM     50  O5  BGC B   4      -3.712  -8.562 -19.7820  0.00  0.00     0.000 O
ATOM     51   O  BGC B   4      -6.679  -8.617 -21.9550  0.00  0.00     0.000 O
ATOM     53  HD  BGC B   4      -6.961  -9.264 -21.4530  0.00  0.00     0.000 HD
ATOM     53   O  BGC B   4      -5.886 -11.351 -21.9250  0.00  0.00     0.000 O
ATOM     55  HD  BGC B   4      -6.168 -11.998 -21.4230  0.00  0.00     0.000 HD
ATOM     55   C  BGC B   4      -2.506 -10.135 -18.4740  0.00  0.00     0.000 C
ATOM     56   O  BGC B   4      -1.538 -10.318 -19.5090  0.00  0.00     0.000 O
ATOM     58  HD  BGC B   4      -1.820 -10.965 -19.0070  0.00  0.00     0.000 HD
BRANCH 45 58
ATOM     58  O4  BGC B   5      -4.580  -6.902 -20.9780  0.00  0.00     0.000 O
BRANCH 58 62
ATOM     59  C1  BGC B   5      -3.900  -3.016 -19.7200  0.00  0.00     0.000 C
ATOM     60  C2  BGC B   5      -2.706  -3.719 -20.3340  0.00  0.00     0.000 C
ATOM     61  C3  BGC B   5      -3.151  -4.937 -21.1200  0.00  0.00     0.000 C
ATOM     62  C4  BGC B   5      -3.985  -5.842 -20.2270  0.00  0.00     0.000 C
ATOM     63  C5  BGC B   5      -5.129  -5.052 -19.5740  0.00  0.00     0.000 C
ATOM     64  O5  BGC B   5      -4.579  -3.944 -18.8680  0.00  0.00     0.000 O
ATOM     65   O  BGC B   5      -5.000  -6.346 -17.6230  0.00  0.00     0.000 O
ATOM     67  HD  BGC B   5      -4.717  -7.113 -17.3370  0.00  0.00     0.000 HD
ATOM     67   O  BGC B   5      -5.000  -6.346 -17.6230  0.00  0.00     0.000 O
ATOM     69  HD  BGC B   5      -4.717  -7.113 -17.3370  0.00  0.00     0.000 HD
ENDBRANCH 58 62
ENDBRANCH 45 58
ENDBRANCH 44 48
ENDBRANCH 31 44
ENDBRANCH 30 34
ENDBRANCH 17 30
ENDBRANCH 16 20
ENDBRANCH 1 16
TORSDOF 8
ENDMDL
MODEL 72
REMARK VINA RESULT:      -4.7     23.195     29.253
ROOT
ATOM      1  C1  BGC B   1      -4.495 -21.154 -19.2950  0.00  0.00     0.000 C
ATOM      2  C2  BGC B   1      -5.612 -22.098 -19.7360  0.00  0.00     0.000 C
ATOM      3  C3  BGC B   1      -5.393 -23.477 -19.1430  0.00  0.00     0.000 C
ATOM      4  C4  BGC B   1      -3.985 -23.975 -19.4420  0.00  0.00     0.000 C
ATOM      5  C5  BGC B   1      -2.990 -22.942 -18.9340  0.00  0.00     0.000 C
ATOM      6  O5  BGC B   1      -3.239 -21.717 -19.6480  0.00  0.00     0.000 O
ATOM      7   O  BGC B   1      -6.874 -21.583 -19.2810  0.00  0.00     0.000 O
ATOM      9  HD  BGC B   1      -7.511 -22.150 -19.1330  0.00  0.00     0.000 HD
ATOM      9   O  BGC B   1      -6.374 -24.371 -19.6770  0.00  0.00     0.000 O
ATOM     11  HD  BGC B   1      -7.011 -24.939 -19.5290  0.00  0.00     0.000 HD
ATOM     11   O  BGC B   1      -3.771 -25.209 -18.7930  0.00  0.00     0.000 O
ATOM     13  HD  BGC B   1      -4.408 -25.777 -18.6440  0.00  0.00     0.000 HD
ATOM     13   C  BGC B   1      -1.527 -23.320 -19.1170  0.00  0.00     0.000 C
ATOM     14   O  BGC B   1      -1.211 -23.624 -20.4720  0.00  0.00     0.000 O
ATOM     16  HD  BGC B   1      -1.848 -24.192 -20.3240  0.00  0.00     0.000 HD
ENDROOT
BRANCH 1 16
ATOM     16  O4  BGC B   2      -4.619 -19.986 -20.1040  0.00  0.00     0.000 O
BRANCH 16 20
ATOM     17  C1  BGC B   2      -3.959 -15.974 -20.0400  0.00  0.00     0.000 C
ATOM     18  C2  BGC B   2      -2.685 -16.801 -20.1230  0.00  0.00     0.000 C
ATOM     19  C3  BGC B   2      -3.060 -18.231 -20.5060  0.00  0.00     0.000 C
ATOM     20  C4  BGC B   2      -4.099 -18.780 -19.5490  0.00  0.00     0.000 C
ATOM     21  C5  BGC B   2      -5.274 -17.822 -19.3520  0.00  0.00     0.000 C
ATOM     22  O5  BGC B   2      -4.758 -16.537 -18.9830  0.00  0.00     0.000 O
ATOM     23   O  BGC B   2      -1.810 -16.261 -21.1270  0.00  0.00     0.000 O
ATOM     25  HD  BGC B   2      -2.343 -16.943 -21.1050  0.00  0.00     0.000 HD
ATOM     25   O  BGC B   2      -1.900 -19.055 -20.4990  0.00  0.00     0.000 O
ATOM     27  HD  BGC B   2      -2.433 -19.737 -20.4780  0.00  0.00     0.000 HD
ATOM     27   C  BGC B   2      -6.230 -18.272 -18.2540  0.00  0.00     0.000 C
ATOM     28   O  BGC B   2      -5.595 -18.465 -17.0010  0.00  0.00     0.000 O
ATOM     30  HD  BGC B   2      -6.128 -19.147 -16.9790  0.00  0.00     0.000 HD
BRANCH 17 30
ATOM     30  O4  BGC B   3      -3.584 -14.691 -19.5750  0.00  0.00     0.000 O
BRANCH 30 34
ATOM     31  C1  BGC B   3      -4.721 -10.764 -20.0390  0.00  0.00     0.000 C
ATOM     32  C2  BGC B   3      -5.540 -11.545 -19.0120  0.00  0.00     0.000 C
ATOM     33  C3  BGC B   3      -4.790 -12.814 -18.6480  0.00  0.00     0.000 C
ATOM     34  C4  BGC B   3      -4.477 -13.623 -19.9060  0.00  0.00     0.000 C
ATOM     35  C5  BGC B   3      -3.791 -12.747 -20.9400  0.00  0.00     0.000 C
ATOM     36  O5  BGC B   3      -4.591 -11.587 -21.1880  0.00  0.00     0.000 O
ATOM     37   O  BGC B   3      -5.698 -10.759 -17.8330  0.00  0.00     0.000 O
ATOM     39  HD  BGC B   3      -6.265 -11.344 -17.5390  0.00  0.00     0.000 HD
ATOM     39   O  BGC B   3      -5.593 -13.570 -17.7530  0.00  0.00     0.000 O
ATOM     41  HD  BGC B   3      -6.160 -14.154 -17.4590  0.00  0.00     0.000 HD
ATOM     41   C  BGC B   3      -3.523 -13.450 -22.2660  0.00  0.00     0.000 C
ATOM     42   O  BGC B   3      -4.728 -13.929 -22.8150  0.00  0.00     0.000 O
ATOM     44  HD  BGC B   3      -5.295 -14.513 -22.5210  0.00  0.00     0.000 HD
BRANCH 31 44
ATOM     44  O4  BGC B   4      -5.489  -9.655 -20.4270  0.00  0.00     0.000 O
BRANCH 44 48
ATOM     45  C1  BGC B   4      -4.922  -5.716 -21.4110  0.00  0.00     0.000 C
ATOM     46  C2  BGC B   4      -4.970  -6.669 -22.5970  0.00  0.00     0.000 C
ATOM     47  C3  BGC B   4      -5.564  -7.986 -22.1600  0.00  0.00     0.000 C
ATOM     48  C4  BGC B   4      -4.800  -8.539 -20.9530  0.00  0.00     0.000 C
ATOM     49  C5  BGC B   4      -4.709  -7.484 -19.8440  0.00  0.00     0.000 C
ATOM     50  O5  BGC B   4      -4.128  -6.280 -20.3660  0.00  0.00     0.000 O
ATOM     51   O  BGC B   4      -5.784  -6.111 -23.6460  0.00  0.00     0.000 O
ATOM     53  HD  BGC B   4      -6.349  -6.683 -23.3230  0.00  0.00     0.000 HD
ATOM     53   O  BGC B   4      -5.482  -8.914 -23.2510  0.00  0.00     0.000 O
ATOM     55  HD  BGC B   4      -6.046  -9.486 -22.9290  0.00  0.00     0.000 HD
ATOM     55   C  BGC B   4      -3.869  -7.899 -18.6500  0.00  0.00     0.000 C
ATOM     56   O  BGC B   4      -2.576  -8.269 -19.1340  0.00  0.00     0.000 O
ATOM     58  HD  BGC B   4      -3.141  -8.841 -18.8110  0.00  0.00     0.000 HD
BRANCH 45 58
ATOM     58  O4  BGC B   5      -4.126  -4.608 -21.8310  0.00  0.00     0.000 O
BRANCH 58 62
ATOM     59  C1  BGC B   5      -3.765  -0.504 -21.4200  0.00  0.00     0.000 C
ATOM     60  C2  BGC B   5      -3.820  -1.285 -20.1230  0.00  0.00     0.000 C
ATOM     61  C3  BGC B   5      -3.533  -2.753 -20.3720  0.00  0.00     0.000 C
ATOM     62  C4  BGC B   5      -4.485  -3.283 -21.4320  0.00  0.00     0.000 C
ATOM     63  C5  BGC B   5      -4.440  -2.403 -22.6900  0.00  0.00     0.000 C
ATOM     64  O5  BGC B   5      -4.729  -1.059 -22.3210  0.00  0.00     0.000 O
ATOM     65   O  BGC B   5      -6.718  -2.766 -23.1090  0.00  0.00     0.000 O
ATOM     67  HD  BGC B   5      -7.359  -3.319 -22.9300  0.00  0.00     0.000 HD
ATOM     67   O  BGC B   5      -6.718  -2.766 -23.1090  0.00  0.00     0.000 O
ATOM     69  HD  BGC B   5      -7.359  -3.319 -22.9300  0.00  0.00     0.000 HD
ENDBRANCH 58 62
ENDBRANCH 45 58
ENDBRANCH 44 48
ENDBRANCH 31 44
ENDBRANCH 30 34
ENDBRANCH 17 30
ENDBRANCH 16 20
ENDBRANCH 1 16
TORSDOF 8
ENDMDL
MODEL 73
REMARK VINA RESULT:      -4.7     26.210     29.951
ROOT
ATOM      1  C1  BGC B   1      -0.088 -27.788 -17.9320  0.00  0.00     0.000 C
ATOM      2  C2  BGC B   1      -0.547 -29.172 -18.3870  0.00  0.00     0.000 C
ATOM      3  C3  BGC B   1      -1.076 -29.960 -17.2040  0.00  0.00     0.000 C
ATOM      4  C4  BGC B   1      -0.064 -29.969 -16.0660  0.00  0.00     0.000 C
ATOM      5  C5  BGC B   1       0.281 -28.528 -15.7170  0.00  0.00     0.000 C
ATOM      6  O5  BGC B   1       0.865 -27.930 -16.8880  0.00  0.00     0.000 O
ATOM      7   O  BGC B   1      -1.591 -29.027 -19.3640  0.00  0.00     0.000 O
ATOM      9  HD  BGC B   1      -2.171 -29.666 -19.4320  0.00  0.00     0.000 HD
ATOM      9   O  BGC B   1      -1.373 -31.293 -17.6320  0.00  0.00     0.000 O
ATOM     11  HD  BGC B   1      -1.953 -31.932 -17.7000  0.00  0.00     0.000 HD
ATOM     11   O  BGC B   1      -0.620 -30.616 -14.9420  0.00  0.00     0.000 O
ATOM     13  HD  BGC B   1      -1.200 -31.256 -15.0100  0.00  0.00     0.000 HD
ATOM     13   C  BGC B   1       1.252 -28.367 -14.5560  0.00  0.00     0.000 C
ATOM     14   O  BGC B   1       2.464 -29.087 -14.7590  0.00  0.00     0.000 O
ATOM     16  HD  BGC B   1       1.884 -29.726 -14.8260  0.00  0.00     0.000 HD
ENDROOT
BRANCH 1 16
ATOM     16  O4  BGC B   2       0.638 -27.229 -19.0250  0.00  0.00     0.000 O
BRANCH 16 20
ATOM     17  C1  BGC B   2       1.288 -23.696 -20.9310  0.00  0.00     0.000 C
ATOM     18  C2  BGC B   2       2.069 -23.844 -19.6330  0.00  0.00     0.000 C
ATOM     19  C3  BGC B   2       2.036 -25.311 -19.2120  0.00  0.00     0.000 C
ATOM     20  C4  BGC B   2       0.607 -25.809 -19.1390  0.00  0.00     0.000 C
ATOM     21  C5  BGC B   2      -0.194 -25.467 -20.3960  0.00  0.00     0.000 C
ATOM     22  O5  BGC B   2      -0.075 -24.061 -20.6450  0.00  0.00     0.000 O
ATOM     23   O  BGC B   2       3.435 -23.442 -19.8300  0.00  0.00     0.000 O
ATOM     25  HD  BGC B   2       3.042 -24.212 -19.7710  0.00  0.00     0.000 HD
ATOM     25   O  BGC B   2       2.676 -25.467 -17.9510  0.00  0.00     0.000 O
ATOM     27  HD  BGC B   2       2.283 -26.237 -17.8920  0.00  0.00     0.000 HD
ATOM     27   C  BGC B   2      -1.676 -25.791 -20.2630  0.00  0.00     0.000 C
ATOM     28   O  BGC B   2      -2.293 -25.158 -19.1540  0.00  0.00     0.000 O
ATOM     30  HD  BGC B   2      -2.686 -25.927 -19.0950  0.00  0.00     0.000 HD
BRANCH 17 30
ATOM     30  O4  BGC B   3       1.246 -22.313 -21.2280  0.00  0.00     0.000 O
BRANCH 30 34
ATOM     31  C1  BGC B   3       0.397 -19.836 -24.4010  0.00  0.00     0.000 C
ATOM     32  C2  BGC B   3      -0.830 -20.334 -23.6390  0.00  0.00     0.000 C
ATOM     33  C3  BGC B   3      -0.384 -20.886 -22.2960  0.00  0.00     0.000 C
ATOM     34  C4  BGC B   3       0.678 -21.966 -22.4950  0.00  0.00     0.000 C
ATOM     35  C5  BGC B   3       1.799 -21.449 -23.3790  0.00  0.00     0.000 C
ATOM     36  O5  BGC B   3       1.249 -20.953 -24.6040  0.00  0.00     0.000 O
ATOM     37   O  BGC B   3      -1.720 -19.245 -23.4060  0.00  0.00     0.000 O
ATOM     39  HD  BGC B   3      -2.313 -19.810 -23.1260  0.00  0.00     0.000 HD
ATOM     39   O  BGC B   3      -1.519 -21.416 -21.6280  0.00  0.00     0.000 O
ATOM     41  HD  BGC B   3      -2.112 -21.981 -21.3480  0.00  0.00     0.000 HD
ATOM     41   C  BGC B   3       2.861 -22.492 -23.7070  0.00  0.00     0.000 C
ATOM     42   O  BGC B   3       2.271 -23.605 -24.3370  0.00  0.00     0.000 O
ATOM     44  HD  BGC B   3       1.678 -24.170 -24.0560  0.00  0.00     0.000 HD
BRANCH 31 44
ATOM     44  O4  BGC B   4      -0.040 -19.431 -25.6730  0.00  0.00     0.000 O
BRANCH 44 48
ATOM     45  C1  BGC B   4       0.797 -16.668 -28.5830  0.00  0.00     0.000 C
ATOM     46  C2  BGC B   4       1.997 -17.472 -28.1030  0.00  0.00     0.000 C
ATOM     47  C3  BGC B   4       1.518 -18.689 -27.3510  0.00  0.00     0.000 C
ATOM     48  C4  BGC B   4       0.560 -18.278 -26.2290  0.00  0.00     0.000 C
ATOM     49  C5  BGC B   4      -0.562 -17.388 -26.7770  0.00  0.00     0.000 C
ATOM     50  O5  BGC B   4       0.004 -16.263 -27.4650  0.00  0.00     0.000 O
ATOM     51   O  BGC B   4       2.788 -17.896 -29.2290  0.00  0.00     0.000 O
ATOM     53  HD  BGC B   4       2.380 -18.640 -29.0610  0.00  0.00     0.000 HD
ATOM     53   O  BGC B   4       2.655 -19.365 -26.7940  0.00  0.00     0.000 O
ATOM     55  HD  BGC B   4       2.246 -20.110 -26.6260  0.00  0.00     0.000 HD
ATOM     55   C  BGC B   4      -1.498 -16.834 -25.7170  0.00  0.00     0.000 C
ATOM     56   O  BGC B   4      -0.702 -16.146 -24.7500  0.00  0.00     0.000 O
ATOM     58  HD  BGC B   4      -1.111 -16.891 -24.5820  0.00  0.00     0.000 HD
BRANCH 45 58
ATOM     58  O4  BGC B   5       1.320 -15.424 -29.0480  0.00  0.00     0.000 O
BRANCH 58 62
ATOM     59  C1  BGC B   5       1.086 -12.787 -32.2320  0.00  0.00     0.000 C
ATOM     60  C2  BGC B   5      -0.092 -12.762 -31.2800  0.00  0.00     0.000 C
ATOM     61  C3  BGC B   5       0.270 -13.430 -29.9670  0.00  0.00     0.000 C
ATOM     62  C4  BGC B   5       0.793 -14.832 -30.2370  0.00  0.00     0.000 C
ATOM     63  C5  BGC B   5       1.930 -14.795 -31.2690  0.00  0.00     0.000 C
ATOM     64  O5  BGC B   5       1.461 -14.151 -32.4480  0.00  0.00     0.000 O
ATOM     65   O  BGC B   5       1.283 -16.867 -32.1560  0.00  0.00     0.000 O
ATOM     67  HD  BGC B   5       0.838 -17.581 -31.9520  0.00  0.00     0.000 HD
ATOM     67   O  BGC B   5       1.283 -16.867 -32.1560  0.00  0.00     0.000 O
ATOM     69  HD  BGC B   5       0.838 -17.581 -31.9520  0.00  0.00     0.000 HD
ENDBRANCH 58 62
ENDBRANCH 45 58
ENDBRANCH 44 48
ENDBRANCH 31 44
ENDBRANCH 30 34
ENDBRANCH 17 30
ENDBRANCH 16 20
ENDBRANCH 1 16
TORSDOF 8
ENDMDL
MODEL 74
REMARK VINA RESULT:      -4.7     25.513     29.434
ROOT
ATOM      1  C1  BGC B   1      -3.887 -22.601 -18.2060  0.00  0.00     0.000 C
ATOM      2  C2  BGC B   1      -5.037 -23.601 -18.3050  0.00  0.00     0.000 C
ATOM      3  C3  BGC B   1      -5.310 -24.217 -16.9460  0.00  0.00     0.000 C
ATOM      4  C4  BGC B   1      -4.030 -24.779 -16.3420  0.00  0.00     0.000 C
ATOM      5  C5  BGC B   1      -2.991 -23.668 -16.2960  0.00  0.00     0.000 C
ATOM      6  O5  BGC B   1      -2.750 -23.247 -17.6510  0.00  0.00     0.000 O
ATOM      7   O  BGC B   1      -6.218 -22.921 -18.7620  0.00  0.00     0.000 O
ATOM      9  HD  BGC B   1      -6.986 -23.243 -18.5240  0.00  0.00     0.000 HD
ATOM      9   O  BGC B   1      -6.297 -25.242 -17.0930  0.00  0.00     0.000 O
ATOM     11  HD  BGC B   1      -7.065 -25.565 -16.8550  0.00  0.00     0.000 HD
ATOM     11   O  BGC B   1      -4.288 -25.250 -15.0370  0.00  0.00     0.000 O
ATOM     13  HD  BGC B   1      -5.056 -25.572 -14.8000  0.00  0.00     0.000 HD
ATOM     13   C  BGC B   1      -1.661 -24.062 -15.6680  0.00  0.00     0.000 C
ATOM     14   O  BGC B   1      -1.080 -25.200 -16.2990  0.00  0.00     0.000 O
ATOM     16  HD  BGC B   1      -1.848 -25.522 -16.0610  0.00  0.00     0.000 HD
ENDROOT
BRANCH 1 16
ATOM     16  O4  BGC B   2      -3.518 -22.285 -19.5470  0.00  0.00     0.000 O
BRANCH 16 20
ATOM     17  C1  BGC B   2      -2.248 -19.189 -21.8580  0.00  0.00     0.000 C
ATOM     18  C2  BGC B   2      -1.172 -19.746 -20.9380  0.00  0.00     0.000 C
ATOM     19  C3  BGC B   2      -1.641 -21.099 -20.4080  0.00  0.00     0.000 C
ATOM     20  C4  BGC B   2      -3.007 -20.972 -19.7650  0.00  0.00     0.000 C
ATOM     21  C5  BGC B   2      -4.005 -20.234 -20.6580  0.00  0.00     0.000 C
ATOM     22  O5  BGC B   2      -3.425 -18.985 -21.0550  0.00  0.00     0.000 O
ATOM     23   O  BGC B   2       0.055 -19.925 -21.6640  0.00  0.00     0.000 O
ATOM     25  HD  BGC B   2      -0.564 -20.468 -21.3950  0.00  0.00     0.000 HD
ATOM     25   O  BGC B   2      -0.699 -21.604 -19.4680  0.00  0.00     0.000 O
ATOM     27  HD  BGC B   2      -1.318 -22.147 -19.2000  0.00  0.00     0.000 HD
ATOM     27   C  BGC B   2      -5.322 -19.932 -19.9540  0.00  0.00     0.000 C
ATOM     28   O  BGC B   2      -5.161 -19.192 -18.7550  0.00  0.00     0.000 O
ATOM     30  HD  BGC B   2      -5.780 -19.735 -18.4870  0.00  0.00     0.000 HD
BRANCH 17 30
ATOM     30  O4  BGC B   3      -1.831 -17.891 -22.2380  0.00  0.00     0.000 O
BRANCH 30 34
ATOM     31  C1  BGC B   3      -2.192 -15.283 -25.3990  0.00  0.00     0.000 C
ATOM     32  C2  BGC B   3      -3.430 -15.376 -24.5080  0.00  0.00     0.000 C
ATOM     33  C3  BGC B   3      -3.043 -16.034 -23.1950  0.00  0.00     0.000 C
ATOM     34  C4  BGC B   3      -2.388 -17.390 -23.4570  0.00  0.00     0.000 C
ATOM     35  C5  BGC B   3      -1.257 -17.246 -24.4600  0.00  0.00     0.000 C
ATOM     36  O5  BGC B   3      -1.749 -16.608 -25.6430  0.00  0.00     0.000 O
ATOM     37   O  BGC B   3      -3.916 -14.064 -24.2290  0.00  0.00     0.000 O
ATOM     39  HD  BGC B   3      -4.622 -14.419 -23.8760  0.00  0.00     0.000 HD
ATOM     39   O  BGC B   3      -4.213 -16.186 -22.4060  0.00  0.00     0.000 O
ATOM     41  HD  BGC B   3      -4.920 -16.541 -22.0520  0.00  0.00     0.000 HD
ATOM     41   C  BGC B   3      -0.604 -18.567 -24.8510  0.00  0.00     0.000 C
ATOM     42   O  BGC B   3      -1.566 -19.445 -25.3840  0.00  0.00     0.000 O
ATOM     44  HD  BGC B   3      -2.273 -19.799 -25.0310  0.00  0.00     0.000 HD
BRANCH 31 44
ATOM     44  O4  BGC B   4      -2.608 -14.766 -26.6360  0.00  0.00     0.000 O
BRANCH 44 48
ATOM     45  C1  BGC B   4      -1.335 -12.255 -29.6160  0.00  0.00     0.000 C
ATOM     46  C2  BGC B   4      -0.668 -13.623 -29.6060  0.00  0.00     0.000 C
ATOM     47  C3  BGC B   4      -1.473 -14.569 -28.7500  0.00  0.00     0.000 C
ATOM     48  C4  BGC B   4      -1.684 -13.974 -27.3540  0.00  0.00     0.000 C
ATOM     49  C5  BGC B   4      -2.263 -12.558 -27.4540  0.00  0.00     0.000 C
ATOM     50  O5  BGC B   4      -1.419 -11.746 -28.2840  0.00  0.00     0.000 O
ATOM     51   O  BGC B   4      -0.597 -14.147 -30.9460  0.00  0.00     0.000 O
ATOM     53  HD  BGC B   4      -1.267 -14.610 -30.6530  0.00  0.00     0.000 HD
ATOM     53   O  BGC B   4      -0.765 -15.813 -28.6440  0.00  0.00     0.000 O
ATOM     55  HD  BGC B   4      -1.436 -16.276 -28.3510  0.00  0.00     0.000 HD
ATOM     55   C  BGC B   4      -2.399 -11.840 -26.1230  0.00  0.00     0.000 C
ATOM     56   O  BGC B   4      -1.116 -11.843 -25.4940  0.00  0.00     0.000 O
ATOM     58  HD  BGC B   4      -1.787 -12.306 -25.2010  0.00  0.00     0.000 HD
BRANCH 45 58
ATOM     58  O4  BGC B   5      -0.395 -11.366 -30.2200  0.00  0.00     0.000 O
BRANCH 58 62
ATOM     59  C1  BGC B   5      -0.162  -8.041 -32.6770  0.00  0.00     0.000 C
ATOM     60  C2  BGC B   5      -0.728  -7.789 -31.2940  0.00  0.00     0.000 C
ATOM     61  C3  BGC B   5      -0.389  -8.937 -30.3620  0.00  0.00     0.000 C
ATOM     62  C4  BGC B   5      -0.862 -10.246 -30.9740  0.00  0.00     0.000 C
ATOM     63  C5  BGC B   5      -0.319 -10.402 -32.4020  0.00  0.00     0.000 C
ATOM     64  O5  BGC B   5      -0.708  -9.269 -33.1700  0.00  0.00     0.000 O
ATOM     65   O  BGC B   5      -2.260 -11.523 -33.0910  0.00  0.00     0.000 O
ATOM     67  HD  BGC B   5      -2.929 -11.974 -32.7750  0.00  0.00     0.000 HD
ATOM     67   O  BGC B   5      -2.260 -11.523 -33.0910  0.00  0.00     0.000 O
ATOM     69  HD  BGC B   5      -2.929 -11.974 -32.7750  0.00  0.00     0.000 HD
ENDBRANCH 58 62
ENDBRANCH 45 58
ENDBRANCH 44 48
ENDBRANCH 31 44
ENDBRANCH 30 34
ENDBRANCH 17 30
ENDBRANCH 16 20
ENDBRANCH 1 16
TORSDOF 8
ENDMDL
MODEL 75
REMARK VINA RESULT:      -4.7     24.869     26.228
ROOT
ATOM      1  C1  BGC B   1      -6.235  -3.740 -26.0220  0.00  0.00     0.000 C
ATOM      2  C2  BGC B   1      -5.511  -2.551 -25.3940  0.00  0.00     0.000 C
ATOM      3  C3  BGC B   1      -6.473  -1.392 -25.2140  0.00  0.00     0.000 C
ATOM      4  C4  BGC B   1      -7.193  -1.080 -26.5190  0.00  0.00     0.000 C
ATOM      5  C5  BGC B   1      -7.874  -2.349 -27.0090  0.00  0.00     0.000 C
ATOM      6  O5  BGC B   1      -6.844  -3.329 -27.2390  0.00  0.00     0.000 O
ATOM      7   O  BGC B   1      -4.990  -2.938 -24.1120  0.00  0.00     0.000 O
ATOM      9  HD  BGC B   1      -4.892  -2.319 -23.5140  0.00  0.00     0.000 HD
ATOM      9   O  BGC B   1      -5.742  -0.253 -24.7500  0.00  0.00     0.000 O
ATOM     11  HD  BGC B   1      -5.644   0.366 -24.1520  0.00  0.00     0.000 HD
ATOM     11   O  BGC B   1      -8.155  -0.072 -26.3010  0.00  0.00     0.000 O
ATOM     13  HD  BGC B   1      -8.057   0.547 -25.7030  0.00  0.00     0.000 HD
ATOM     13   C  BGC B   1      -8.681  -2.188 -28.2890  0.00  0.00     0.000 C
ATOM     14   O  BGC B   1      -7.906  -1.650 -29.3560  0.00  0.00     0.000 O
ATOM     16  HD  BGC B   1      -7.808  -1.031 -28.7580  0.00  0.00     0.000 HD
ENDROOT
BRANCH 1 16
ATOM     16  O4  BGC B   2      -5.221  -4.665 -26.4080  0.00  0.00     0.000 O
BRANCH 16 20
ATOM     17  C1  BGC B   2      -4.501  -8.651 -26.7770  0.00  0.00     0.000 C
ATOM     18  C2  BGC B   2      -5.485  -8.110 -27.8040  0.00  0.00     0.000 C
ATOM     19  C3  BGC B   2      -5.395  -6.586 -27.8050  0.00  0.00     0.000 C
ATOM     20  C4  BGC B   2      -5.592  -6.041 -26.4050  0.00  0.00     0.000 C
ATOM     21  C5  BGC B   2      -4.713  -6.751 -25.3750  0.00  0.00     0.000 C
ATOM     22  O5  BGC B   2      -4.925  -8.164 -25.4900  0.00  0.00     0.000 O
ATOM     23   O  BGC B   2      -5.155  -8.602 -29.1130  0.00  0.00     0.000 O
ATOM     25  HD  BGC B   2      -5.036  -7.843 -28.7130  0.00  0.00     0.000 HD
ATOM     25   O  BGC B   2      -6.372  -6.044 -28.6870  0.00  0.00     0.000 O
ATOM     27  HD  BGC B   2      -6.253  -5.285 -28.2870  0.00  0.00     0.000 HD
ATOM     27   C  BGC B   2      -5.035  -6.349 -23.9410  0.00  0.00     0.000 C
ATOM     28   O  BGC B   2      -6.393  -6.557 -23.5900  0.00  0.00     0.000 O
ATOM     30  HD  BGC B   2      -6.274  -5.798 -23.1910  0.00  0.00     0.000 HD
BRANCH 17 30
ATOM     30  O4  BGC B   3      -4.693 -10.052 -26.7240  0.00  0.00     0.000 O
BRANCH 30 34
ATOM     31  C1  BGC B   3      -2.575 -13.477 -25.8870  0.00  0.00     0.000 C
ATOM     32  C2  BGC B   3      -2.988 -12.670 -24.6560  0.00  0.00     0.000 C
ATOM     33  C3  BGC B   3      -4.073 -11.686 -25.0560  0.00  0.00     0.000 C
ATOM     34  C4  BGC B   3      -3.593 -10.812 -26.2140  0.00  0.00     0.000 C
ATOM     35  C5  BGC B   3      -3.064 -11.676 -27.3450  0.00  0.00     0.000 C
ATOM     36  O5  BGC B   3      -2.058 -12.560 -26.8380  0.00  0.00     0.000 O
ATOM     37   O  BGC B   3      -3.518 -13.550 -23.6670  0.00  0.00     0.000 O
ATOM     39  HD  BGC B   3      -3.518 -12.891 -23.1050  0.00  0.00     0.000 HD
ATOM     39   O  BGC B   3      -4.396 -10.889 -23.9270  0.00  0.00     0.000 O
ATOM     41  HD  BGC B   3      -4.396 -10.230 -23.3650  0.00  0.00     0.000 HD
ATOM     41   C  BGC B   3      -2.477 -10.884 -28.5080  0.00  0.00     0.000 C
ATOM     42   O  BGC B   3      -1.435 -10.054 -28.0540  0.00  0.00     0.000 O
ATOM     44  HD  BGC B   3      -1.435  -9.395 -27.4920  0.00  0.00     0.000 HD
BRANCH 31 44
ATOM     44  O4  BGC B   4      -1.503 -14.300 -25.5030  0.00  0.00     0.000 O
BRANCH 44 48
ATOM     45  C1  BGC B   4       0.084 -18.008 -26.2340  0.00  0.00     0.000 C
ATOM     46  C2  BGC B   4      -0.075 -17.129 -27.4660  0.00  0.00     0.000 C
ATOM     47  C3  BGC B   4      -0.283 -15.697 -27.0380  0.00  0.00     0.000 C
ATOM     48  C4  BGC B   4      -1.453 -15.601 -26.0540  0.00  0.00     0.000 C
ATOM     49  C5  BGC B   4      -1.267 -16.590 -24.8960  0.00  0.00     0.000 C
ATOM     50  O5  BGC B   4      -1.083 -17.915 -25.4160  0.00  0.00     0.000 O
ATOM     51   O  BGC B   4       1.107 -17.207 -28.2850  0.00  0.00     0.000 O
ATOM     53  HD  BGC B   4       1.251 -16.440 -27.9100  0.00  0.00     0.000 HD
ATOM     53   O  BGC B   4      -0.562 -14.903 -28.2000  0.00  0.00     0.000 O
ATOM     55  HD  BGC B   4      -0.418 -14.136 -27.8250  0.00  0.00     0.000 HD
ATOM     55   C  BGC B   4      -2.435 -16.650 -23.9280  0.00  0.00     0.000 C
ATOM     56   O  BGC B   4      -3.612 -16.939 -24.6840  0.00  0.00     0.000 O
ATOM     58  HD  BGC B   4      -3.468 -16.172 -24.3090  0.00  0.00     0.000 HD
BRANCH 45 58
ATOM     58  O4  BGC B   5       0.016 -19.355 -26.7040  0.00  0.00     0.000 O
BRANCH 58 62
ATOM     59  C1  BGC B   5       2.025 -22.967 -26.4540  0.00  0.00     0.000 C
ATOM     60  C2  BGC B   5       1.113 -22.649 -25.2870  0.00  0.00     0.000 C
ATOM     61  C3  BGC B   5       0.136 -21.549 -25.6590  0.00  0.00     0.000 C
ATOM     62  C4  BGC B   5       0.903 -20.339 -26.1680  0.00  0.00     0.000 C
ATOM     63  C5  BGC B   5       1.866 -20.744 -27.2930  0.00  0.00     0.000 C
ATOM     64  O5  BGC B   5       2.726 -21.773 -26.8160  0.00  0.00     0.000 O
ATOM     65   O  BGC B   5       3.435 -19.136 -26.6210  0.00  0.00     0.000 O
ATOM     67  HD  BGC B   5       3.498 -18.398 -26.1730  0.00  0.00     0.000 HD
ATOM     67   O  BGC B   5       3.435 -19.136 -26.6210  0.00  0.00     0.000 O
ATOM     69  HD  BGC B   5       3.498 -18.398 -26.1730  0.00  0.00     0.000 HD
ENDBRANCH 58 62
ENDBRANCH 45 58
ENDBRANCH 44 48
ENDBRANCH 31 44
ENDBRANCH 30 34
ENDBRANCH 17 30
ENDBRANCH 16 20
ENDBRANCH 1 16
TORSDOF 8
ENDMDL
MODEL 76
REMARK VINA RESULT:      -4.7     25.997     27.478
ROOT
ATOM      1  C1  BGC B   1      -4.597  -9.307 -28.4050  0.00  0.00     0.000 C
ATOM      2  C2  BGC B   1      -5.325  -8.315 -27.4980  0.00  0.00     0.000 C
ATOM      3  C3  BGC B   1      -5.884  -7.171 -28.3210  0.00  0.00     0.000 C
ATOM      4  C4  BGC B   1      -4.799  -6.554 -29.1950  0.00  0.00     0.000 C
ATOM      5  C5  BGC B   1      -4.182  -7.655 -30.0460  0.00  0.00     0.000 C
ATOM      6  O5  BGC B   1      -3.600  -8.618 -29.1470  0.00  0.00     0.000 O
ATOM      7   O  BGC B   1      -6.404  -8.989 -26.8300  0.00  0.00     0.000 O
ATOM      9  HD  BGC B   1      -7.090  -8.516 -26.5940  0.00  0.00     0.000 HD
ATOM      9   O  BGC B   1      -6.442  -6.194 -27.4370  0.00  0.00     0.000 O
ATOM     11  HD  BGC B   1      -7.127  -5.721 -27.2010  0.00  0.00     0.000 HD
ATOM     11   O  BGC B   1      -5.365  -5.565 -30.0270  0.00  0.00     0.000 O
ATOM     13  HD  BGC B   1      -6.051  -5.091 -29.7900  0.00  0.00     0.000 HD
ATOM     13   C  BGC B   1      -3.106  -7.187 -31.0150  0.00  0.00     0.000 C
ATOM     14   O  BGC B   1      -2.058  -6.479 -30.3610  0.00  0.00     0.000 O
ATOM     16  HD  BGC B   1      -2.743  -6.005 -30.1250  0.00  0.00     0.000 HD
ENDROOT
BRANCH 1 16
ATOM     16  O4  BGC B   2      -3.877 -10.183 -27.5400  0.00  0.00     0.000 O
BRANCH 16 20
ATOM     17  C1  BGC B   2      -2.448 -13.988 -27.4030  0.00  0.00     0.000 C
ATOM     18  C2  BGC B   2      -1.506 -13.005 -28.0830  0.00  0.00     0.000 C
ATOM     19  C3  BGC B   2      -1.966 -11.586 -27.7540  0.00  0.00     0.000 C
ATOM     20  C4  BGC B   2      -3.425 -11.405 -28.1180  0.00  0.00     0.000 C
ATOM     21  C5  BGC B   2      -4.307 -12.526 -27.5670  0.00  0.00     0.000 C
ATOM     22  O5  BGC B   2      -3.754 -13.783 -27.9750  0.00  0.00     0.000 O
ATOM     23   O  BGC B   2      -0.166 -13.189 -27.5990  0.00  0.00     0.000 O
ATOM     25  HD  BGC B   2      -0.784 -12.604 -27.4370  0.00  0.00     0.000 HD
ATOM     25   O  BGC B   2      -1.162 -10.643 -28.4540  0.00  0.00     0.000 O
ATOM     27  HD  BGC B   2      -1.780 -10.058 -28.2920  0.00  0.00     0.000 HD
ATOM     27   C  BGC B   2      -5.740 -12.461 -28.0800  0.00  0.00     0.000 C
ATOM     28   O  BGC B   2      -5.832 -12.474 -29.4950  0.00  0.00     0.000 O
ATOM     30  HD  BGC B   2      -6.449 -11.888 -29.3340  0.00  0.00     0.000 HD
BRANCH 17 30
ATOM     30  O4  BGC B   3      -2.060 -15.283 -27.8210  0.00  0.00     0.000 O
BRANCH 30 34
ATOM     31  C1  BGC B   3      -1.531 -18.526 -25.3470  0.00  0.00     0.000 C
ATOM     32  C2  BGC B   3      -2.295 -18.829 -26.6350  0.00  0.00     0.000 C
ATOM     33  C3  BGC B   3      -2.077 -17.690 -27.6150  0.00  0.00     0.000 C
ATOM     34  C4  BGC B   3      -2.478 -16.360 -26.9770  0.00  0.00     0.000 C
ATOM     35  C5  BGC B   3      -1.792 -16.190 -25.6330  0.00  0.00     0.000 C
ATOM     36  O5  BGC B   3      -2.068 -17.328 -24.8100  0.00  0.00     0.000 O
ATOM     37   O  BGC B   3      -1.788 -20.028 -27.2170  0.00  0.00     0.000 O
ATOM     39  HD  BGC B   3      -2.447 -20.014 -27.7790  0.00  0.00     0.000 HD
ATOM     39   O  BGC B   3      -2.851 -17.942 -28.7780  0.00  0.00     0.000 O
ATOM     41  HD  BGC B   3      -3.510 -17.927 -29.3400  0.00  0.00     0.000 HD
ATOM     41   C  BGC B   3      -2.206 -14.930 -24.8810  0.00  0.00     0.000 C
ATOM     42   O  BGC B   3      -3.599 -14.922 -24.6770  0.00  0.00     0.000 O
ATOM     44  HD  BGC B   3      -4.258 -14.908 -25.2390  0.00  0.00     0.000 HD
BRANCH 31 44
ATOM     44  O4  BGC B   4      -1.838 -19.547 -24.4320  0.00  0.00     0.000 O
BRANCH 44 48
ATOM     45  C1  BGC B   4      -0.117 -21.767 -21.4460  0.00  0.00     0.000 C
ATOM     46  C2  BGC B   4      -0.378 -20.310 -21.0880  0.00  0.00     0.000 C
ATOM     47  C3  BGC B   4      -1.344 -19.714 -22.0820  0.00  0.00     0.000 C
ATOM     48  C4  BGC B   4      -0.832 -19.918 -23.5110  0.00  0.00     0.000 C
ATOM     49  C5  BGC B   4      -0.497 -21.394 -23.7580  0.00  0.00     0.000 C
ATOM     50  O5  BGC B   4       0.429 -21.854 -22.7630  0.00  0.00     0.000 O
ATOM     51   O  BGC B   4      -0.945 -20.220 -19.7680  0.00  0.00     0.000 O
ATOM     53  HD  BGC B   4      -1.665 -20.104 -20.2340  0.00  0.00     0.000 HD
ATOM     53   O  BGC B   4      -1.478 -18.311 -21.8110  0.00  0.00     0.000 O
ATOM     55  HD  BGC B   4      -2.198 -18.195 -22.2780  0.00  0.00     0.000 HD
ATOM     55   C  BGC B   4       0.128 -21.678 -25.1120  0.00  0.00     0.000 C
ATOM     56   O  BGC B   4       1.282 -20.846 -25.2410  0.00  0.00     0.000 O
ATOM     58  HD  BGC B   4       0.562 -20.730 -25.7080  0.00  0.00     0.000 HD
BRANCH 45 58
ATOM     58  O4  BGC B   5       0.983 -22.178 -20.6350  0.00  0.00     0.000 O
BRANCH 58 62
ATOM     59  C1  BGC B   5       2.268 -25.279 -18.2100  0.00  0.00     0.000 C
ATOM     60  C2  BGC B   5       2.228 -25.587 -19.6930  0.00  0.00     0.000 C
ATOM     61  C3  BGC B   5       2.156 -24.306 -20.5020  0.00  0.00     0.000 C
ATOM     62  C4  BGC B   5       0.975 -23.473 -20.0300  0.00  0.00     0.000 C
ATOM     63  C5  BGC B   5       1.031 -23.265 -18.5100  0.00  0.00     0.000 C
ATOM     64  O5  BGC B   5       1.091 -24.537 -17.8730  0.00  0.00     0.000 O
ATOM     65   O  BGC B   5      -1.307 -23.305 -18.3480  0.00  0.00     0.000 O
ATOM     67  HD  BGC B   5      -2.020 -23.191 -18.8260  0.00  0.00     0.000 HD
ATOM     67   O  BGC B   5      -1.307 -23.305 -18.3480  0.00  0.00     0.000 O
ATOM     69  HD  BGC B   5      -2.020 -23.191 -18.8260  0.00  0.00     0.000 HD
ENDBRANCH 58 62
ENDBRANCH 45 58
ENDBRANCH 44 48
ENDBRANCH 31 44
ENDBRANCH 30 34
ENDBRANCH 17 30
ENDBRANCH 16 20
ENDBRANCH 1 16
TORSDOF 8
ENDMDL
MODEL 77
REMARK VINA RESULT:      -4.7     27.964     30.193
ROOT
ATOM      1  C1  BGC B   1      -4.417 -20.086  -9.1120  0.00  0.00     0.000 C
ATOM      2  C2  BGC B   1      -5.840 -19.532  -9.1530  0.00  0.00     0.000 C
ATOM      3  C3  BGC B   1      -5.953 -18.319  -8.2500  0.00  0.00     0.000 C
ATOM      4  C4  BGC B   1      -5.436 -18.637  -6.8530  0.00  0.00     0.000 C
ATOM      5  C5  BGC B   1      -4.012 -19.160  -6.9740  0.00  0.00     0.000 C
ATOM      6  O5  BGC B   1      -4.061 -20.362  -7.7640  0.00  0.00     0.000 O
ATOM      7   O  BGC B   1      -6.160 -19.149 -10.5010  0.00  0.00     0.000 O
ATOM      9  HD  BGC B   1      -6.741 -18.517 -10.6130  0.00  0.00     0.000 HD
ATOM      9   O  BGC B   1      -7.321 -17.902  -8.2040  0.00  0.00     0.000 O
ATOM     11  HD  BGC B   1      -7.903 -17.271  -8.3160  0.00  0.00     0.000 HD
ATOM     11   O  BGC B   1      -5.453 -17.467  -6.0630  0.00  0.00     0.000 O
ATOM     13  HD  BGC B   1      -6.034 -16.836  -6.1750  0.00  0.00     0.000 HD
ATOM     13   C  BGC B   1      -3.334 -19.479  -5.6490  0.00  0.00     0.000 C
ATOM     14   O  BGC B   1      -4.087 -20.396  -4.8610  0.00  0.00     0.000 O
ATOM     16  HD  BGC B   1      -4.669 -19.764  -4.9730  0.00  0.00     0.000 HD
ENDROOT
BRANCH 1 16
ATOM     16  O4  BGC B   2      -4.467 -21.360  -9.7520  0.00  0.00     0.000 O
BRANCH 16 20
ATOM     17  C1  BGC B   2      -2.170 -23.870 -11.9790  0.00  0.00     0.000 C
ATOM     18  C2  BGC B   2      -1.901 -23.960 -10.4840  0.00  0.00     0.000 C
ATOM     19  C3  BGC B   2      -3.044 -23.268  -9.7430  0.00  0.00     0.000 C
ATOM     20  C4  BGC B   2      -3.231 -21.856 -10.2590  0.00  0.00     0.000 C
ATOM     21  C5  BGC B   2      -3.306 -21.798 -11.7850  0.00  0.00     0.000 C
ATOM     22  O5  BGC B   2      -2.162 -22.472 -12.3240  0.00  0.00     0.000 O
ATOM     23   O  BGC B   2      -1.841 -25.336 -10.0750  0.00  0.00     0.000 O
ATOM     25  HD  BGC B   2      -2.445 -24.720 -10.0070  0.00  0.00     0.000 HD
ATOM     25   O  BGC B   2      -2.775 -23.251  -8.3460  0.00  0.00     0.000 O
ATOM     27  HD  BGC B   2      -3.379 -22.634  -8.2780  0.00  0.00     0.000 HD
ATOM     27   C  BGC B   2      -3.304 -20.374 -12.3270  0.00  0.00     0.000 C
ATOM     28   O  BGC B   2      -2.184 -19.614 -11.9040  0.00  0.00     0.000 O
ATOM     30  HD  BGC B   2      -2.788 -18.997 -11.8360  0.00  0.00     0.000 HD
BRANCH 17 30
ATOM     30  O4  BGC B   3      -1.040 -24.418 -12.6310  0.00  0.00     0.000 O
BRANCH 30 34
ATOM     31  C1  BGC B   3      -0.085 -26.550 -16.0170  0.00  0.00     0.000 C
ATOM     32  C2  BGC B   3      -0.890 -25.277 -16.2750  0.00  0.00     0.000 C
ATOM     33  C3  BGC B   3      -0.830 -24.399 -15.0380  0.00  0.00     0.000 C
ATOM     34  C4  BGC B   3      -1.312 -25.177 -13.8140  0.00  0.00     0.000 C
ATOM     35  C5  BGC B   3      -0.569 -26.496 -13.7000  0.00  0.00     0.000 C
ATOM     36  O5  BGC B   3      -0.696 -27.222 -14.9270  0.00  0.00     0.000 O
ATOM     37   O  BGC B   3      -0.313 -24.562 -17.3650  0.00  0.00     0.000 O
ATOM     39  HD  BGC B   3      -1.001 -24.035 -17.3630  0.00  0.00     0.000 HD
ATOM     39   O  BGC B   3      -1.643 -23.256 -15.2580  0.00  0.00     0.000 O
ATOM     41  HD  BGC B   3      -2.331 -22.730 -15.2550  0.00  0.00     0.000 HD
ATOM     41   C  BGC B   3      -1.051 -27.381 -12.5560  0.00  0.00     0.000 C
ATOM     42   O  BGC B   3      -2.425 -27.653 -12.6970  0.00  0.00     0.000 O
ATOM     44  HD  BGC B   3      -3.113 -27.126 -12.6950  0.00  0.00     0.000 HD
BRANCH 31 44
ATOM     44  O4  BGC B   4      -0.247 -27.379 -17.1390  0.00  0.00     0.000 O
BRANCH 44 48
ATOM     45  C1  BGC B   4       1.817 -30.078 -19.4330  0.00  0.00     0.000 C
ATOM     46  C2  BGC B   4       1.726 -30.434 -17.9560  0.00  0.00     0.000 C
ATOM     47  C3  BGC B   4       0.642 -29.610 -17.3050  0.00  0.00     0.000 C
ATOM     48  C4  BGC B   4       0.877 -28.119 -17.5690  0.00  0.00     0.000 C
ATOM     49  C5  BGC B   4       1.059 -27.859 -19.0690  0.00  0.00     0.000 C
ATOM     50  O5  BGC B   4       2.113 -28.688 -19.5800  0.00  0.00     0.000 O
ATOM     51   O  BGC B   4       1.410 -31.831 -17.8030  0.00  0.00     0.000 O
ATOM     53  HD  BGC B   4       0.628 -31.495 -17.6420  0.00  0.00     0.000 HD
ATOM     53   O  BGC B   4       0.657 -29.859 -15.8920  0.00  0.00     0.000 O
ATOM     55  HD  BGC B   4      -0.125 -29.524 -15.7310  0.00  0.00     0.000 HD
ATOM     55   C  BGC B   4       1.413 -26.425 -19.4200  0.00  0.00     0.000 C
ATOM     56   O  BGC B   4       2.581 -26.071 -18.6770  0.00  0.00     0.000 O
ATOM     58  HD  BGC B   4       1.799 -25.735 -18.5160  0.00  0.00     0.000 HD
BRANCH 45 58
ATOM     58  O4  BGC B   5       3.012 -30.694 -19.9110  0.00  0.00     0.000 O
BRANCH 58 62
ATOM     59  C1  BGC B   5       4.589 -32.661 -23.1970  0.00  0.00     0.000 C
ATOM     60  C2  BGC B   5       4.205 -31.213 -23.4280  0.00  0.00     0.000 C
ATOM     61  C3  BGC B   5       4.043 -30.487 -22.1060  0.00  0.00     0.000 C
ATOM     62  C4  BGC B   5       3.051 -31.238 -21.2320  0.00  0.00     0.000 C
ATOM     63  C5  BGC B   5       3.453 -32.715 -21.1030  0.00  0.00     0.000 C
ATOM     64  O5  BGC B   5       3.566 -33.276 -22.4070  0.00  0.00     0.000 O
ATOM     65   O  BGC B   5       1.209 -33.389 -21.0200  0.00  0.00     0.000 O
ATOM     67  HD  BGC B   5       0.417 -33.086 -20.8410  0.00  0.00     0.000 HD
ATOM     67   O  BGC B   5       1.209 -33.389 -21.0200  0.00  0.00     0.000 O
ATOM     69  HD  BGC B   5       0.417 -33.086 -20.8410  0.00  0.00     0.000 HD
ENDBRANCH 58 62
ENDBRANCH 45 58
ENDBRANCH 44 48
ENDBRANCH 31 44
ENDBRANCH 30 34
ENDBRANCH 17 30
ENDBRANCH 16 20
ENDBRANCH 1 16
TORSDOF 8
ENDMDL
MODEL 78
REMARK VINA RESULT:      -4.7     25.093     26.902
ROOT
ATOM      1  C1  BGC B   1      -5.821  -4.890 -25.3520  0.00  0.00     0.000 C
ATOM      2  C2  BGC B   1      -5.101  -3.645 -24.8360  0.00  0.00     0.000 C
ATOM      3  C3  BGC B   1      -5.940  -2.410 -25.1000  0.00  0.00     0.000 C
ATOM      4  C4  BGC B   1      -6.354  -2.344 -26.5650  0.00  0.00     0.000 C
ATOM      5  C5  BGC B   1      -7.068  -3.639 -26.9230  0.00  0.00     0.000 C
ATOM      6  O5  BGC B   1      -6.132  -4.715 -26.7270  0.00  0.00     0.000 O
ATOM      7   O  BGC B   1      -4.885  -3.776 -23.4210  0.00  0.00     0.000 O
ATOM      9  HD  BGC B   1      -4.834  -3.050 -22.9520  0.00  0.00     0.000 HD
ATOM      9   O  BGC B   1      -5.187  -1.252 -24.7300  0.00  0.00     0.000 O
ATOM     11  HD  BGC B   1      -5.137  -0.525 -24.2620  0.00  0.00     0.000 HD
ATOM     11   O  BGC B   1      -7.219  -1.247 -26.7630  0.00  0.00     0.000 O
ATOM     13  HD  BGC B   1      -7.169  -0.520 -26.2950  0.00  0.00     0.000 HD
ATOM     13   C  BGC B   1      -7.590  -3.706 -28.3520  0.00  0.00     0.000 C
ATOM     14   O  BGC B   1      -6.567  -3.472 -29.3140  0.00  0.00     0.000 O
ATOM     16  HD  BGC B   1      -6.516  -2.745 -28.8460  0.00  0.00     0.000 HD
ENDROOT
BRANCH 1 16
ATOM     16  O4  BGC B   2      -4.863  -5.946 -25.3190  0.00  0.00     0.000 O
BRANCH 16 20
ATOM     17  C1  BGC B   2      -4.683  -9.994 -24.9670  0.00  0.00     0.000 C
ATOM     18  C2  BGC B   2      -4.850  -9.512 -26.4010  0.00  0.00     0.000 C
ATOM     19  C3  BGC B   2      -4.540  -8.017 -26.4490  0.00  0.00     0.000 C
ATOM     20  C4  BGC B   2      -5.383  -7.268 -25.4370  0.00  0.00     0.000 C
ATOM     21  C5  BGC B   2      -5.330  -7.907 -24.0480  0.00  0.00     0.000 C
ATOM     22  O5  BGC B   2      -5.660  -9.296 -24.1720  0.00  0.00     0.000 O
ATOM     23   O  BGC B   2      -3.939 -10.209 -27.2660  0.00  0.00     0.000 O
ATOM     25  HD  BGC B   2      -3.943  -9.416 -26.9180  0.00  0.00     0.000 HD
ATOM     25   O  BGC B   2      -4.780  -7.515 -27.7580  0.00  0.00     0.000 O
ATOM     27  HD  BGC B   2      -4.783  -6.722 -27.4100  0.00  0.00     0.000 HD
ATOM     27   C  BGC B   2      -6.316  -7.282 -23.0690  0.00  0.00     0.000 C
ATOM     28   O  BGC B   2      -7.658  -7.313 -23.5260  0.00  0.00     0.000 O
ATOM     30  HD  BGC B   2      -7.662  -6.520 -23.1770  0.00  0.00     0.000 HD
BRANCH 17 30
ATOM     30  O4  BGC B   3      -5.087 -11.350 -24.9420  0.00  0.00     0.000 O
BRANCH 30 34
ATOM     31  C1  BGC B   3      -4.291 -14.845 -22.9240  0.00  0.00     0.000 C
ATOM     32  C2  BGC B   3      -4.866 -13.728 -22.0550  0.00  0.00     0.000 C
ATOM     33  C3  BGC B   3      -5.477 -12.669 -22.9560  0.00  0.00     0.000 C
ATOM     34  C4  BGC B   3      -4.442 -12.173 -23.9650  0.00  0.00     0.000 C
ATOM     35  C5  BGC B   3      -3.808 -13.346 -24.6920  0.00  0.00     0.000 C
ATOM     36  O5  BGC B   3      -3.279 -14.270 -23.7350  0.00  0.00     0.000 O
ATOM     37   O  BGC B   3      -5.893 -14.256 -21.2190  0.00  0.00     0.000 O
ATOM     39  HD  BGC B   3      -5.911 -13.503 -20.7920  0.00  0.00     0.000 HD
ATOM     39   O  BGC B   3      -5.939 -11.600 -22.1450  0.00  0.00     0.000 O
ATOM     41  HD  BGC B   3      -5.957 -10.846 -21.7190  0.00  0.00     0.000 HD
ATOM     41   C  BGC B   3      -2.695 -12.949 -25.6560  0.00  0.00     0.000 C
ATOM     42   O  BGC B   3      -1.685 -12.249 -24.9690  0.00  0.00     0.000 O
ATOM     44  HD  BGC B   3      -1.702 -11.496 -24.5420  0.00  0.00     0.000 HD
BRANCH 31 44
ATOM     44  O4  BGC B   4      -3.647 -15.751 -22.0640  0.00  0.00     0.000 O
BRANCH 44 48
ATOM     45  C1  BGC B   4      -2.870 -19.763 -21.7490  0.00  0.00     0.000 C
ATOM     46  C2  BGC B   4      -1.873 -18.985 -22.5960  0.00  0.00     0.000 C
ATOM     47  C3  BGC B   4      -2.024 -17.509 -22.3210  0.00  0.00     0.000 C
ATOM     48  C4  BGC B   4      -3.479 -17.076 -22.5250  0.00  0.00     0.000 C
ATOM     49  C5  BGC B   4      -4.426 -17.973 -21.7180  0.00  0.00     0.000 C
ATOM     50  O5  BGC B   4      -4.201 -19.348 -22.0610  0.00  0.00     0.000 O
ATOM     51   O  BGC B   4      -0.529 -19.389 -22.2710  0.00  0.00     0.000 O
ATOM     53  HD  BGC B   4      -0.556 -18.640 -21.8370  0.00  0.00     0.000 HD
ATOM     53   O  BGC B   4      -1.172 -16.783 -23.2180  0.00  0.00     0.000 O
ATOM     55  HD  BGC B   4      -1.198 -16.034 -22.7850  0.00  0.00     0.000 HD
ATOM     55   C  BGC B   4      -5.901 -17.694 -21.9470  0.00  0.00     0.000 C
ATOM     56   O  BGC B   4      -6.149 -17.790 -23.3510  0.00  0.00     0.000 O
ATOM     58  HD  BGC B   4      -6.176 -17.041 -22.9170  0.00  0.00     0.000 HD
BRANCH 45 58
ATOM     58  O4  BGC B   5      -2.847 -21.101 -22.2470  0.00  0.00     0.000 O
BRANCH 58 62
ATOM     59  C1  BGC B   5      -2.466 -25.009 -20.9320  0.00  0.00     0.000 C
ATOM     60  C2  BGC B   5      -3.869 -24.439 -20.8800  0.00  0.00     0.000 C
ATOM     61  C3  BGC B   5      -3.973 -23.199 -21.7480  0.00  0.00     0.000 C
ATOM     62  C4  BGC B   5      -2.905 -22.199 -21.3340  0.00  0.00     0.000 C
ATOM     63  C5  BGC B   5      -1.519 -22.859 -21.3300  0.00  0.00     0.000 C
ATOM     64  O5  BGC B   5      -1.555 -24.001 -20.4800  0.00  0.00     0.000 O
ATOM     65   O  BGC B   5      -0.824 -21.545 -19.5170  0.00  0.00     0.000 O
ATOM     67  HD  BGC B   5      -1.007 -20.804 -19.1090  0.00  0.00     0.000 HD
ATOM     67   O  BGC B   5      -0.824 -21.545 -19.5170  0.00  0.00     0.000 O
ATOM     69  HD  BGC B   5      -1.007 -20.804 -19.1090  0.00  0.00     0.000 HD
ENDBRANCH 58 62
ENDBRANCH 45 58
ENDBRANCH 44 48
ENDBRANCH 31 44
ENDBRANCH 30 34
ENDBRANCH 17 30
ENDBRANCH 16 20
ENDBRANCH 1 16
TORSDOF 8
ENDMDL
MODEL 79
REMARK VINA RESULT:      -4.6      4.515      5.093
ROOT
ATOM      1  C1  BGC B   1      21.535   4.844 -18.4100  0.00  0.00     0.000 C
ATOM      2  C2  BGC B   1      22.990   5.297 -18.5160  0.00  0.00     0.000 C
ATOM      3  C3  BGC B   1      23.077   6.806 -18.4010  0.00  0.00     0.000 C
ATOM      4  C4  BGC B   1      22.129   7.477 -19.3880  0.00  0.00     0.000 C
ATOM      5  C5  BGC B   1      20.726   6.940 -19.1500  0.00  0.00     0.000 C
ATOM      6  O5  BGC B   1      20.762   5.521 -19.3920  0.00  0.00     0.000 O
ATOM      7   O  BGC B   1      23.750   4.697 -17.4540  0.00  0.00     0.000 O
ATOM      9  HD  BGC B   1      24.452   5.119 -17.1730  0.00  0.00     0.000 HD
ATOM      9   O  BGC B   1      24.428   7.211 -18.6360  0.00  0.00     0.000 O
ATOM     11  HD  BGC B   1      25.130   7.634 -18.3550  0.00  0.00     0.000 HD
ATOM     11   O  BGC B   1      22.150   8.874 -19.1890  0.00  0.00     0.000 O
ATOM     13  HD  BGC B   1      22.851   9.297 -18.9070  0.00  0.00     0.000 HD
ATOM     13   C  BGC B   1      19.648   7.554 -20.0320  0.00  0.00     0.000 C
ATOM     14   O  BGC B   1      19.950   7.434 -21.4190  0.00  0.00     0.000 O
ATOM     16  HD  BGC B   1      20.652   7.857 -21.1380  0.00  0.00     0.000 HD
ENDROOT
BRANCH 1 16
ATOM     16  O4  BGC B   2      21.514   3.473 -18.8020  0.00  0.00     0.000 O
BRANCH 16 20
ATOM     17  C1  BGC B   2      19.682  -0.042 -17.8950  0.00  0.00     0.000 C
ATOM     18  C2  BGC B   2      18.870   0.849 -18.8230  0.00  0.00     0.000 C
ATOM     19  C3  BGC B   2      19.787   1.938 -19.3750  0.00  0.00     0.000 C
ATOM     20  C4  BGC B   2      20.473   2.676 -18.2430  0.00  0.00     0.000 C
ATOM     21  C5  BGC B   2      21.115   1.726 -17.2320  0.00  0.00     0.000 C
ATOM     22  O5  BGC B   2      20.126   0.782 -16.8010  0.00  0.00     0.000 O
ATOM     23   O  BGC B   2      18.345   0.077 -19.9160  0.00  0.00     0.000 O
ATOM     25  HD  BGC B   2      19.008   0.630 -19.8390  0.00  0.00     0.000 HD
ATOM     25   O  BGC B   2      19.035   2.846 -20.1710  0.00  0.00     0.000 O
ATOM     27  HD  BGC B   2      19.697   3.399 -20.0950  0.00  0.00     0.000 HD
ATOM     27   C  BGC B   2      21.643   2.442 -15.9950  0.00  0.00     0.000 C
ATOM     28   O  BGC B   2      20.655   3.209 -15.3250  0.00  0.00     0.000 O
ATOM     30  HD  BGC B   2      21.317   3.761 -15.2490  0.00  0.00     0.000 HD
BRANCH 17 30
ATOM     30  O4  BGC B   3      18.778  -0.965 -17.3180  0.00  0.00     0.000 O
BRANCH 30 34
ATOM     31  C1  BGC B   3      18.867  -5.030 -16.6930  0.00  0.00     0.000 C
ATOM     32  C2  BGC B   3      18.950  -4.190 -15.4190  0.00  0.00     0.000 C
ATOM     33  C3  BGC B   3      18.511  -2.772 -15.7360  0.00  0.00     0.000 C
ATOM     34  C4  BGC B   3      19.346  -2.205 -16.8840  0.00  0.00     0.000 C
ATOM     35  C5  BGC B   3      19.336  -3.159 -18.0660  0.00  0.00     0.000 C
ATOM     36  O5  BGC B   3      19.760  -4.456 -17.6350  0.00  0.00     0.000 O
ATOM     37   O  BGC B   3      18.066  -4.727 -14.4370  0.00  0.00     0.000 O
ATOM     39  HD  BGC B   3      18.414  -4.190 -13.8540  0.00  0.00     0.000 HD
ATOM     39   O  BGC B   3      18.665  -1.981 -14.5670  0.00  0.00     0.000 O
ATOM     41  HD  BGC B   3      19.013  -1.444 -13.9840  0.00  0.00     0.000 HD
ATOM     41   C  BGC B   3      20.220  -2.716 -19.2270  0.00  0.00     0.000 C
ATOM     42   O  BGC B   3      21.549  -2.557 -18.7920  0.00  0.00     0.000 O
ATOM     44  HD  BGC B   3      21.897  -2.020 -18.2080  0.00  0.00     0.000 HD
BRANCH 31 44
ATOM     44  O4  BGC B   4      19.376  -6.303 -16.3850  0.00  0.00     0.000 O
BRANCH 44 48
ATOM     45  C1  BGC B   4      19.349 -10.101 -17.9280  0.00  0.00     0.000 C
ATOM     46  C2  BGC B   4      19.366  -8.990 -18.9690  0.00  0.00     0.000 C
ATOM     47  C3  BGC B   4      19.767  -7.692 -18.3120  0.00  0.00     0.000 C
ATOM     48  C4  BGC B   4      18.862  -7.401 -17.1110  0.00  0.00     0.000 C
ATOM     49  C5  BGC B   4      18.819  -8.606 -16.1640  0.00  0.00     0.000 C
ATOM     50  O5  BGC B   4      18.423  -9.779 -16.8890  0.00  0.00     0.000 O
ATOM     51   O  BGC B   4      20.311  -9.302 -20.0090  0.00  0.00     0.000 O
ATOM     53  HD  BGC B   4      20.781  -8.725 -19.5660  0.00  0.00     0.000 HD
ATOM     53   O  BGC B   4      19.652  -6.633 -19.2730  0.00  0.00     0.000 O
ATOM     55  HD  BGC B   4      20.122  -6.055 -18.8310  0.00  0.00     0.000 HD
ATOM     55   C  BGC B   4      17.855  -8.456 -15.0010  0.00  0.00     0.000 C
ATOM     56   O  BGC B   4      16.564  -8.163 -15.5400  0.00  0.00     0.000 O
ATOM     58  HD  BGC B   4      17.034  -7.585 -15.0980  0.00  0.00     0.000 HD
BRANCH 45 58
ATOM     58  O4  BGC B   5      18.720 -11.217 -18.5580  0.00  0.00     0.000 O
BRANCH 58 62
ATOM     59  C1  BGC B   5      18.900 -15.349 -18.3560  0.00  0.00     0.000 C
ATOM     60  C2  BGC B   5      17.693 -14.717 -17.6920  0.00  0.00     0.000 C
ATOM     61  C3  BGC B   5      17.507 -13.290 -18.1720  0.00  0.00     0.000 C
ATOM     62  C4  BGC B   5      18.791 -12.508 -17.9490  0.00  0.00     0.000 C
ATOM     63  C5  BGC B   5      19.987 -13.240 -18.5770  0.00  0.00     0.000 C
ATOM     64  O5  BGC B   5      20.051 -14.558 -18.0420  0.00  0.00     0.000 O
ATOM     65   O  BGC B   5      21.422 -12.493 -16.8810  0.00  0.00     0.000 O
ATOM     67  HD  BGC B   5      21.496 -11.873 -16.2810  0.00  0.00     0.000 HD
ATOM     67   O  BGC B   5      21.422 -12.493 -16.8810  0.00  0.00     0.000 O
ATOM     69  HD  BGC B   5      21.496 -11.873 -16.2810  0.00  0.00     0.000 HD
ENDBRANCH 58 62
ENDBRANCH 45 58
ENDBRANCH 44 48
ENDBRANCH 31 44
ENDBRANCH 30 34
ENDBRANCH 17 30
ENDBRANCH 16 20
ENDBRANCH 1 16
TORSDOF 8
ENDMDL
MODEL 80
REMARK VINA RESULT:      -4.6     20.619     25.030
ROOT
ATOM      1  C1  BGC B   1       8.172   8.779  -0.6850  0.00  0.00     0.000 C
ATOM      2  C2  BGC B   1       8.831   8.640  -2.0560  0.00  0.00     0.000 C
ATOM      3  C3  BGC B   1      10.279   9.086  -1.9850  0.00  0.00     0.000 C
ATOM      4  C4  BGC B   1      10.386  10.474  -1.3650  0.00  0.00     0.000 C
ATOM      5  C5  BGC B   1       9.702  10.449  -0.0060  0.00  0.00     0.000 C
ATOM      6  O5  BGC B   1       8.319  10.116  -0.2270  0.00  0.00     0.000 O
ATOM      7   O  BGC B   1       8.779   7.265  -2.4690  0.00  0.00     0.000 O
ATOM      9  HD  BGC B   1       9.398   6.982  -3.0050  0.00  0.00     0.000 HD
ATOM      9   O  BGC B   1      10.832   9.073  -3.3040  0.00  0.00     0.000 O
ATOM     11  HD  BGC B   1      11.450   8.790  -3.8410  0.00  0.00     0.000 HD
ATOM     11   O  BGC B   1      11.745  10.821  -1.2130  0.00  0.00     0.000 O
ATOM     13  HD  BGC B   1      12.363  10.538  -1.7500  0.00  0.00     0.000 HD
ATOM     13   C  BGC B   1       9.767  11.759   0.7650  0.00  0.00     0.000 C
ATOM     14   O  BGC B   1       9.249  12.855   0.0180  0.00  0.00     0.000 O
ATOM     16  HD  BGC B   1       9.867  12.572  -0.5190  0.00  0.00     0.000 HD
ENDROOT
BRANCH 1 16
ATOM     16  O4  BGC B   2       6.771   8.611  -0.8980  0.00  0.00     0.000 O
BRANCH 16 20
ATOM     17  C1  BGC B   2       3.488   6.937   0.8220  0.00  0.00     0.000 C
ATOM     18  C2  BGC B   2       3.859   8.294   1.4040  0.00  0.00     0.000 C
ATOM     19  C3  BGC B   2       4.849   8.972   0.4590  0.00  0.00     0.000 C
ATOM     20  C4  BGC B   2       6.032   8.064   0.1910  0.00  0.00     0.000 C
ATOM     21  C5  BGC B   2       5.604   6.652  -0.2080  0.00  0.00     0.000 C
ATOM     22  O5  BGC B   2       4.696   6.153   0.7820  0.00  0.00     0.000 O
ATOM     23   O  BGC B   2       2.686   9.115   1.5250  0.00  0.00     0.000 O
ATOM     25  HD  BGC B   2       3.342   9.092   0.9610  0.00  0.00     0.000 HD
ATOM     25   O  BGC B   2       5.289  10.202   1.0220  0.00  0.00     0.000 O
ATOM     27  HD  BGC B   2       5.945  10.179   0.4570  0.00  0.00     0.000 HD
ATOM     27   C  BGC B   2       6.774   5.679  -0.2960  0.00  0.00     0.000 C
ATOM     28   O  BGC B   2       7.528   5.597   0.9020  0.00  0.00     0.000 O
ATOM     30  HD  BGC B   2       8.184   5.574   0.3380  0.00  0.00     0.000 HD
BRANCH 17 30
ATOM     30  O4  BGC B   3       2.663   6.295   1.7750  0.00  0.00     0.000 O
BRANCH 30 34
ATOM     31  C1  BGC B   3       0.027   3.137   1.8490  0.00  0.00     0.000 C
ATOM     32  C2  BGC B   3       1.449   2.787   2.2870  0.00  0.00     0.000 C
ATOM     33  C3  BGC B   3       2.197   4.071   2.5980  0.00  0.00     0.000 C
ATOM     34  C4  BGC B   3       2.154   5.012   1.3940  0.00  0.00     0.000 C
ATOM     35  C5  BGC B   3       0.723   5.203   0.9230  0.00  0.00     0.000 C
ATOM     36  O5  BGC B   3       0.130   3.924   0.6730  0.00  0.00     0.000 O
ATOM     37   O  BGC B   3       1.400   1.995   3.4710  0.00  0.00     0.000 O
ATOM     39  HD  BGC B   3       2.250   1.849   3.3890  0.00  0.00     0.000 HD
ATOM     39   O  BGC B   3       3.538   3.742   2.9280  0.00  0.00     0.000 O
ATOM     41  HD  BGC B   3       4.388   3.596   2.8460  0.00  0.00     0.000 HD
ATOM     41   C  BGC B   3       0.593   6.057  -0.3330  0.00  0.00     0.000 C
ATOM     42   O  BGC B   3       1.339   5.491  -1.3840  0.00  0.00     0.000 O
ATOM     44  HD  BGC B   3       2.188   5.345  -1.4670  0.00  0.00     0.000 HD
BRANCH 31 44
ATOM     44  O4  BGC B   4      -0.599   1.937   1.4730  0.00  0.00     0.000 O
BRANCH 44 48
ATOM     45  C1  BGC B   4      -4.324   0.244   1.2200  0.00  0.00     0.000 C
ATOM     46  C2  BGC B   4      -4.013   1.266   0.1360  0.00  0.00     0.000 C
ATOM     47  C3  BGC B   4      -2.526   1.517   0.0920  0.00  0.00     0.000 C
ATOM     48  C4  BGC B   4      -2.012   1.912   1.4810  0.00  0.00     0.000 C
ATOM     49  C5  BGC B   4      -2.453   0.885   2.5310  0.00  0.00     0.000 C
ATOM     50  O5  BGC B   4      -3.879   0.730   2.4880  0.00  0.00     0.000 O
ATOM     51   O  BGC B   4      -4.445   0.772  -1.1460  0.00  0.00     0.000 O
ATOM     53  HD  BGC B   4      -3.595   0.621  -1.2200  0.00  0.00     0.000 HD
ATOM     53   O  BGC B   4      -2.263   2.575  -0.8400  0.00  0.00     0.000 O
ATOM     55  HD  BGC B   4      -1.413   2.424  -0.9140  0.00  0.00     0.000 HD
ATOM     55   C  BGC B   4      -2.089   1.252   3.9580  0.00  0.00     0.000 C
ATOM     56   O  BGC B   4      -2.630   2.547   4.2270  0.00  0.00     0.000 O
ATOM     58  HD  BGC B   4      -1.780   2.396   4.1530  0.00  0.00     0.000 HD
BRANCH 45 58
ATOM     58  O4  BGC B   5      -5.743   0.255   1.3740  0.00  0.00     0.000 O
BRANCH 58 62
ATOM     59  C1  BGC B   5      -8.932  -2.239   2.2420  0.00  0.00     0.000 C
ATOM     60  C2  BGC B   5      -7.716  -2.405   3.1310  0.00  0.00     0.000 C
ATOM     61  C3  BGC B   5      -6.800  -1.202   3.0110  0.00  0.00     0.000 C
ATOM     62  C4  BGC B   5      -6.448  -0.976   1.5490  0.00  0.00     0.000 C
ATOM     63  C5  BGC B   5      -7.720  -0.896   0.6920  0.00  0.00     0.000 C
ATOM     64  O5  BGC B   5      -8.484  -2.081   0.8920  0.00  0.00     0.000 O
ATOM     65   O  BGC B   5      -6.641  -1.911  -1.1250  0.00  0.00     0.000 O
ATOM     67  HD  BGC B   5      -5.850  -2.060  -1.4460  0.00  0.00     0.000 HD
ATOM     67   O  BGC B   5      -6.641  -1.911  -1.1250  0.00  0.00     0.000 O
ATOM     69  HD  BGC B   5      -5.850  -2.060  -1.4460  0.00  0.00     0.000 HD
ENDBRANCH 58 62
ENDBRANCH 45 58
ENDBRANCH 44 48
ENDBRANCH 31 44
ENDBRANCH 30 34
ENDBRANCH 17 30
ENDBRANCH 16 20
ENDBRANCH 1 16
TORSDOF 8
ENDMDL
MODEL 81
REMARK VINA RESULT:      -4.6     11.315     15.289
ROOT
ATOM      1  C1  BGC B   1      22.044   3.064 -20.4330  0.00  0.00     0.000 C
ATOM      2  C2  BGC B   1      22.596   2.382 -19.1820  0.00  0.00     0.000 C
ATOM      3  C3  BGC B   1      24.070   2.699 -19.0230  0.00  0.00     0.000 C
ATOM      4  C4  BGC B   1      24.830   2.385 -20.3060  0.00  0.00     0.000 C
ATOM      5  C5  BGC B   1      24.177   3.143 -21.4520  0.00  0.00     0.000 C
ATOM      6  O5  BGC B   1      22.819   2.675 -21.5580  0.00  0.00     0.000 O
ATOM      7   O  BGC B   1      21.882   2.861 -18.0290  0.00  0.00     0.000 O
ATOM      9  HD  BGC B   1      22.297   2.857 -17.2690  0.00  0.00     0.000 HD
ATOM      9   O  BGC B   1      24.590   1.945 -17.9250  0.00  0.00     0.000 O
ATOM     11  HD  BGC B   1      25.005   1.941 -17.1640  0.00  0.00     0.000 HD
ATOM     11   O  BGC B   1      26.176   2.786 -20.1690  0.00  0.00     0.000 O
ATOM     13  HD  BGC B   1      26.591   2.783 -19.4090  0.00  0.00     0.000 HD
ATOM     13   C  BGC B   1      24.856   2.969 -22.8030  0.00  0.00     0.000 C
ATOM     14   O  BGC B   1      24.977   1.600 -23.1760  0.00  0.00     0.000 O
ATOM     16  HD  BGC B   1      25.392   1.597 -22.4160  0.00  0.00     0.000 HD
ENDROOT
BRANCH 1 16
ATOM     16  O4  BGC B   2      20.754   2.499 -20.6580  0.00  0.00     0.000 O
BRANCH 16 20
ATOM     17  C1  BGC B   2      17.032   3.543 -21.9220  0.00  0.00     0.000 C
ATOM     18  C2  BGC B   2      18.000   3.236 -23.0560  0.00  0.00     0.000 C
ATOM     19  C3  BGC B   2      19.216   2.518 -22.4750  0.00  0.00     0.000 C
ATOM     20  C4  BGC B   2      19.817   3.326 -21.3430  0.00  0.00     0.000 C
ATOM     21  C5  BGC B   2      18.768   3.773 -20.3240  0.00  0.00     0.000 C
ATOM     22  O5  BGC B   2      17.709   4.440 -21.0220  0.00  0.00     0.000 O
ATOM     23   O  BGC B   2      17.369   2.384 -24.0270  0.00  0.00     0.000 O
ATOM     25  HD  BGC B   2      17.945   2.245 -23.3950  0.00  0.00     0.000 HD
ATOM     25   O  BGC B   2      20.184   2.303 -23.4950  0.00  0.00     0.000 O
ATOM     27  HD  BGC B   2      20.760   2.163 -22.8640  0.00  0.00     0.000 HD
ATOM     27   C  BGC B   2      19.322   4.741 -19.2870  0.00  0.00     0.000 C
ATOM     28   O  BGC B   2      19.914   5.897 -19.8560  0.00  0.00     0.000 O
ATOM     30  HD  BGC B   2      20.490   5.758 -19.2240  0.00  0.00     0.000 HD
BRANCH 17 30
ATOM     30  O4  BGC B   3      15.977   4.304 -22.4790  0.00  0.00     0.000 O
BRANCH 30 34
ATOM     31  C1  BGC B   3      11.965   5.019 -21.9170  0.00  0.00     0.000 C
ATOM     32  C2  BGC B   3      12.866   5.549 -20.8020  0.00  0.00     0.000 C
ATOM     33  C3  BGC B   3      14.299   5.585 -21.3040  0.00  0.00     0.000 C
ATOM     34  C4  BGC B   3      14.717   4.204 -21.8080  0.00  0.00     0.000 C
ATOM     35  C5  BGC B   3      13.701   3.676 -22.8060  0.00  0.00     0.000 C
ATOM     36  O5  BGC B   3      12.397   3.701 -22.2160  0.00  0.00     0.000 O
ATOM     37   O  BGC B   3      12.473   6.878 -20.4640  0.00  0.00     0.000 O
ATOM     39  HD  BGC B   3      13.008   6.845 -19.7840  0.00  0.00     0.000 HD
ATOM     39   O  BGC B   3      15.138   6.005 -20.2390  0.00  0.00     0.000 O
ATOM     41  HD  BGC B   3      15.674   5.972 -19.5590  0.00  0.00     0.000 HD
ATOM     41   C  BGC B   3      13.990   2.261 -23.2940  0.00  0.00     0.000 C
ATOM     42   O  BGC B   3      14.049   1.373 -22.2030  0.00  0.00     0.000 O
ATOM     44  HD  BGC B   3      14.584   1.341 -21.5220  0.00  0.00     0.000 HD
BRANCH 31 44
ATOM     44  O4  BGC B   4      10.670   4.904 -21.3850  0.00  0.00     0.000 O
BRANCH 44 48
ATOM     45  C1  BGC B   4       6.770   5.139 -22.6250  0.00  0.00     0.000 C
ATOM     46  C2  BGC B   4       7.381   3.747 -22.7010  0.00  0.00     0.000 C
ATOM     47  C3  BGC B   4       8.641   3.704 -21.8720  0.00  0.00     0.000 C
ATOM     48  C4  BGC B   4       9.597   4.823 -22.3000  0.00  0.00     0.000 C
ATOM     49  C5  BGC B   4       8.878   6.178 -22.2940  0.00  0.00     0.000 C
ATOM     50  O5  BGC B   4       7.702   6.106 -23.1140  0.00  0.00     0.000 O
ATOM     51   O  BGC B   4       6.451   2.772 -22.1930  0.00  0.00     0.000 O
ATOM     53  HD  BGC B   4       6.977   2.830 -21.5080  0.00  0.00     0.000 HD
ATOM     53   O  BGC B   4       9.273   2.430 -22.0580  0.00  0.00     0.000 O
ATOM     55  HD  BGC B   4       9.800   2.487 -21.3730  0.00  0.00     0.000 HD
ATOM     55   C  BGC B   4       9.713   7.333 -22.8160  0.00  0.00     0.000 C
ATOM     56   O  BGC B   4      10.171   6.984 -24.1230  0.00  0.00     0.000 O
ATOM     58  HD  BGC B   4      10.698   7.041 -23.4380  0.00  0.00     0.000 HD
BRANCH 45 58
ATOM     58  O4  BGC B   5       5.749   5.174 -23.6220  0.00  0.00     0.000 O
BRANCH 58 62
ATOM     59  C1  BGC B   5       2.609   7.832 -24.0910  0.00  0.00     0.000 C
ATOM     60  C2  BGC B   5       3.360   7.938 -22.7790  0.00  0.00     0.000 C
ATOM     61  C3  BGC B   5       4.704   7.241 -22.8770  0.00  0.00     0.000 C
ATOM     62  C4  BGC B   5       4.500   5.806 -23.3370  0.00  0.00     0.000 C
ATOM     63  C5  BGC B   5       3.665   5.765 -24.6250  0.00  0.00     0.000 C
ATOM     64  O5  BGC B   5       2.435   6.445 -24.3990  0.00  0.00     0.000 O
ATOM     65   O  BGC B   5       2.654   3.748 -23.9860  0.00  0.00     0.000 O
ATOM     67  HD  BGC B   5       2.773   3.067 -23.4650  0.00  0.00     0.000 HD
ATOM     67   O  BGC B   5       2.654   3.748 -23.9860  0.00  0.00     0.000 O
ATOM     69  HD  BGC B   5       2.773   3.067 -23.4650  0.00  0.00     0.000 HD
ENDBRANCH 58 62
ENDBRANCH 45 58
ENDBRANCH 44 48
ENDBRANCH 31 44
ENDBRANCH 30 34
ENDBRANCH 17 30
ENDBRANCH 16 20
ENDBRANCH 1 16
TORSDOF 8
ENDMDL
MODEL 82
REMARK VINA RESULT:      -4.6     27.656     29.908
ROOT
ATOM      1  C1  BGC B   1      -4.824 -18.952  -7.5340  0.00  0.00     0.000 C
ATOM      2  C2  BGC B   1      -6.222 -18.343  -7.6200  0.00  0.00     0.000 C
ATOM      3  C3  BGC B   1      -6.303 -17.099  -6.7560  0.00  0.00     0.000 C
ATOM      4  C4  BGC B   1      -5.824 -17.394  -5.3410  0.00  0.00     0.000 C
ATOM      5  C5  BGC B   1      -4.420 -17.977  -5.4180  0.00  0.00     0.000 C
ATOM      6  O5  BGC B   1      -4.503 -19.200  -6.1730  0.00  0.00     0.000 O
ATOM      7   O  BGC B   1      -6.502 -17.990  -8.9850  0.00  0.00     0.000 O
ATOM      9  HD  BGC B   1      -7.056 -17.340  -9.1270  0.00  0.00     0.000 HD
ATOM      9   O  BGC B   1      -7.654 -16.628  -6.7500  0.00  0.00     0.000 O
ATOM     11  HD  BGC B   1      -8.207 -15.977  -6.8920  0.00  0.00     0.000 HD
ATOM     11   O  BGC B   1      -5.808 -16.201  -4.5880  0.00  0.00     0.000 O
ATOM     13  HD  BGC B   1      -6.362 -15.550  -4.7300  0.00  0.00     0.000 HD
ATOM     13   C  BGC B   1      -3.780 -18.281  -4.0720  0.00  0.00     0.000 C
ATOM     14   O  BGC B   1      -4.583 -19.142  -3.2710  0.00  0.00     0.000 O
ATOM     16  HD  BGC B   1      -5.137 -18.492  -3.4130  0.00  0.00     0.000 HD
ENDROOT
BRANCH 1 16
ATOM     16  O4  BGC B   2      -4.913 -20.242  -8.1360  0.00  0.00     0.000 O
BRANCH 16 20
ATOM     17  C1  BGC B   2      -2.677 -22.900 -10.2510  0.00  0.00     0.000 C
ATOM     18  C2  BGC B   2      -2.448 -22.967  -8.7480  0.00  0.00     0.000 C
ATOM     19  C3  BGC B   2      -3.575 -22.210  -8.0510  0.00  0.00     0.000 C
ATOM     20  C4  BGC B   2      -3.689 -20.803  -8.6030  0.00  0.00     0.000 C
ATOM     21  C5  BGC B   2      -3.726 -20.778 -10.1310  0.00  0.00     0.000 C
ATOM     22  O5  BGC B   2      -2.600 -21.513 -10.6270  0.00  0.00     0.000 O
ATOM     23   O  BGC B   2      -2.457 -24.335  -8.3070  0.00  0.00     0.000 O
ATOM     25  HD  BGC B   2      -3.035 -23.691  -8.2680  0.00  0.00     0.000 HD
ATOM     25   O  BGC B   2      -3.339 -22.171  -6.6490  0.00  0.00     0.000 O
ATOM     27  HD  BGC B   2      -3.917 -21.528  -6.6090  0.00  0.00     0.000 HD
ATOM     27   C  BGC B   2      -3.649 -19.368 -10.7040  0.00  0.00     0.000 C
ATOM     28   O  BGC B   2      -2.506 -18.647 -10.2720  0.00  0.00     0.000 O
ATOM     30  HD  BGC B   2      -3.084 -18.004 -10.2320  0.00  0.00     0.000 HD
BRANCH 17 30
ATOM     30  O4  BGC B   3      -1.558 -23.512 -10.8640  0.00  0.00     0.000 O
BRANCH 30 34
ATOM     31  C1  BGC B   3      -0.597 -25.657 -14.2400  0.00  0.00     0.000 C
ATOM     32  C2  BGC B   3      -1.309 -24.332 -14.5110  0.00  0.00     0.000 C
ATOM     33  C3  BGC B   3      -1.246 -23.476 -13.2590  0.00  0.00     0.000 C
ATOM     34  C4  BGC B   3      -1.827 -24.237 -12.0680  0.00  0.00     0.000 C
ATOM     35  C5  BGC B   3      -1.174 -25.602 -11.9440  0.00  0.00     0.000 C
ATOM     36  O5  BGC B   3      -1.294 -26.302 -13.1870  0.00  0.00     0.000 O
ATOM     37   O  BGC B   3      -0.642 -23.641 -15.5650  0.00  0.00     0.000 O
ATOM     39  HD  BGC B   3      -1.295 -23.072 -15.5830  0.00  0.00     0.000 HD
ATOM     39   O  BGC B   3      -1.976 -22.281 -13.4950  0.00  0.00     0.000 O
ATOM     41  HD  BGC B   3      -2.629 -21.712 -13.5120  0.00  0.00     0.000 HD
ATOM     41   C  BGC B   3      -1.758 -26.470 -10.8350  0.00  0.00     0.000 C
ATOM     42   O  BGC B   3      -3.140 -26.651 -11.0370  0.00  0.00     0.000 O
ATOM     44  HD  BGC B   3      -3.793 -26.083 -11.0550  0.00  0.00     0.000 HD
BRANCH 31 44
ATOM     44  O4  BGC B   4      -0.764 -26.460 -15.3800  0.00  0.00     0.000 O
BRANCH 44 48
ATOM     45  C1  BGC B   4       1.192 -29.302 -17.5950  0.00  0.00     0.000 C
ATOM     46  C2  BGC B   4       0.882 -29.711 -16.1620  0.00  0.00     0.000 C
ATOM     47  C3  BGC B   4      -0.156 -28.780 -15.5850  0.00  0.00     0.000 C
ATOM     48  C4  BGC B   4       0.299 -27.324 -15.7280  0.00  0.00     0.000 C
ATOM     49  C5  BGC B   4       0.689 -27.021 -17.1800  0.00  0.00     0.000 C
ATOM     50  O5  BGC B   4       1.681 -27.960 -17.6210  0.00  0.00     0.000 O
ATOM     51   O  BGC B   4       0.372 -31.058 -16.1330  0.00  0.00     0.000 O
ATOM     53  HD  BGC B   4      -0.373 -30.628 -16.0390  0.00  0.00     0.000 HD
ATOM     53   O  BGC B   4      -0.341 -29.096 -14.1980  0.00  0.00     0.000 O
ATOM     55  HD  BGC B   4      -1.086 -28.665 -14.1040  0.00  0.00     0.000 HD
ATOM     55   C  BGC B   4       1.264 -25.633 -17.3980  0.00  0.00     0.000 C
ATOM     56   O  BGC B   4       2.372 -25.475 -16.5100  0.00  0.00     0.000 O
ATOM     58  HD  BGC B   4       1.627 -25.045 -16.4160  0.00  0.00     0.000 HD
BRANCH 45 58
ATOM     58  O4  BGC B   5       2.346 -30.051 -17.9750  0.00  0.00     0.000 O
BRANCH 58 62
ATOM     59  C1  BGC B   5       3.812 -32.381 -21.0680  0.00  0.00     0.000 C
ATOM     60  C2  BGC B   5       3.909 -30.884 -21.2800  0.00  0.00     0.000 C
ATOM     61  C3  BGC B   5       3.745 -30.148 -19.9630  0.00  0.00     0.000 C
ATOM     62  C4  BGC B   5       2.446 -30.577 -19.3000  0.00  0.00     0.000 C
ATOM     63  C5  BGC B   5       2.375 -32.107 -19.1870  0.00  0.00     0.000 C
ATOM     64  O5  BGC B   5       2.538 -32.672 -20.4840  0.00  0.00     0.000 O
ATOM     65   O  BGC B   5       0.051 -32.091 -19.4980  0.00  0.00     0.000 O
ATOM     67  HD  BGC B   5      -0.636 -31.569 -19.4320  0.00  0.00     0.000 HD
ATOM     67   O  BGC B   5       0.051 -32.091 -19.4980  0.00  0.00     0.000 O
ATOM     69  HD  BGC B   5      -0.636 -31.569 -19.4320  0.00  0.00     0.000 HD
ENDBRANCH 58 62
ENDBRANCH 45 58
ENDBRANCH 44 48
ENDBRANCH 31 44
ENDBRANCH 30 34
ENDBRANCH 17 30
ENDBRANCH 16 20
ENDBRANCH 1 16
TORSDOF 8
ENDMDL
MODEL 83
REMARK VINA RESULT:      -4.6      7.500     18.933
ROOT
ATOM      1  C1  BGC B   1      19.968 -17.086 -29.5740  0.00  0.00     0.000 C
ATOM      2  C2  BGC B   1      18.978 -17.164 -30.7350  0.00  0.00     0.000 C
ATOM      3  C3  BGC B   1      19.388 -18.263 -31.6960  0.00  0.00     0.000 C
ATOM      4  C4  BGC B   1      20.844 -18.099 -32.1130  0.00  0.00     0.000 C
ATOM      5  C5  BGC B   1      21.703 -18.054 -30.8580  0.00  0.00     0.000 C
ATOM      6  O5  BGC B   1      21.281 -16.912 -30.0890  0.00  0.00     0.000 O
ATOM      7   O  BGC B   1      17.667 -17.450 -30.2200  0.00  0.00     0.000 O
ATOM      9  HD  BGC B   1      17.114 -17.868 -30.7380  0.00  0.00     0.000 HD
ATOM      9   O  BGC B   1      18.524 -18.226 -32.8360  0.00  0.00     0.000 O
ATOM     11  HD  BGC B   1      17.970 -18.644 -33.3550  0.00  0.00     0.000 HD
ATOM     11   O  BGC B   1      21.231 -19.189 -32.9210  0.00  0.00     0.000 O
ATOM     13  HD  BGC B   1      20.677 -19.607 -33.4400  0.00  0.00     0.000 HD
ATOM     13   C  BGC B   1      23.199 -17.941 -31.1110  0.00  0.00     0.000 C
ATOM     14   O  BGC B   1      23.528 -16.820 -31.9250  0.00  0.00     0.000 O
ATOM     16  HD  BGC B   1      22.975 -17.238 -32.4430  0.00  0.00     0.000 HD
ENDROOT
BRANCH 1 16
ATOM     16  O4  BGC B   2      19.677 -15.873 -28.8820  0.00  0.00     0.000 O
BRANCH 16 20
ATOM     17  C1  BGC B   2      19.692 -14.222 -25.1660  0.00  0.00     0.000 C
ATOM     18  C2  BGC B   2      21.061 -14.700 -25.6290  0.00  0.00     0.000 C
ATOM     19  C3  BGC B   2      21.004 -14.952 -27.1340  0.00  0.00     0.000 C
ATOM     20  C4  BGC B   2      19.867 -15.895 -27.4700  0.00  0.00     0.000 C
ATOM     21  C5  BGC B   2      18.547 -15.472 -26.8230  0.00  0.00     0.000 C
ATOM     22  O5  BGC B   2      18.765 -15.294 -25.4180  0.00  0.00     0.000 O
ATOM     23   O  BGC B   2      22.053 -13.696 -25.3570  0.00  0.00     0.000 O
ATOM     25  HD  BGC B   2      21.638 -13.946 -26.0750  0.00  0.00     0.000 HD
ATOM     25   O  BGC B   2      22.241 -15.492 -27.5820  0.00  0.00     0.000 O
ATOM     27  HD  BGC B   2      21.826 -15.742 -28.2990  0.00  0.00     0.000 HD
ATOM     27   C  BGC B   2      17.443 -16.507 -26.9950  0.00  0.00     0.000 C
ATOM     28   O  BGC B   2      17.793 -17.790 -26.5000  0.00  0.00     0.000 O
ATOM     30  HD  BGC B   2      17.378 -18.040 -27.2180  0.00  0.00     0.000 HD
BRANCH 17 30
ATOM     30  O4  BGC B   3      19.753 -14.109 -23.7570  0.00  0.00     0.000 O
BRANCH 30 34
ATOM     31  C1  BGC B   3      18.468 -11.638 -20.7290  0.00  0.00     0.000 C
ATOM     32  C2  BGC B   3      17.346 -12.305 -21.5220  0.00  0.00     0.000 C
ATOM     33  C3  BGC B   3      17.926 -13.464 -22.3140  0.00  0.00     0.000 C
ATOM     34  C4  BGC B   3      19.077 -12.980 -23.1940  0.00  0.00     0.000 C
ATOM     35  C5  BGC B   3      20.084 -12.202 -22.3660  0.00  0.00     0.000 C
ATOM     36  O5  BGC B   3      19.413 -11.148 -21.6670  0.00  0.00     0.000 O
ATOM     37   O  BGC B   3      16.367 -12.819 -20.6210  0.00  0.00     0.000 O
ATOM     39  HD  BGC B   3      15.852 -12.980 -21.2990  0.00  0.00     0.000 HD
ATOM     39   O  BGC B   3      16.892 -14.029 -23.1060  0.00  0.00     0.000 O
ATOM     41  HD  BGC B   3      16.377 -14.190 -23.7840  0.00  0.00     0.000 HD
ATOM     41   C  BGC B   3      21.224 -11.600 -23.1800  0.00  0.00     0.000 C
ATOM     42   O  BGC B   3      20.711 -10.748 -24.1770  0.00  0.00     0.000 O
ATOM     44  HD  BGC B   3      20.196 -10.909 -24.8550  0.00  0.00     0.000 HD
BRANCH 31 44
ATOM     44  O4  BGC B   4      17.916 -10.514 -20.0930  0.00  0.00     0.000 O
BRANCH 44 48
ATOM     45  C1  BGC B   4      19.069  -7.543 -17.5150  0.00  0.00     0.000 C
ATOM     46  C2  BGC B   4      19.204  -7.194 -18.9900  0.00  0.00     0.000 C
ATOM     47  C3  BGC B   4      18.403  -8.173 -19.8130  0.00  0.00     0.000 C
ATOM     48  C4  BGC B   4      18.812  -9.610 -19.4770  0.00  0.00     0.000 C
ATOM     49  C5  BGC B   4      18.746  -9.850 -17.9640  0.00  0.00     0.000 C
ATOM     50  O5  BGC B   4      19.544  -8.870 -17.2830  0.00  0.00     0.000 O
ATOM     51   O  BGC B   4      18.710  -5.863 -19.2300  0.00  0.00     0.000 O
ATOM     53  HD  BGC B   4      18.034  -6.316 -19.5270  0.00  0.00     0.000 HD
ATOM     53   O  BGC B   4      18.644  -7.913 -21.2040  0.00  0.00     0.000 O
ATOM     55  HD  BGC B   4      17.968  -8.366 -21.5010  0.00  0.00     0.000 HD
ATOM     55   C  BGC B   4      19.246 -11.214 -17.5220  0.00  0.00     0.000 C
ATOM     56   O  BGC B   4      20.573 -11.375 -18.0250  0.00  0.00     0.000 O
ATOM     58  HD  BGC B   4      19.897 -11.828 -18.3220  0.00  0.00     0.000 HD
BRANCH 45 58
ATOM     58  O4  BGC B   5      20.043  -6.751 -16.8350  0.00  0.00     0.000 O
BRANCH 58 62
ATOM     59  C1  BGC B   5      20.784  -4.865 -13.2240  0.00  0.00     0.000 C
ATOM     60  C2  BGC B   5      20.675  -6.375 -13.1580  0.00  0.00     0.000 C
ATOM     61  C3  BGC B   5      20.823  -6.980 -14.5410  0.00  0.00     0.000 C
ATOM     62  C4  BGC B   5      19.812  -6.347 -15.4840  0.00  0.00     0.000 C
ATOM     63  C5  BGC B   5      19.921  -4.815 -15.4440  0.00  0.00     0.000 C
ATOM     64  O5  BGC B   5      19.761  -4.378 -14.0980  0.00  0.00     0.000 O
ATOM     65   O  BGC B   5      17.613  -4.575 -15.7840  0.00  0.00     0.000 O
ATOM     67  HD  BGC B   5      16.927  -5.003 -16.0920  0.00  0.00     0.000 HD
ATOM     67   O  BGC B   5      17.613  -4.575 -15.7840  0.00  0.00     0.000 O
ATOM     69  HD  BGC B   5      16.927  -5.003 -16.0920  0.00  0.00     0.000 HD
ENDBRANCH 58 62
ENDBRANCH 45 58
ENDBRANCH 44 48
ENDBRANCH 31 44
ENDBRANCH 30 34
ENDBRANCH 17 30
ENDBRANCH 16 20
ENDBRANCH 1 16
TORSDOF 8
ENDMDL
MODEL 84
REMARK VINA RESULT:      -4.6     13.981     20.607
ROOT
ATOM      1  C1  BGC B   1      12.358  -3.824 -29.7890  0.00  0.00     0.000 C
ATOM      2  C2  BGC B   1      13.855  -4.122 -29.7490  0.00  0.00     0.000 C
ATOM      3  C3  BGC B   1      14.258  -4.931 -30.9670  0.00  0.00     0.000 C
ATOM      4  C4  BGC B   1      13.370  -6.160 -31.1160  0.00  0.00     0.000 C
ATOM      5  C5  BGC B   1      11.919  -5.702 -31.1570  0.00  0.00     0.000 C
ATOM      6  O5  BGC B   1      11.640  -5.044 -29.9070  0.00  0.00     0.000 O
ATOM      7   O  BGC B   1      14.584  -2.884 -29.7410  0.00  0.00     0.000 O
ATOM      9  HD  BGC B   1      15.383  -2.885 -30.0770  0.00  0.00     0.000 HD
ATOM      9   O  BGC B   1      15.632  -5.309 -30.8370  0.00  0.00     0.000 O
ATOM     11  HD  BGC B   1      16.431  -5.310 -31.1720  0.00  0.00     0.000 HD
ATOM     11   O  BGC B   1      13.694  -6.837 -32.3110  0.00  0.00     0.000 O
ATOM     13  HD  BGC B   1      14.492  -6.837 -32.6460  0.00  0.00     0.000 HD
ATOM     13   C  BGC B   1      10.903  -6.818 -31.3540  0.00  0.00     0.000 C
ATOM     14   O  BGC B   1      11.027  -7.844 -30.3730  0.00  0.00     0.000 O
ATOM     16  HD  BGC B   1      11.825  -7.845 -30.7080  0.00  0.00     0.000 HD
ENDROOT
BRANCH 1 16
ATOM     16  O4  BGC B   2      12.018  -3.316 -28.5010  0.00  0.00     0.000 O
BRANCH 16 20
ATOM     17  C1  BGC B   2       9.423  -0.799 -26.6390  0.00  0.00     0.000 C
ATOM     18  C2  BGC B   2       8.771  -2.068 -27.1660  0.00  0.00     0.000 C
ATOM     19  C3  BGC B   2       9.870  -3.074 -27.5020  0.00  0.00     0.000 C
ATOM     20  C4  BGC B   2      10.883  -2.456 -28.4440  0.00  0.00     0.000 C
ATOM     21  C5  BGC B   2      11.368  -1.088 -27.9620  0.00  0.00     0.000 C
ATOM     22  O5  BGC B   2      10.225  -0.262 -27.7080  0.00  0.00     0.000 O
ATOM     23   O  BGC B   2       7.908  -2.633 -26.1650  0.00  0.00     0.000 O
ATOM     25  HD  BGC B   2       8.702  -2.831 -26.4490  0.00  0.00     0.000 HD
ATOM     25   O  BGC B   2       9.298  -4.238 -28.0880  0.00  0.00     0.000 O
ATOM     27  HD  BGC B   2      10.092  -4.436 -28.3720  0.00  0.00     0.000 HD
ATOM     27   C  BGC B   2      12.239  -0.372 -28.9870  0.00  0.00     0.000 C
ATOM     28   O  BGC B   2      11.605  -0.204 -30.2450  0.00  0.00     0.000 O
ATOM     30  HD  BGC B   2      12.399  -0.403 -30.5290  0.00  0.00     0.000 HD
BRANCH 17 30
ATOM     30  O4  BGC B   3       8.386   0.144 -26.4460  0.00  0.00     0.000 O
BRANCH 30 34
ATOM     31  C1  BGC B   3       7.866   3.701 -24.4450  0.00  0.00     0.000 C
ATOM     32  C2  BGC B   3       8.252   3.851 -25.9160  0.00  0.00     0.000 C
ATOM     33  C3  BGC B   3       8.023   2.527 -26.6210  0.00  0.00     0.000 C
ATOM     34  C4  BGC B   3       8.787   1.410 -25.9110  0.00  0.00     0.000 C
ATOM     35  C5  BGC B   3       8.464   1.410 -24.4270  0.00  0.00     0.000 C
ATOM     36  O5  BGC B   3       8.714   2.711 -23.8850  0.00  0.00     0.000 O
ATOM     37   O  BGC B   3       7.424   4.838 -26.5270  0.00  0.00     0.000 O
ATOM     39  HD  BGC B   3       7.930   4.804 -27.2290  0.00  0.00     0.000 HD
ATOM     39   O  BGC B   3       8.457   2.653 -27.9670  0.00  0.00     0.000 O
ATOM     41  HD  BGC B   3       8.963   2.619 -28.6690  0.00  0.00     0.000 HD
ATOM     41   C  BGC B   3       9.253   0.384 -23.6210  0.00  0.00     0.000 C
ATOM     42   O  BGC B   3      10.635   0.603 -23.7780  0.00  0.00     0.000 O
ATOM     44  HD  BGC B   3      11.141   0.569 -24.4800  0.00  0.00     0.000 HD
BRANCH 31 44
ATOM     44  O4  BGC B   4       8.187   4.910 -23.8050  0.00  0.00     0.000 O
BRANCH 44 48
ATOM     45  C1  BGC B   4       6.867   7.333 -20.7730  0.00  0.00     0.000 C
ATOM     46  C2  BGC B   4       6.980   5.860 -20.4090  0.00  0.00     0.000 C
ATOM     47  C3  BGC B   4       7.826   5.150 -21.4370  0.00  0.00     0.000 C
ATOM     48  C4  BGC B   4       7.274   5.399 -22.8440  0.00  0.00     0.000 C
ATOM     49  C5  BGC B   4       7.095   6.902 -23.0950  0.00  0.00     0.000 C
ATOM     50  O5  BGC B   4       6.273   7.470 -22.0650  0.00  0.00     0.000 O
ATOM     51   O  BGC B   4       7.594   5.717 -19.1150  0.00  0.00     0.000 O
ATOM     53  HD  BGC B   4       8.275   5.517 -19.6120  0.00  0.00     0.000 HD
ATOM     53   O  BGC B   4       7.815   3.744 -21.1550  0.00  0.00     0.000 O
ATOM     55  HD  BGC B   4       8.495   3.544 -21.6520  0.00  0.00     0.000 HD
ATOM     55   C  BGC B   4       6.442   7.243 -24.4230  0.00  0.00     0.000 C
ATOM     56   O  BGC B   4       5.197   6.545 -24.4880  0.00  0.00     0.000 O
ATOM     58  HD  BGC B   4       5.877   6.345 -24.9860  0.00  0.00     0.000 HD
BRANCH 45 58
ATOM     58  O4  BGC B   5       5.859   7.872 -19.9190  0.00  0.00     0.000 O
BRANCH 58 62
ATOM     59  C1  BGC B   5       4.029  11.435 -18.8690  0.00  0.00     0.000 C
ATOM     60  C2  BGC B   5       3.740  10.945 -20.2730  0.00  0.00     0.000 C
ATOM     61  C3  BGC B   5       4.097   9.477 -20.4090  0.00  0.00     0.000 C
ATOM     62  C4  BGC B   5       5.542   9.264 -19.9850  0.00  0.00     0.000 C
ATOM     63  C5  BGC B   5       5.788   9.853 -18.5890  0.00  0.00     0.000 C
ATOM     64  O5  BGC B   5       5.419  11.228 -18.5980  0.00  0.00     0.000 O
ATOM     65   O  BGC B   5       7.984  10.449 -19.1540  0.00  0.00     0.000 O
ATOM     67  HD  BGC B   5       8.614  10.257 -19.7160  0.00  0.00     0.000 HD
ATOM     67   O  BGC B   5       7.984  10.449 -19.1540  0.00  0.00     0.000 O
ATOM     69  HD  BGC B   5       8.614  10.257 -19.7160  0.00  0.00     0.000 HD
ENDBRANCH 58 62
ENDBRANCH 45 58
ENDBRANCH 44 48
ENDBRANCH 31 44
ENDBRANCH 30 34
ENDBRANCH 17 30
ENDBRANCH 16 20
ENDBRANCH 1 16
TORSDOF 8
ENDMDL
MODEL 85
REMARK VINA RESULT:      -4.5      5.647      7.817
ROOT
ATOM      1  C1  BGC B   1      19.997   1.051 -20.7840  0.00  0.00     0.000 C
ATOM      2  C2  BGC B   1      20.126   1.463 -22.2490  0.00  0.00     0.000 C
ATOM      3  C3  BGC B   1      20.446   2.942 -22.3480  0.00  0.00     0.000 C
ATOM      4  C4  BGC B   1      19.449   3.765 -21.5410  0.00  0.00     0.000 C
ATOM      5  C5  BGC B   1      19.445   3.249 -20.1100  0.00  0.00     0.000 C
ATOM      6  O5  BGC B   1      19.027   1.872 -20.1500  0.00  0.00     0.000 O
ATOM      7   O  BGC B   1      21.184   0.708 -22.8620  0.00  0.00     0.000 O
ATOM      9  HD  BGC B   1      21.600   1.068 -23.5310  0.00  0.00     0.000 HD
ATOM      9   O  BGC B   1      20.429   3.329 -23.7250  0.00  0.00     0.000 O
ATOM     11  HD  BGC B   1      20.845   3.689 -24.3940  0.00  0.00     0.000 HD
ATOM     11   O  BGC B   1      19.829   5.123 -21.5620  0.00  0.00     0.000 O
ATOM     13  HD  BGC B   1      20.245   5.483 -22.2310  0.00  0.00     0.000 HD
ATOM     13   C  BGC B   1      18.527   4.006 -19.1600  0.00  0.00     0.000 C
ATOM     14   O  BGC B   1      17.183   4.053 -19.6280  0.00  0.00     0.000 O
ATOM     16  HD  BGC B   1      17.599   4.413 -20.2970  0.00  0.00     0.000 HD
ENDROOT
BRANCH 1 16
ATOM     16  O4  BGC B   2      19.431  -0.259 -20.7880  0.00  0.00     0.000 O
BRANCH 16 20
ATOM     17  C1  BGC B   2      19.428  -3.747 -18.6970  0.00  0.00     0.000 C
ATOM     18  C2  BGC B   2      19.070  -2.530 -17.8570  0.00  0.00     0.000 C
ATOM     19  C3  BGC B   2      18.748  -1.370 -18.7960  0.00  0.00     0.000 C
ATOM     20  C4  BGC B   2      19.888  -1.143 -19.7670  0.00  0.00     0.000 C
ATOM     21  C5  BGC B   2      20.339  -2.435 -20.4490  0.00  0.00     0.000 C
ATOM     22  O5  BGC B   2      20.617  -3.411 -19.4380  0.00  0.00     0.000 O
ATOM     23   O  BGC B   2      17.918  -2.812 -17.0450  0.00  0.00     0.000 O
ATOM     25  HD  BGC B   2      18.037  -2.366 -17.7780  0.00  0.00     0.000 HD
ATOM     25   O  BGC B   2      18.502  -0.189 -18.0400  0.00  0.00     0.000 O
ATOM     27  HD  BGC B   2      18.621   0.256 -18.7730  0.00  0.00     0.000 HD
ATOM     27   C  BGC B   2      21.602  -2.258 -21.2820  0.00  0.00     0.000 C
ATOM     28   O  BGC B   2      22.695  -1.737 -20.5430  0.00  0.00     0.000 O
ATOM     30  HD  BGC B   2      22.813  -1.291 -21.2760  0.00  0.00     0.000 HD
BRANCH 17 30
ATOM     30  O4  BGC B   3      19.828  -4.763 -17.7970  0.00  0.00     0.000 O
BRANCH 30 34
ATOM     31  C1  BGC B   3      21.207  -8.637 -17.8910  0.00  0.00     0.000 C
ATOM     32  C2  BGC B   3      22.281  -7.576 -18.1280  0.00  0.00     0.000 C
ATOM     33  C3  BGC B   3      21.746  -6.227 -17.6790  0.00  0.00     0.000 C
ATOM     34  C4  BGC B   3      20.429  -5.918 -18.3900  0.00  0.00     0.000 C
ATOM     35  C5  BGC B   3      19.459  -7.077 -18.2340  0.00  0.00     0.000 C
ATOM     36  O5  BGC B   3      20.084  -8.284 -18.6820  0.00  0.00     0.000 O
ATOM     37   O  BGC B   3      23.435  -7.885 -17.3500  0.00  0.00     0.000 O
ATOM     39  HD  BGC B   3      23.865  -7.261 -17.7690  0.00  0.00     0.000 HD
ATOM     39   O  BGC B   3      22.719  -5.237 -17.9740  0.00  0.00     0.000 O
ATOM     41  HD  BGC B   3      23.148  -4.612 -18.3930  0.00  0.00     0.000 HD
ATOM     41   C  BGC B   3      18.148  -6.894 -18.9900  0.00  0.00     0.000 C
ATOM     42   O  BGC B   3      18.402  -6.704 -20.3620  0.00  0.00     0.000 O
ATOM     44  HD  BGC B   3      18.831  -6.080 -20.7810  0.00  0.00     0.000 HD
BRANCH 31 44
ATOM     44  O4  BGC B   4      21.697  -9.847 -18.4100  0.00  0.00     0.000 O
BRANCH 44 48
ATOM     45  C1  BGC B   4      21.636 -13.879 -17.6750  0.00  0.00     0.000 C
ATOM     46  C2  BGC B   4      20.329 -13.308 -18.2050  0.00  0.00     0.000 C
ATOM     47  C3  BGC B   4      20.580 -11.943 -18.7980  0.00  0.00     0.000 C
ATOM     48  C4  BGC B   4      21.282 -11.041 -17.7790  0.00  0.00     0.000 C
ATOM     49  C5  BGC B   4      22.532 -11.731 -17.2190  0.00  0.00     0.000 C
ATOM     50  O5  BGC B   4      22.177 -13.012 -16.6780  0.00  0.00     0.000 O
ATOM     51   O  BGC B   4      19.789 -14.171 -19.2230  0.00  0.00     0.000 O
ATOM     53  HD  BGC B   4      20.120 -13.552 -19.7300  0.00  0.00     0.000 HD
ATOM     53   O  BGC B   4      19.322 -11.364 -19.1730  0.00  0.00     0.000 O
ATOM     55  HD  BGC B   4      19.653 -10.744 -19.6800  0.00  0.00     0.000 HD
ATOM     55   C  BGC B   4      23.232 -10.960 -16.1140  0.00  0.00     0.000 C
ATOM     56   O  BGC B   4      22.271 -10.698 -15.0900  0.00  0.00     0.000 O
ATOM     58  HD  BGC B   4      22.602 -10.078 -15.5970  0.00  0.00     0.000 HD
BRANCH 45 58
ATOM     58  O4  BGC B   5      21.279 -15.031 -16.9120  0.00  0.00     0.000 O
BRANCH 58 62
ATOM     59  C1  BGC B   5      22.291 -19.013 -16.3960  0.00  0.00     0.000 C
ATOM     60  C2  BGC B   5      23.202 -18.016 -15.7070  0.00  0.00     0.000 C
ATOM     61  C3  BGC B   5      22.528 -16.661 -15.6060  0.00  0.00     0.000 C
ATOM     62  C4  BGC B   5      22.082 -16.211 -16.9880  0.00  0.00     0.000 C
ATOM     63  C5  BGC B   5      21.231 -17.297 -17.6620  0.00  0.00     0.000 C
ATOM     64  O5  BGC B   5      21.976 -18.510 -17.6980  0.00  0.00     0.000 O
ATOM     65   O  BGC B   5      22.067 -16.734 -19.7790  0.00  0.00     0.000 O
ATOM     67  HD  BGC B   5      22.447 -16.083 -20.2060  0.00  0.00     0.000 HD
ATOM     67   O  BGC B   5      22.067 -16.734 -19.7790  0.00  0.00     0.000 O
ATOM     69  HD  BGC B   5      22.447 -16.083 -20.2060  0.00  0.00     0.000 HD
ENDBRANCH 58 62
ENDBRANCH 45 58
ENDBRANCH 44 48
ENDBRANCH 31 44
ENDBRANCH 30 34
ENDBRANCH 17 30
ENDBRANCH 16 20
ENDBRANCH 1 16
TORSDOF 8
ENDMDL
MODEL 86
REMARK VINA RESULT:      -4.5     18.720     22.772
ROOT
ATOM      1  C1  BGC B   1       9.006  11.855  -7.8610  0.00  0.00     0.000 C
ATOM      2  C2  BGC B   1       8.588  12.097  -9.3110  0.00  0.00     0.000 C
ATOM      3  C3  BGC B   1       9.635  12.932 -10.0230  0.00  0.00     0.000 C
ATOM      4  C4  BGC B   1       9.947  14.196  -9.2310  0.00  0.00     0.000 C
ATOM      5  C5  BGC B   1      10.360  13.793  -7.8230  0.00  0.00     0.000 C
ATOM      6  O5  BGC B   1       9.246  13.104  -7.2280  0.00  0.00     0.000 O
ATOM      7   O  BGC B   1       8.453  10.834  -9.9820  0.00  0.00     0.000 O
ATOM      9  HD  BGC B   1       8.583  10.817 -10.8380  0.00  0.00     0.000 HD
ATOM      9   O  BGC B   1       9.157  13.255 -11.3320  0.00  0.00     0.000 O
ATOM     11  HD  BGC B   1       9.287  13.238 -12.1880  0.00  0.00     0.000 HD
ATOM     11   O  BGC B   1      10.997  14.900  -9.8580  0.00  0.00     0.000 O
ATOM     13  HD  BGC B   1      11.126  14.884 -10.7140  0.00  0.00     0.000 HD
ATOM     13   C  BGC B   1      10.753  14.951  -6.9170  0.00  0.00     0.000 C
ATOM     14   O  BGC B   1       9.730  15.938  -6.8240  0.00  0.00     0.000 O
ATOM     16  HD  BGC B   1       9.860  15.921  -7.6800  0.00  0.00     0.000 HD
ENDROOT
BRANCH 1 16
ATOM     16  O4  BGC B   2       7.862  11.317  -7.2020  0.00  0.00     0.000 O
BRANCH 16 20
ATOM     17  C1  BGC B   2       6.792   9.624  -3.6620  0.00  0.00     0.000 C
ATOM     18  C2  BGC B   2       6.733  11.144  -3.6550  0.00  0.00     0.000 C
ATOM     19  C3  BGC B   2       6.792  11.638  -5.0990  0.00  0.00     0.000 C
ATOM     20  C4  BGC B   2       8.003  11.065  -5.8060  0.00  0.00     0.000 C
ATOM     21  C5  BGC B   2       8.122   9.551  -5.6230  0.00  0.00     0.000 C
ATOM     22  O5  BGC B   2       8.066   9.255  -4.2220  0.00  0.00     0.000 O
ATOM     23   O  BGC B   2       5.505  11.588  -3.0560  0.00  0.00     0.000 O
ATOM     25  HD  BGC B   2       5.781  11.526  -3.8750  0.00  0.00     0.000 HD
ATOM     25   O  BGC B   2       6.836  13.060  -5.1220  0.00  0.00     0.000 O
ATOM     27  HD  BGC B   2       7.112  12.998  -5.9410  0.00  0.00     0.000 HD
ATOM     27   C  BGC B   2       9.430   8.988  -6.1650  0.00  0.00     0.000 C
ATOM     28   O  BGC B   2      10.580   9.598  -5.6040  0.00  0.00     0.000 O
ATOM     30  HD  BGC B   2      10.857   9.536  -6.4220  0.00  0.00     0.000 HD
BRANCH 17 30
ATOM     30  O4  BGC B   3       6.849   9.210  -2.3100  0.00  0.00     0.000 O
BRANCH 30 34
ATOM     31  C1  BGC B   3       5.450   6.128   0.0280  0.00  0.00     0.000 C
ATOM     32  C2  BGC B   3       6.792   5.852  -0.6480  0.00  0.00     0.000 C
ATOM     33  C3  BGC B   3       7.377   7.167  -1.1340  0.00  0.00     0.000 C
ATOM     34  C4  BGC B   3       6.381   7.884  -2.0450  0.00  0.00     0.000 C
ATOM     35  C5  BGC B   3       5.028   7.996  -1.3650  0.00  0.00     0.000 C
ATOM     36  O5  BGC B   3       4.594   6.697  -0.9500  0.00  0.00     0.000 O
ATOM     37   O  BGC B   3       7.693   5.280   0.2980  0.00  0.00     0.000 O
ATOM     39  HD  BGC B   3       8.244   5.118  -0.3500  0.00  0.00     0.000 HD
ATOM     39   O  BGC B   3       8.585   6.893  -1.8280  0.00  0.00     0.000 O
ATOM     41  HD  BGC B   3       9.136   6.731  -2.4760  0.00  0.00     0.000 HD
ATOM     41   C  BGC B   3       3.945   8.619  -2.2390  0.00  0.00     0.000 C
ATOM     42   O  BGC B   3       3.790   7.873  -3.4230  0.00  0.00     0.000 O
ATOM     44  HD  BGC B   3       4.342   7.711  -4.0710  0.00  0.00     0.000 HD
BRANCH 31 44
ATOM     44  O4  BGC B   4       4.894   4.885   0.3710  0.00  0.00     0.000 O
BRANCH 44 48
ATOM     45  C1  BGC B   4       2.275   3.278   3.0840  0.00  0.00     0.000 C
ATOM     46  C2  BGC B   4       1.630   3.801   1.8080  0.00  0.00     0.000 C
ATOM     47  C3  BGC B   4       2.690   3.994   0.7520  0.00  0.00     0.000 C
ATOM     48  C4  BGC B   4       3.817   4.884   1.2860  0.00  0.00     0.000 C
ATOM     49  C5  BGC B   4       4.342   4.346   2.6220  0.00  0.00     0.000 C
ATOM     50  O5  BGC B   4       3.255   4.206   3.5490  0.00  0.00     0.000 O
ATOM     51   O  BGC B   4       0.653   2.859   1.3270  0.00  0.00     0.000 O
ATOM     53  HD  BGC B   4       1.298   2.679   0.7790  0.00  0.00     0.000 HD
ATOM     53   O  BGC B   4       2.091   4.609  -0.3970  0.00  0.00     0.000 O
ATOM     55  HD  BGC B   4       2.736   4.429  -0.9460  0.00  0.00     0.000 HD
ATOM     55   C  BGC B   4       5.384   5.227   3.2880  0.00  0.00     0.000 C
ATOM     56   O  BGC B   4       4.823   6.533   3.4290  0.00  0.00     0.000 O
ATOM     58  HD  BGC B   4       5.468   6.353   2.8810  0.00  0.00     0.000 HD
BRANCH 45 58
ATOM     58  O4  BGC B   5       1.271   3.368   4.0950  0.00  0.00     0.000 O
BRANCH 58 62
ATOM     59  C1  BGC B   5      -0.219   1.289   7.3520  0.00  0.00     0.000 C
ATOM     60  C2  BGC B   5       1.012   2.129   7.6240  0.00  0.00     0.000 C
ATOM     61  C3  BGC B   5       1.220   3.145   6.5180  0.00  0.00     0.000 C
ATOM     62  C4  BGC B   5       1.266   2.432   5.1760  0.00  0.00     0.000 C
ATOM     63  C5  BGC B   5       0.031   1.538   4.9960  0.00  0.00     0.000 C
ATOM     64  O5  BGC B   5      -0.046   0.632   6.0920  0.00  0.00     0.000 O
ATOM     65   O  BGC B   5       1.268  -0.046   3.7880  0.00  0.00     0.000 O
ATOM     67  HD  BGC B   5       1.995  -0.125   3.3240  0.00  0.00     0.000 HD
ATOM     67   O  BGC B   5       1.268  -0.046   3.7880  0.00  0.00     0.000 O
ATOM     69  HD  BGC B   5       1.995  -0.125   3.3240  0.00  0.00     0.000 HD
ENDBRANCH 58 62
ENDBRANCH 45 58
ENDBRANCH 44 48
ENDBRANCH 31 44
ENDBRANCH 30 34
ENDBRANCH 17 30
ENDBRANCH 16 20
ENDBRANCH 1 16
TORSDOF 8
ENDMDL
MODEL 87
REMARK VINA RESULT:      -4.4     25.996     27.335
ROOT
ATOM      1  C1  BGC B   1      -6.296  -7.488 -25.8730  0.00  0.00     0.000 C
ATOM      2  C2  BGC B   1      -5.845  -6.132 -25.3320  0.00  0.00     0.000 C
ATOM      3  C3  BGC B   1      -6.782  -5.041 -25.8130  0.00  0.00     0.000 C
ATOM      4  C4  BGC B   1      -6.944  -5.099 -27.3260  0.00  0.00     0.000 C
ATOM      5  C5  BGC B   1      -7.410  -6.496 -27.7080  0.00  0.00     0.000 C
ATOM      6  O5  BGC B   1      -6.388  -7.420 -27.2890  0.00  0.00     0.000 O
ATOM      7   O  BGC B   1      -5.858  -6.168 -23.8950  0.00  0.00     0.000 O
ATOM      9  HD  BGC B   1      -5.985  -5.422 -23.4750  0.00  0.00     0.000 HD
ATOM      9   O  BGC B   1      -6.262  -3.772 -25.4040  0.00  0.00     0.000 O
ATOM     11  HD  BGC B   1      -6.389  -3.026 -24.9840  0.00  0.00     0.000 HD
ATOM     11   O  BGC B   1      -7.900  -4.145 -27.7370  0.00  0.00     0.000 O
ATOM     13  HD  BGC B   1      -8.026  -3.398 -27.3170  0.00  0.00     0.000 HD
ATOM     13   C  BGC B   1      -7.667  -6.700 -29.1940  0.00  0.00     0.000 C
ATOM     14   O  BGC B   1      -6.534  -6.367 -29.9910  0.00  0.00     0.000 O
ATOM     16  HD  BGC B   1      -6.660  -5.620 -29.5710  0.00  0.00     0.000 HD
ENDROOT
BRANCH 1 16
ATOM     16  O4  BGC B   2      -5.228  -8.396 -25.6130  0.00  0.00     0.000 O
BRANCH 16 20
ATOM     17  C1  BGC B   2      -4.520 -12.286 -24.6610  0.00  0.00     0.000 C
ATOM     18  C2  BGC B   2      -4.890 -12.071 -26.1210  0.00  0.00     0.000 C
ATOM     19  C3  BGC B   2      -4.771 -10.582 -26.4380  0.00  0.00     0.000 C
ATOM     20  C4  BGC B   2      -5.591  -9.766 -25.4600  0.00  0.00     0.000 C
ATOM     21  C5  BGC B   2      -5.320 -10.153 -24.0060  0.00  0.00     0.000 C
ATOM     22  O5  BGC B   2      -5.488 -11.569 -23.8720  0.00  0.00     0.000 O
ATOM     23   O  BGC B   2      -3.994 -12.806 -26.9710  0.00  0.00     0.000 O
ATOM     25  HD  BGC B   2      -4.058 -11.971 -26.7520  0.00  0.00     0.000 HD
ATOM     25   O  BGC B   2      -5.203 -10.335 -27.7710  0.00  0.00     0.000 O
ATOM     27  HD  BGC B   2      -5.267  -9.499 -27.5520  0.00  0.00     0.000 HD
ATOM     27   C  BGC B   2      -6.269  -9.477 -23.0250  0.00  0.00     0.000 C
ATOM     28   O  BGC B   2      -7.637  -9.724 -23.3060  0.00  0.00     0.000 O
ATOM     30  HD  BGC B   2      -7.702  -8.889 -23.0870  0.00  0.00     0.000 HD
BRANCH 17 30
ATOM     30  O4  BGC B   3      -4.750 -13.653 -24.3770  0.00  0.00     0.000 O
BRANCH 30 34
ATOM     31  C1  BGC B   3      -3.220 -16.678 -22.0460  0.00  0.00     0.000 C
ATOM     32  C2  BGC B   3      -3.490 -15.374 -21.2960  0.00  0.00     0.000 C
ATOM     33  C3  BGC B   3      -4.400 -14.501 -22.1420  0.00  0.00     0.000 C
ATOM     34  C4  BGC B   3      -3.788 -14.282 -23.5250  0.00  0.00     0.000 C
ATOM     35  C5  BGC B   3      -3.412 -15.613 -24.1530  0.00  0.00     0.000 C
ATOM     36  O5  BGC B   3      -2.563 -16.339 -23.2570  0.00  0.00     0.000 O
ATOM     37   O  BGC B   3      -4.154 -15.661 -20.0670  0.00  0.00     0.000 O
ATOM     39  HD  BGC B   3      -4.043 -14.834 -19.8340  0.00  0.00     0.000 HD
ATOM     39   O  BGC B   3      -4.583 -13.262 -21.4730  0.00  0.00     0.000 O
ATOM     41  HD  BGC B   3      -4.473 -12.435 -21.2400  0.00  0.00     0.000 HD
ATOM     41   C  BGC B   3      -2.708 -15.486 -25.4990  0.00  0.00     0.000 C
ATOM     42   O  BGC B   3      -1.542 -14.708 -25.3660  0.00  0.00     0.000 O
ATOM     44  HD  BGC B   3      -1.432 -13.882 -25.1330  0.00  0.00     0.000 HD
BRANCH 31 44
ATOM     44  O4  BGC B   4      -2.297 -17.412 -21.2830  0.00  0.00     0.000 O
BRANCH 44 48
ATOM     45  C1  BGC B   4      -1.312 -21.281 -20.3510  0.00  0.00     0.000 C
ATOM     46  C2  BGC B   4      -0.910 -20.840 -21.7510  0.00  0.00     0.000 C
ATOM     47  C3  BGC B   4      -0.958 -19.334 -21.8380  0.00  0.00     0.000 C
ATOM     48  C4  BGC B   4      -2.332 -18.820 -21.3990  0.00  0.00     0.000 C
ATOM     49  C5  BGC B   4      -2.708 -19.390 -20.0260  0.00  0.00     0.000 C
ATOM     50  O5  BGC B   4      -2.634 -20.823 -20.0590  0.00  0.00     0.000 O
ATOM     51   O  BGC B   4       0.429 -21.285 -22.0430  0.00  0.00     0.000 O
ATOM     53  HD  BGC B   4       0.596 -20.453 -21.8680  0.00  0.00     0.000 HD
ATOM     53   O  BGC B   4      -0.704 -18.941 -23.1940  0.00  0.00     0.000 O
ATOM     55  HD  BGC B   4      -0.537 -18.109 -23.0200  0.00  0.00     0.000 HD
ATOM     55   C  BGC B   4      -4.106 -19.029 -19.5570  0.00  0.00     0.000 C
ATOM     56   O  BGC B   4      -5.025 -19.442 -20.5700  0.00  0.00     0.000 O
ATOM     58  HD  BGC B   4      -4.858 -18.611 -20.3950  0.00  0.00     0.000 HD
BRANCH 45 58
ATOM     58  O4  BGC B   5      -1.492 -22.695 -20.4230  0.00  0.00     0.000 O
BRANCH 58 62
ATOM     59  C1  BGC B   5      -1.814 -26.069 -18.0440  0.00  0.00     0.000 C
ATOM     60  C2  BGC B   5      -2.986 -25.111 -17.9750  0.00  0.00     0.000 C
ATOM     61  C3  BGC B   5      -2.966 -24.159 -19.1560  0.00  0.00     0.000 C
ATOM     62  C4  BGC B   5      -1.620 -23.456 -19.2200  0.00  0.00     0.000 C
ATOM     63  C5  BGC B   5      -0.474 -24.478 -19.2060  0.00  0.00     0.000 C
ATOM     64  O5  BGC B   5      -0.605 -25.302 -18.0520  0.00  0.00     0.000 O
ATOM     65   O  BGC B   5       0.905 -23.019 -17.9960  0.00  0.00     0.000 O
ATOM     67  HD  BGC B   5       1.005 -22.179 -17.8110  0.00  0.00     0.000 HD
ATOM     67   O  BGC B   5       0.905 -23.019 -17.9960  0.00  0.00     0.000 O
ATOM     69  HD  BGC B   5       1.005 -22.179 -17.8110  0.00  0.00     0.000 HD
ENDBRANCH 58 62
ENDBRANCH 45 58
ENDBRANCH 44 48
ENDBRANCH 31 44
ENDBRANCH 30 34
ENDBRANCH 17 30
ENDBRANCH 16 20
ENDBRANCH 1 16
TORSDOF 8
ENDMDL
MODEL 88
REMARK VINA RESULT:      -4.4     19.581     23.674
ROOT
ATOM      1  C1  BGC B   1       7.811  10.546  -5.6210  0.00  0.00     0.000 C
ATOM      2  C2  BGC B   1       7.680  10.973  -7.0820  0.00  0.00     0.000 C
ATOM      3  C3  BGC B   1       8.900  11.771  -7.5030  0.00  0.00     0.000 C
ATOM      4  C4  BGC B   1       9.160  12.912  -6.5280  0.00  0.00     0.000 C
ATOM      5  C5  BGC B   1       9.281  12.331  -5.1270  0.00  0.00     0.000 C
ATOM      6  O5  BGC B   1       8.028  11.696  -4.8140  0.00  0.00     0.000 O
ATOM      7   O  BGC B   1       7.572   9.803  -7.9090  0.00  0.00     0.000 O
ATOM      9  HD  BGC B   1       7.852   9.860  -8.7260  0.00  0.00     0.000 HD
ATOM      9   O  BGC B   1       8.691  12.269  -8.8270  0.00  0.00     0.000 O
ATOM     11  HD  BGC B   1       8.971  12.327  -9.6450  0.00  0.00     0.000 HD
ATOM     11   O  BGC B   1      10.356  13.573  -6.8800  0.00  0.00     0.000 O
ATOM     13  HD  BGC B   1      10.636  13.630  -7.6980  0.00  0.00     0.000 HD
ATOM     13   C  BGC B   1       9.593  13.349  -4.0380  0.00  0.00     0.000 C
ATOM     14   O  BGC B   1       8.649  14.415  -4.0060  0.00  0.00     0.000 O
ATOM     16  HD  BGC B   1       8.928  14.472  -4.8240  0.00  0.00     0.000 HD
ENDROOT
BRANCH 1 16
ATOM     16  O4  BGC B   2       6.529  10.057  -5.2330  0.00  0.00     0.000 O
BRANCH 16 20
ATOM     17  C1  BGC B   2       4.684   8.332  -2.0450  0.00  0.00     0.000 C
ATOM     18  C2  BGC B   2       4.642   9.853  -2.0270  0.00  0.00     0.000 C
ATOM     19  C3  BGC B   2       5.024  10.365  -3.4140  0.00  0.00     0.000 C
ATOM     20  C4  BGC B   2       6.355   9.784  -3.8450  0.00  0.00     0.000 C
ATOM     21  C5  BGC B   2       6.414   8.266  -3.6650  0.00  0.00     0.000 C
ATOM     22  O5  BGC B   2       6.047   7.952  -2.3160  0.00  0.00     0.000 O
ATOM     23   O  BGC B   2       3.316  10.306  -1.7070  0.00  0.00     0.000 O
ATOM     25  HD  BGC B   2       3.766  10.251  -2.4450  0.00  0.00     0.000 HD
ATOM     25   O  BGC B   2       5.087  11.787  -3.4040  0.00  0.00     0.000 O
ATOM     27  HD  BGC B   2       5.537  11.731  -4.1420  0.00  0.00     0.000 HD
ATOM     27   C  BGC B   2       7.803   7.692  -3.9130  0.00  0.00     0.000 C
ATOM     28   O  BGC B   2       8.808   8.278  -3.1010  0.00  0.00     0.000 O
ATOM     30  HD  BGC B   2       9.258   8.223  -3.8390  0.00  0.00     0.000 HD
BRANCH 17 30
ATOM     30  O4  BGC B   3       4.436   7.899  -0.7210  0.00  0.00     0.000 O
BRANCH 30 34
ATOM     31  C1  BGC B   3       3.385   4.481   1.3130  0.00  0.00     0.000 C
ATOM     32  C2  BGC B   3       4.847   4.531   0.8680  0.00  0.00     0.000 C
ATOM     33  C3  BGC B   3       5.201   5.962   0.5030  0.00  0.00     0.000 C
ATOM     34  C4  BGC B   3       4.233   6.493  -0.5540  0.00  0.00     0.000 C
ATOM     35  C5  BGC B   3       2.796   6.281  -0.1080  0.00  0.00     0.000 C
ATOM     36  O5  BGC B   3       2.595   4.901   0.2120  0.00  0.00     0.000 O
ATOM     37   O  BGC B   3       5.686   4.119   1.9450  0.00  0.00     0.000 O
ATOM     39  HD  BGC B   3       6.356   4.109   1.3960  0.00  0.00     0.000 HD
ATOM     39   O  BGC B   3       6.535   5.985   0.0180  0.00  0.00     0.000 O
ATOM     41  HD  BGC B   3       7.205   5.976  -0.5300  0.00  0.00     0.000 HD
ATOM     41   C  BGC B   3       1.759   6.699  -1.1440  0.00  0.00     0.000 C
ATOM     42   O  BGC B   3       1.963   5.996  -2.3470  0.00  0.00     0.000 O
ATOM     44  HD  BGC B   3       2.633   5.987  -2.8950  0.00  0.00     0.000 HD
BRANCH 31 44
ATOM     44  O4  BGC B   4       3.067   3.133   1.5430  0.00  0.00     0.000 O
BRANCH 44 48
ATOM     45  C1  BGC B   4       0.857   0.770   4.0610  0.00  0.00     0.000 C
ATOM     46  C2  BGC B   4       0.038   1.601   3.0830  0.00  0.00     0.000 C
ATOM     47  C3  BGC B   4       0.934   2.106   1.9790  0.00  0.00     0.000 C
ATOM     48  C4  BGC B   4       2.136   2.851   2.5680  0.00  0.00     0.000 C
ATOM     49  C5  BGC B   4       2.846   1.985   3.6160  0.00  0.00     0.000 C
ATOM     50  O5  BGC B   4       1.905   1.566   4.6160  0.00  0.00     0.000 O
ATOM     51   O  BGC B   4      -1.009   0.796   2.5090  0.00  0.00     0.000 O
ATOM     53  HD  BGC B   4      -0.453   0.791   1.8450  0.00  0.00     0.000 HD
ATOM     53   O  BGC B   4       0.178   2.992   1.1400  0.00  0.00     0.000 O
ATOM     55  HD  BGC B   4       0.734   2.988   0.4770  0.00  0.00     0.000 HD
ATOM     55   C  BGC B   4       3.983   2.683   4.3410  0.00  0.00     0.000 C
ATOM     56   O  BGC B   4       3.462   3.885   4.9130  0.00  0.00     0.000 O
ATOM     58  HD  BGC B   4       4.018   3.880   4.2490  0.00  0.00     0.000 HD
BRANCH 45 58
ATOM     58  O4  BGC B   5       0.014   0.551   5.1910  0.00  0.00     0.000 O
BRANCH 58 62
ATOM     59  C1  BGC B   5       0.052  -1.176   8.9550  0.00  0.00     0.000 C
ATOM     60  C2  BGC B   5       1.317  -0.438   8.5650  0.00  0.00     0.000 C
ATOM     61  C3  BGC B   5       1.055   0.484   7.3900  0.00  0.00     0.000 C
ATOM     62  C4  BGC B   5       0.448  -0.312   6.2450  0.00  0.00     0.000 C
ATOM     63  C5  BGC B   5      -0.781  -1.097   6.7240  0.00  0.00     0.000 C
ATOM     64  O5  BGC B   5      -0.401  -1.922   7.8210  0.00  0.00     0.000 O
ATOM     65   O  BGC B   5      -0.314  -2.860   5.2510  0.00  0.00     0.000 O
ATOM     67  HD  BGC B   5       0.118  -3.035   4.5200  0.00  0.00     0.000 HD
ATOM     67   O  BGC B   5      -0.314  -2.860   5.2510  0.00  0.00     0.000 O
ATOM     69  HD  BGC B   5       0.118  -3.035   4.5200  0.00  0.00     0.000 HD
ENDBRANCH 58 62
ENDBRANCH 45 58
ENDBRANCH 44 48
ENDBRANCH 31 44
ENDBRANCH 30 34
ENDBRANCH 17 30
ENDBRANCH 16 20
ENDBRANCH 1 16
TORSDOF 8
ENDMDL
MODEL 89
REMARK VINA RESULT:      -4.4     14.138     21.789
ROOT
ATOM      1  C1  BGC B   1      14.615 -14.567 -31.7030  0.00  0.00     0.000 C
ATOM      2  C2  BGC B   1      13.747 -15.812 -31.5320  0.00  0.00     0.000 C
ATOM      3  C3  BGC B   1      14.621 -17.031 -31.3130  0.00  0.00     0.000 C
ATOM      4  C4  BGC B   1      15.679 -17.139 -32.4040  0.00  0.00     0.000 C
ATOM      5  C5  BGC B   1      16.467 -15.838 -32.4410  0.00  0.00     0.000 C
ATOM      6  O5  BGC B   1      15.541 -14.783 -32.7590  0.00  0.00     0.000 O
ATOM      7   O  BGC B   1      12.886 -15.636 -30.3950  0.00  0.00     0.000 O
ATOM      9  HD  BGC B   1      12.626 -16.347 -29.9730  0.00  0.00     0.000 HD
ATOM      9   O  BGC B   1      13.792 -18.197 -31.2900  0.00  0.00     0.000 O
ATOM     11  HD  BGC B   1      13.532 -18.907 -30.8690  0.00  0.00     0.000 HD
ATOM     11   O  BGC B   1      16.544 -18.217 -32.1200  0.00  0.00     0.000 O
ATOM     13  HD  BGC B   1      16.284 -18.928 -31.6990  0.00  0.00     0.000 HD
ATOM     13   C  BGC B   1      17.602 -15.807 -33.4550  0.00  0.00     0.000 C
ATOM     14   O  BGC B   1      17.158 -16.105 -34.7750  0.00  0.00     0.000 O
ATOM     16  HD  BGC B   1      16.898 -16.816 -34.3540  0.00  0.00     0.000 HD
ENDROOT
BRANCH 1 16
ATOM     16  O4  BGC B   2      13.747 -13.538 -32.1740  0.00  0.00     0.000 O
BRANCH 16 20
ATOM     17  C1  BGC B   2      13.122  -9.542 -31.7440  0.00  0.00     0.000 C
ATOM     18  C2  BGC B   2      14.109  -9.891 -32.8480  0.00  0.00     0.000 C
ATOM     19  C3  BGC B   2      13.985 -11.382 -33.1560  0.00  0.00     0.000 C
ATOM     20  C4  BGC B   2      14.149 -12.200 -31.8920  0.00  0.00     0.000 C
ATOM     21  C5  BGC B   2      13.272 -11.689 -30.7490  0.00  0.00     0.000 C
ATOM     22  O5  BGC B   2      13.517 -10.288 -30.5770  0.00  0.00     0.000 O
ATOM     23   O  BGC B   2      13.808  -9.139 -34.0350  0.00  0.00     0.000 O
ATOM     25  HD  BGC B   2      13.667  -9.959 -33.7970  0.00  0.00     0.000 HD
ATOM     25   O  BGC B   2      14.962 -11.760 -34.1190  0.00  0.00     0.000 O
ATOM     27  HD  BGC B   2      14.820 -12.581 -33.8810  0.00  0.00     0.000 HD
ATOM     27   C  BGC B   2      13.564 -12.378 -29.4220  0.00  0.00     0.000 C
ATOM     28   O  BGC B   2      14.921 -12.278 -29.0230  0.00  0.00     0.000 O
ATOM     30  HD  BGC B   2      14.780 -13.098 -28.7850  0.00  0.00     0.000 HD
BRANCH 17 30
ATOM     30  O4  BGC B   3      13.346  -8.186 -31.4090  0.00  0.00     0.000 O
BRANCH 30 34
ATOM     31  C1  BGC B   3      11.924  -5.338 -28.8020  0.00  0.00     0.000 C
ATOM     32  C2  BGC B   3      12.908  -6.330 -28.1830  0.00  0.00     0.000 C
ATOM     33  C3  BGC B   3      13.646  -7.050 -29.2980  0.00  0.00     0.000 C
ATOM     34  C4  BGC B   3      12.651  -7.708 -30.2530  0.00  0.00     0.000 C
ATOM     35  C5  BGC B   3      11.617  -6.697 -30.7170  0.00  0.00     0.000 C
ATOM     36  O5  BGC B   3      11.002  -6.087 -29.5780  0.00  0.00     0.000 O
ATOM     37   O  BGC B   3      13.861  -5.624 -27.3920  0.00  0.00     0.000 O
ATOM     39  HD  BGC B   3      14.149  -6.384 -27.0910  0.00  0.00     0.000 HD
ATOM     39   O  BGC B   3      14.500  -8.024 -28.7160  0.00  0.00     0.000 O
ATOM     41  HD  BGC B   3      14.788  -8.783 -28.4150  0.00  0.00     0.000 HD
ATOM     41   C  BGC B   3      10.527  -7.288 -31.6040  0.00  0.00     0.000 C
ATOM     42   O  BGC B   3       9.862  -8.329 -30.9280  0.00  0.00     0.000 O
ATOM     44  HD  BGC B   3      10.150  -9.088 -30.6270  0.00  0.00     0.000 HD
BRANCH 31 44
ATOM     44  O4  BGC B   4      11.191  -4.768 -27.7490  0.00  0.00     0.000 O
BRANCH 44 48
ATOM     45  C1  BGC B   4       9.324  -1.270 -26.7080  0.00  0.00     0.000 C
ATOM     46  C2  BGC B   4       8.582  -2.105 -27.7420  0.00  0.00     0.000 C
ATOM     47  C3  BGC B   4       9.140  -3.508 -27.7490  0.00  0.00     0.000 C
ATOM     48  C4  BGC B   4      10.658  -3.475 -27.9540  0.00  0.00     0.000 C
ATOM     49  C5  BGC B   4      11.318  -2.534 -26.9390  0.00  0.00     0.000 C
ATOM     50  O5  BGC B   4      10.717  -1.233 -27.0220  0.00  0.00     0.000 O
ATOM     51   O  BGC B   4       7.180  -2.159 -27.4190  0.00  0.00     0.000 O
ATOM     53  HD  BGC B   4       7.415  -2.943 -27.1380  0.00  0.00     0.000 HD
ATOM     53   O  BGC B   4       8.523  -4.244 -28.8150  0.00  0.00     0.000 O
ATOM     55  HD  BGC B   4       8.759  -5.029 -28.5340  0.00  0.00     0.000 HD
ATOM     55   C  BGC B   4      12.811  -2.346 -27.1370  0.00  0.00     0.000 C
ATOM     56   O  BGC B   4      13.021  -1.905 -28.4800  0.00  0.00     0.000 O
ATOM     58  HD  BGC B   4      13.256  -2.690 -28.1980  0.00  0.00     0.000 HD
BRANCH 45 58
ATOM     58  O4  BGC B   5       8.927   0.081 -26.9390  0.00  0.00     0.000 O
BRANCH 58 62
ATOM     59  C1  BGC B   5       8.558   3.468 -24.5850  0.00  0.00     0.000 C
ATOM     60  C2  BGC B   5       9.609   3.544 -25.6740  0.00  0.00     0.000 C
ATOM     61  C3  BGC B   5       9.382   2.461 -26.7110  0.00  0.00     0.000 C
ATOM     62  C4  BGC B   5       9.326   1.105 -26.0250  0.00  0.00     0.000 C
ATOM     63  C5  BGC B   5       8.300   1.118 -24.8820  0.00  0.00     0.000 C
ATOM     64  O5  BGC B   5       8.628   2.172 -23.9820  0.00  0.00     0.000 O
ATOM     65   O  BGC B   5       9.599  -0.360 -23.6080  0.00  0.00     0.000 O
ATOM     67  HD  BGC B   5      10.225  -0.953 -23.6890  0.00  0.00     0.000 HD
ATOM     67   O  BGC B   5       9.599  -0.360 -23.6080  0.00  0.00     0.000 O
ATOM     69  HD  BGC B   5      10.225  -0.953 -23.6890  0.00  0.00     0.000 HD
ENDBRANCH 58 62
ENDBRANCH 45 58
ENDBRANCH 44 48
ENDBRANCH 31 44
ENDBRANCH 30 34
ENDBRANCH 17 30
ENDBRANCH 16 20
ENDBRANCH 1 16
TORSDOF 8
ENDMDL
MODEL 90
REMARK VINA RESULT:      -4.4     11.307     14.984
ROOT
ATOM      1  C1  BGC B   1      21.385   4.978 -18.4540  0.00  0.00     0.000 C
ATOM      2  C2  BGC B   1      21.800   4.704 -17.0090  0.00  0.00     0.000 C
ATOM      3  C3  BGC B   1      23.259   5.065 -16.8090  0.00  0.00     0.000 C
ATOM      4  C4  BGC B   1      24.131   4.388 -17.8590  0.00  0.00     0.000 C
ATOM      5  C5  BGC B   1      23.607   4.766 -19.2360  0.00  0.00     0.000 C
ATOM      6  O5  BGC B   1      22.256   4.277 -19.3320  0.00  0.00     0.000 O
ATOM      7   O  BGC B   1      20.990   5.499 -16.1260  0.00  0.00     0.000 O
ATOM      9  HD  BGC B   1      21.330   5.725 -15.3630  0.00  0.00     0.000 HD
ATOM      9   O  BGC B   1      23.655   4.676 -15.4900  0.00  0.00     0.000 O
ATOM     11  HD  BGC B   1      23.995   4.902 -14.7260  0.00  0.00     0.000 HD
ATOM     11   O  BGC B   1      25.466   4.822 -17.7170  0.00  0.00     0.000 O
ATOM     13  HD  BGC B   1      25.806   5.048 -16.9530  0.00  0.00     0.000 HD
ATOM     13   C  BGC B   1      24.408   4.203 -20.4010  0.00  0.00     0.000 C
ATOM     14   O  BGC B   1      24.534   2.785 -20.3380  0.00  0.00     0.000 O
ATOM     16  HD  BGC B   1      24.874   3.012 -19.5740  0.00  0.00     0.000 HD
ENDROOT
BRANCH 1 16
ATOM     16  O4  BGC B   2      20.110   4.362 -18.6260  0.00  0.00     0.000 O
BRANCH 16 20
ATOM     17  C1  BGC B   2      16.569   4.874 -20.5570  0.00  0.00     0.000 C
ATOM     18  C2  BGC B   2      17.684   4.358 -21.4530  0.00  0.00     0.000 C
ATOM     19  C3  BGC B   2      18.827   3.865 -20.5690  0.00  0.00     0.000 C
ATOM     20  C4  BGC B   2      19.256   4.951 -19.6030  0.00  0.00     0.000 C
ATOM     21  C5  BGC B   2      18.071   5.572 -18.8620  0.00  0.00     0.000 C
ATOM     22  O5  BGC B   2      17.101   5.996 -19.8270  0.00  0.00     0.000 O
ATOM     23   O  BGC B   2      17.207   3.266 -22.2570  0.00  0.00     0.000 O
ATOM     25  HD  BGC B   2      17.697   3.313 -21.5440  0.00  0.00     0.000 HD
ATOM     25   O  BGC B   2      19.927   3.463 -21.3780  0.00  0.00     0.000 O
ATOM     27  HD  BGC B   2      20.416   3.510 -20.6650  0.00  0.00     0.000 HD
ATOM     27   C  BGC B   2      18.462   6.788 -18.0310  0.00  0.00     0.000 C
ATOM     28   O  BGC B   2      19.099   7.804 -18.7880  0.00  0.00     0.000 O
ATOM     30  HD  BGC B   2      19.589   7.851 -18.0750  0.00  0.00     0.000 HD
BRANCH 17 30
ATOM     30  O4  BGC B   3      15.581   5.424 -21.4090  0.00  0.00     0.000 O
BRANCH 30 34
ATOM     31  C1  BGC B   3      11.503   5.946 -21.5580  0.00  0.00     0.000 C
ATOM     32  C2  BGC B   3      12.151   6.383 -20.2450  0.00  0.00     0.000 C
ATOM     33  C3  BGC B   3      13.649   6.517 -20.4570  0.00  0.00     0.000 C
ATOM     34  C4  BGC B   3      14.224   5.212 -21.0060  0.00  0.00     0.000 C
ATOM     35  C5  BGC B   3      13.442   4.762 -22.2270  0.00  0.00     0.000 C
ATOM     36  O5  BGC B   3      12.051   4.683 -21.8990  0.00  0.00     0.000 O
ATOM     37   O  BGC B   3      11.634   7.654 -19.8580  0.00  0.00     0.000 O
ATOM     39  HD  BGC B   3      12.033   7.566 -19.0950  0.00  0.00     0.000 HD
ATOM     39   O  BGC B   3      14.251   6.847 -19.2140  0.00  0.00     0.000 O
ATOM     41  HD  BGC B   3      14.650   6.759 -18.4510  0.00  0.00     0.000 HD
ATOM     41   C  BGC B   3      13.890   3.417 -22.7890  0.00  0.00     0.000 C
ATOM     42   O  BGC B   3      13.788   2.420 -21.8000  0.00  0.00     0.000 O
ATOM     44  HD  BGC B   3      14.188   2.332 -21.0360  0.00  0.00     0.000 HD
BRANCH 31 44
ATOM     44  O4  BGC B   4      10.139   5.734 -21.2980  0.00  0.00     0.000 O
BRANCH 44 48
ATOM     45  C1  BGC B   4       6.645   5.367 -23.4090  0.00  0.00     0.000 C
ATOM     46  C2  BGC B   4       7.299   4.048 -23.0250  0.00  0.00     0.000 C
ATOM     47  C3  BGC B   4       8.324   4.291 -21.9450  0.00  0.00     0.000 C
ATOM     48  C4  BGC B   4       9.319   5.368 -22.3890  0.00  0.00     0.000 C
ATOM     49  C5  BGC B   4       8.578   6.627 -22.8560  0.00  0.00     0.000 C
ATOM     50  O5  BGC B   4       7.636   6.281 -23.8830  0.00  0.00     0.000 O
ATOM     51   O  BGC B   4       6.305   3.130 -22.5310  0.00  0.00     0.000 O
ATOM     53  HD  BGC B   4       6.650   3.378 -21.7760  0.00  0.00     0.000 HD
ATOM     53   O  BGC B   4       9.022   3.064 -21.6860  0.00  0.00     0.000 O
ATOM     55  HD  BGC B   4       9.367   3.312 -20.9310  0.00  0.00     0.000 HD
ATOM     55   C  BGC B   4       9.477   7.709 -23.4260  0.00  0.00     0.000 C
ATOM     56   O  BGC B   4      10.246   7.127 -24.4800  0.00  0.00     0.000 O
ATOM     58  HD  BGC B   4      10.591   7.375 -23.7250  0.00  0.00     0.000 HD
BRANCH 45 58
ATOM     58  O4  BGC B   5       5.891   5.101 -24.5920  0.00  0.00     0.000 O
BRANCH 58 62
ATOM     59  C1  BGC B   5       2.592   6.604 -26.5930  0.00  0.00     0.000 C
ATOM     60  C2  BGC B   5       3.298   7.582 -25.6760  0.00  0.00     0.000 C
ATOM     61  C3  BGC B   5       4.688   7.082 -25.3310  0.00  0.00     0.000 C
ATOM     62  C4  BGC B   5       4.594   5.679 -24.7530  0.00  0.00     0.000 C
ATOM     63  C5  BGC B   5       3.801   4.759 -25.6920  0.00  0.00     0.000 C
ATOM     64  O5  BGC B   5       2.522   5.337 -25.9310  0.00  0.00     0.000 O
ATOM     65   O  BGC B   5       2.912   3.565 -23.8810  0.00  0.00     0.000 O
ATOM     67  HD  BGC B   5       3.062   3.390 -23.0470  0.00  0.00     0.000 HD
ATOM     67   O  BGC B   5       2.912   3.565 -23.8810  0.00  0.00     0.000 O
ATOM     69  HD  BGC B   5       3.062   3.390 -23.0470  0.00  0.00     0.000 HD
ENDBRANCH 58 62
ENDBRANCH 45 58
ENDBRANCH 44 48
ENDBRANCH 31 44
ENDBRANCH 30 34
ENDBRANCH 17 30
ENDBRANCH 16 20
ENDBRANCH 1 16
TORSDOF 8
ENDMDL
MODEL 91
REMARK VINA RESULT:      -4.4     28.752     30.649
ROOT
ATOM      1  C1  BGC B   1      -4.752 -19.856  -5.8300  0.00  0.00     0.000 C
ATOM      2  C2  BGC B   1      -5.197 -19.004  -7.0180  0.00  0.00     0.000 C
ATOM      3  C3  BGC B   1      -6.170 -17.936  -6.5570  0.00  0.00     0.000 C
ATOM      4  C4  BGC B   1      -7.310 -18.555  -5.7570  0.00  0.00     0.000 C
ATOM      5  C5  BGC B   1      -6.713 -19.354  -4.6080  0.00  0.00     0.000 C
ATOM      6  O5  BGC B   1      -5.898 -20.392  -5.1830  0.00  0.00     0.000 O
ATOM      7   O  BGC B   1      -4.046 -18.374  -7.6050  0.00  0.00     0.000 O
ATOM      9  HD  BGC B   1      -4.166 -17.621  -8.0160  0.00  0.00     0.000 HD
ATOM      9   O  BGC B   1      -6.671 -17.242  -7.7040  0.00  0.00     0.000 O
ATOM     11  HD  BGC B   1      -6.791 -16.489  -8.1140  0.00  0.00     0.000 HD
ATOM     11   O  BGC B   1      -8.142 -17.534  -5.2520  0.00  0.00     0.000 O
ATOM     13  HD  BGC B   1      -8.262 -16.781  -5.6620  0.00  0.00     0.000 HD
ATOM     13   C  BGC B   1      -7.733 -19.998  -3.6800  0.00  0.00     0.000 C
ATOM     14   O  BGC B   1      -8.653 -20.830  -4.3800  0.00  0.00     0.000 O
ATOM     16  HD  BGC B   1      -8.772 -20.077  -4.7910  0.00  0.00     0.000 HD
ENDROOT
BRANCH 1 16
ATOM     16  O4  BGC B   2      -4.075 -20.984  -6.3810  0.00  0.00     0.000 O
BRANCH 16 20
ATOM     17  C1  BGC B   2      -1.470 -23.920  -5.3180  0.00  0.00     0.000 C
ATOM     18  C2  BGC B   2      -2.920 -24.240  -4.9860  0.00  0.00     0.000 C
ATOM     19  C3  BGC B   2      -3.817 -23.263  -5.7430  0.00  0.00     0.000 C
ATOM     20  C4  BGC B   2      -3.411 -21.834  -5.4490  0.00  0.00     0.000 C
ATOM     21  C5  BGC B   2      -1.907 -21.609  -5.6140  0.00  0.00     0.000 C
ATOM     22  O5  BGC B   2      -1.211 -22.589  -4.8330  0.00  0.00     0.000 O
ATOM     23   O  BGC B   2      -3.236 -25.581  -5.3940  0.00  0.00     0.000 O
ATOM     25  HD  BGC B   2      -3.404 -24.801  -5.7290  0.00  0.00     0.000 HD
ATOM     25   O  BGC B   2      -5.177 -23.474  -5.3810  0.00  0.00     0.000 O
ATOM     27  HD  BGC B   2      -5.345 -22.693  -5.7160  0.00  0.00     0.000 HD
ATOM     27   C  BGC B   2      -1.457 -20.233  -5.1410  0.00  0.00     0.000 C
ATOM     28   O  BGC B   2      -1.805 -19.960  -3.7940  0.00  0.00     0.000 O
ATOM     30  HD  BGC B   2      -1.973 -19.179  -4.1290  0.00  0.00     0.000 HD
BRANCH 17 30
ATOM     30  O4  BGC B   3      -0.670 -24.767  -4.5140  0.00  0.00     0.000 O
BRANCH 30 34
ATOM     31  C1  BGC B   3       3.121 -26.365  -4.4750  0.00  0.00     0.000 C
ATOM     32  C2  BGC B   3       3.038 -24.916  -3.9980  0.00  0.00     0.000 C
ATOM     33  C3  BGC B   3       1.591 -24.585  -3.6810  0.00  0.00     0.000 C
ATOM     34  C4  BGC B   3       0.706 -24.868  -4.8950  0.00  0.00     0.000 C
ATOM     35  C5  BGC B   3       0.944 -26.279  -5.4040  0.00  0.00     0.000 C
ATOM     36  O5  BGC B   3       2.341 -26.465  -5.6560  0.00  0.00     0.000 O
ATOM     37   O  BGC B   3       3.807 -24.763  -2.8060  0.00  0.00     0.000 O
ATOM     39  HD  BGC B   3       3.698 -23.906  -2.8650  0.00  0.00     0.000 HD
ATOM     39   O  BGC B   3       1.513 -23.216  -3.3130  0.00  0.00     0.000 O
ATOM     41  HD  BGC B   3       1.403 -22.359  -3.3720  0.00  0.00     0.000 HD
ATOM     41   C  BGC B   3       0.169 -26.618  -6.6720  0.00  0.00     0.000 C
ATOM     42   O  BGC B   3       0.494 -25.711  -7.6980  0.00  0.00     0.000 O
ATOM     44  HD  BGC B   3       0.385 -24.854  -7.7570  0.00  0.00     0.000 HD
BRANCH 31 44
ATOM     44  O4  BGC B   4       4.452 -26.603  -4.8550  0.00  0.00     0.000 O
BRANCH 44 48
ATOM     45  C1  BGC B   4       7.154 -29.685  -4.9220  0.00  0.00     0.000 C
ATOM     46  C2  BGC B   4       6.330 -29.531  -6.1930  0.00  0.00     0.000 C
ATOM     47  C3  BGC B   4       5.680 -28.170  -6.2080  0.00  0.00     0.000 C
ATOM     48  C4  BGC B   4       4.879 -27.948  -4.9220  0.00  0.00     0.000 C
ATOM     49  C5  BGC B   4       5.751 -28.222  -3.6900  0.00  0.00     0.000 C
ATOM     50  O5  BGC B   4       6.312 -29.540  -3.7770  0.00  0.00     0.000 O
ATOM     51   O  BGC B   4       7.179 -29.660  -7.3490  0.00  0.00     0.000 O
ATOM     53  HD  BGC B   4       7.092 -28.798  -7.3380  0.00  0.00     0.000 HD
ATOM     53   O  BGC B   4       4.805 -28.089  -7.3430  0.00  0.00     0.000 O
ATOM     55  HD  BGC B   4       4.719 -27.227  -7.3320  0.00  0.00     0.000 HD
ATOM     55   C  BGC B   4       5.011 -28.141  -2.3670  0.00  0.00     0.000 C
ATOM     56   O  BGC B   4       3.898 -29.035  -2.4350  0.00  0.00     0.000 O
ATOM     58  HD  BGC B   4       3.812 -28.173  -2.4230  0.00  0.00     0.000 HD
BRANCH 45 58
ATOM     58  O4  BGC B   5       7.518 -31.063  -4.8560  0.00  0.00     0.000 O
BRANCH 58 62
ATOM     59  C1  BGC B   5      11.347 -32.564  -4.3760  0.00  0.00     0.000 C
ATOM     60  C2  BGC B   5      10.257 -33.316  -3.6390  0.00  0.00     0.000 C
ATOM     61  C3  BGC B   5       8.893 -32.960  -4.1980  0.00  0.00     0.000 C
ATOM     62  C4  BGC B   5       8.708 -31.452  -4.1660  0.00  0.00     0.000 C
ATOM     63  C5  BGC B   5       9.884 -30.747  -4.8590  0.00  0.00     0.000 C
ATOM     64  O5  BGC B   5      11.097 -31.161  -4.2400  0.00  0.00     0.000 O
ATOM     65   O  BGC B   5       9.759 -28.935  -3.3770  0.00  0.00     0.000 O
ATOM     67  HD  BGC B   5       9.211 -28.540  -2.8350  0.00  0.00     0.000 HD
ATOM     67   O  BGC B   5       9.759 -28.935  -3.3770  0.00  0.00     0.000 O
ATOM     69  HD  BGC B   5       9.211 -28.540  -2.8350  0.00  0.00     0.000 HD
ENDBRANCH 58 62
ENDBRANCH 45 58
ENDBRANCH 44 48
ENDBRANCH 31 44
ENDBRANCH 30 34
ENDBRANCH 17 30
ENDBRANCH 16 20
ENDBRANCH 1 16
TORSDOF 8
ENDMDL
MODEL 92
REMARK VINA RESULT:      -4.4     11.204     18.449
ROOT
ATOM      1  C1  BGC B   1      10.517  -2.343 -27.9250  0.00  0.00     0.000 C
ATOM      2  C2  BGC B   1      10.990  -3.796 -27.9550  0.00  0.00     0.000 C
ATOM      3  C3  BGC B   1      10.357  -4.526 -29.1230  0.00  0.00     0.000 C
ATOM      4  C4  BGC B   1       8.844  -4.350 -29.1130  0.00  0.00     0.000 C
ATOM      5  C5  BGC B   1       8.531  -2.861 -29.1000  0.00  0.00     0.000 C
ATOM      6  O5  BGC B   1       9.097  -2.313 -27.8950  0.00  0.00     0.000 O
ATOM      7   O  BGC B   1      12.420  -3.825 -28.0980  0.00  0.00     0.000 O
ATOM      9  HD  BGC B   1      12.772  -4.517 -28.4820  0.00  0.00     0.000 HD
ATOM      9   O  BGC B   1      10.710  -5.910 -29.0500  0.00  0.00     0.000 O
ATOM     11  HD  BGC B   1      11.062  -6.602 -29.4340  0.00  0.00     0.000 HD
ATOM     11   O  BGC B   1       8.289  -4.948 -30.2640  0.00  0.00     0.000 O
ATOM     13  HD  BGC B   1       8.641  -5.640 -30.6480  0.00  0.00     0.000 HD
ATOM     13   C  BGC B   1       7.049  -2.519 -29.1370  0.00  0.00     0.000 C
ATOM     14   O  BGC B   1       6.322  -3.143 -28.0830  0.00  0.00     0.000 O
ATOM     16  HD  BGC B   1       6.674  -3.835 -28.4670  0.00  0.00     0.000 HD
ENDROOT
BRANCH 1 16
ATOM     16  O4  BGC B   2      10.928  -1.816 -26.6650  0.00  0.00     0.000 O
BRANCH 16 20
ATOM     17  C1  BGC B   2      12.364   1.569 -24.9290  0.00  0.00     0.000 C
ATOM     18  C2  BGC B   2      10.916   1.682 -25.3850  0.00  0.00     0.000 C
ATOM     19  C3  BGC B   2      10.387   0.279 -25.6720  0.00  0.00     0.000 C
ATOM     20  C4  BGC B   2      11.295  -0.439 -26.6500  0.00  0.00     0.000 C
ATOM     21  C5  BGC B   2      12.767  -0.362 -26.2440  0.00  0.00     0.000 C
ATOM     22  O5  BGC B   2      13.109   1.013 -26.0280  0.00  0.00     0.000 O
ATOM     23   O  BGC B   2      10.119   2.283 -24.3510  0.00  0.00     0.000 O
ATOM     25  HD  BGC B   2      10.222   1.469 -24.6270  0.00  0.00     0.000 HD
ATOM     25   O  BGC B   2       9.065   0.357 -26.1920  0.00  0.00     0.000 O
ATOM     27  HD  BGC B   2       9.169  -0.457 -26.4680  0.00  0.00     0.000 HD
ATOM     27   C  BGC B   2      13.707  -0.912 -27.3090  0.00  0.00     0.000 C
ATOM     28   O  BGC B   2      13.556  -0.283 -28.5710  0.00  0.00     0.000 O
ATOM     30  HD  BGC B   2      13.660  -1.097 -28.8470  0.00  0.00     0.000 HD
BRANCH 17 30
ATOM     30  O4  BGC B   3      12.851   2.889 -24.7820  0.00  0.00     0.000 O
BRANCH 30 34
ATOM     31  C1  BGC B   3      15.369   5.077 -22.3740  0.00  0.00     0.000 C
ATOM     32  C2  BGC B   3      16.040   3.913 -23.1030  0.00  0.00     0.000 C
ATOM     33  C3  BGC B   3      15.135   3.453 -24.2310  0.00  0.00     0.000 C
ATOM     34  C4  BGC B   3      13.750   3.103 -23.6890  0.00  0.00     0.000 C
ATOM     35  C5  BGC B   3      13.203   4.249 -22.8560  0.00  0.00     0.000 C
ATOM     36  O5  BGC B   3      14.149   4.591 -21.8370  0.00  0.00     0.000 O
ATOM     37   O  BGC B   3      17.275   4.352 -23.6650  0.00  0.00     0.000 O
ATOM     39  HD  BGC B   3      17.463   3.528 -23.8540  0.00  0.00     0.000 HD
ATOM     39   O  BGC B   3      15.730   2.323 -24.8530  0.00  0.00     0.000 O
ATOM     41  HD  BGC B   3      15.917   1.499 -25.0420  0.00  0.00     0.000 HD
ATOM     41   C  BGC B   3      11.861   3.952 -22.1980  0.00  0.00     0.000 C
ATOM     42   O  BGC B   3      11.965   2.813 -21.3770  0.00  0.00     0.000 O
ATOM     44  HD  BGC B   3      12.152   1.989 -21.5670  0.00  0.00     0.000 HD
BRANCH 31 44
ATOM     44  O4  BGC B   4      16.184   5.407 -21.2790  0.00  0.00     0.000 O
BRANCH 44 48
ATOM     45  C1  BGC B   4      17.372   8.634 -19.0470  0.00  0.00     0.000 C
ATOM     46  C2  BGC B   4      15.901   8.270 -18.9090  0.00  0.00     0.000 C
ATOM     47  C3  BGC B   4      15.675   6.876 -19.4410  0.00  0.00     0.000 C
ATOM     48  C4  BGC B   4      16.209   6.760 -20.8720  0.00  0.00     0.000 C
ATOM     49  C5  BGC B   4      17.664   7.241 -20.9450  0.00  0.00     0.000 C
ATOM     50  O5  BGC B   4      17.760   8.574 -20.4210  0.00  0.00     0.000 O
ATOM     51   O  BGC B   4      15.510   8.313 -17.5230  0.00  0.00     0.000 O
ATOM     53  HD  BGC B   4      15.585   7.455 -17.6180  0.00  0.00     0.000 HD
ATOM     53   O  BGC B   4      14.268   6.597 -19.4250  0.00  0.00     0.000 O
ATOM     55  HD  BGC B   4      14.343   5.739 -19.5200  0.00  0.00     0.000 HD
ATOM     55   C  BGC B   4      18.244   7.274 -22.3480  0.00  0.00     0.000 C
ATOM     56   O  BGC B   4      17.381   8.074 -23.1580  0.00  0.00     0.000 O
ATOM     58  HD  BGC B   4      17.456   7.217 -23.2530  0.00  0.00     0.000 HD
BRANCH 45 58
ATOM     58  O4  BGC B   5      17.457  10.032 -18.7710  0.00  0.00     0.000 O
BRANCH 58 62
ATOM     59  C1  BGC B   5      20.243  13.035 -18.1700  0.00  0.00     0.000 C
ATOM     60  C2  BGC B   5      19.943  12.708 -19.6180  0.00  0.00     0.000 C
ATOM     61  C3  BGC B   5      18.649  11.924 -19.7300  0.00  0.00     0.000 C
ATOM     62  C4  BGC B   5      18.722  10.694 -18.8400  0.00  0.00     0.000 C
ATOM     63  C5  BGC B   5      19.108  11.085 -17.4060  0.00  0.00     0.000 C
ATOM     64  O5  BGC B   5      20.334  11.807 -17.4400  0.00  0.00     0.000 O
ATOM     65   O  BGC B   5      20.302   9.090 -17.1100  0.00  0.00     0.000 O
ATOM     67  HD  BGC B   5      20.365   8.286 -17.4250  0.00  0.00     0.000 HD
ATOM     67   O  BGC B   5      20.302   9.090 -17.1100  0.00  0.00     0.000 O
ATOM     69  HD  BGC B   5      20.365   8.286 -17.4250  0.00  0.00     0.000 HD
ENDBRANCH 58 62
ENDBRANCH 45 58
ENDBRANCH 44 48
ENDBRANCH 31 44
ENDBRANCH 30 34
ENDBRANCH 17 30
ENDBRANCH 16 20
ENDBRANCH 1 16
TORSDOF 8
ENDMDL
MODEL 93
REMARK VINA RESULT:      -4.4     18.160     21.656
ROOT
ATOM      1  C1  BGC B   1      13.884 -15.529 -31.2100  0.00  0.00     0.000 C
ATOM      2  C2  BGC B   1      12.366 -15.358 -31.2530  0.00  0.00     0.000 C
ATOM      3  C3  BGC B   1      11.909 -15.113 -32.6780  0.00  0.00     0.000 C
ATOM      4  C4  BGC B   1      12.696 -13.971 -33.3080  0.00  0.00     0.000 C
ATOM      5  C5  BGC B   1      14.180 -14.292 -33.2030  0.00  0.00     0.000 C
ATOM      6  O5  BGC B   1      14.500 -14.395 -31.8030  0.00  0.00     0.000 O
ATOM      7   O  BGC B   1      11.741 -16.552 -30.7540  0.00  0.00     0.000 O
ATOM      9  HD  BGC B   1      10.948 -16.743 -31.0450  0.00  0.00     0.000 HD
ATOM      9   O  BGC B   1      10.508 -14.825 -32.6720  0.00  0.00     0.000 O
ATOM     11  HD  BGC B   1       9.716 -15.017 -32.9630  0.00  0.00     0.000 HD
ATOM     11   O  BGC B   1      12.328 -13.833 -34.6630  0.00  0.00     0.000 O
ATOM     13  HD  BGC B   1      11.536 -14.024 -34.9550  0.00  0.00     0.000 HD
ATOM     13   C  BGC B   1      15.103 -13.260 -33.8360  0.00  0.00     0.000 C
ATOM     14   O  BGC B   1      14.885 -11.950 -33.3210  0.00  0.00     0.000 O
ATOM     16  HD  BGC B   1      14.093 -12.141 -33.6130  0.00  0.00     0.000 HD
ENDROOT
BRANCH 1 16
ATOM     16  O4  BGC B   2      14.252 -15.474 -29.8330  0.00  0.00     0.000 O
BRANCH 16 20
ATOM     17  C1  BGC B   2      16.809 -17.154 -27.1550  0.00  0.00     0.000 C
ATOM     18  C2  BGC B   2      17.469 -16.140 -28.0770  0.00  0.00     0.000 C
ATOM     19  C3  BGC B   2      16.376 -15.328 -28.7670  0.00  0.00     0.000 C
ATOM     20  C4  BGC B   2      15.388 -16.247 -29.4560  0.00  0.00     0.000 C
ATOM     21  C5  BGC B   2      14.896 -17.367 -28.5380  0.00  0.00     0.000 C
ATOM     22  O5  BGC B   2      16.036 -18.039 -27.9870  0.00  0.00     0.000 O
ATOM     23   O  BGC B   2      18.306 -15.252 -27.3170  0.00  0.00     0.000 O
ATOM     25  HD  BGC B   2      17.518 -15.175 -27.6690  0.00  0.00     0.000 HD
ATOM     25   O  BGC B   2      16.957 -14.434 -29.7090  0.00  0.00     0.000 O
ATOM     27  HD  BGC B   2      16.170 -14.357 -30.0610  0.00  0.00     0.000 HD
ATOM     27   C  BGC B   2      14.054 -18.406 -29.2670  0.00  0.00     0.000 C
ATOM     28   O  BGC B   2      14.719 -18.993 -30.3740  0.00  0.00     0.000 O
ATOM     30  HD  BGC B   2      13.931 -18.916 -30.7260  0.00  0.00     0.000 HD
BRANCH 17 30
ATOM     30  O4  BGC B   3      17.845 -17.958 -26.6230  0.00  0.00     0.000 O
BRANCH 30 34
ATOM     31  C1  BGC B   3      18.536 -20.509 -23.4700  0.00  0.00     0.000 C
ATOM     32  C2  BGC B   3      17.659 -21.092 -24.5770  0.00  0.00     0.000 C
ATOM     33  C3  BGC B   3      17.809 -20.238 -25.8240  0.00  0.00     0.000 C
ATOM     34  C4  BGC B   3      17.485 -18.779 -25.5060  0.00  0.00     0.000 C
ATOM     35  C5  BGC B   3      18.288 -18.308 -24.3070  0.00  0.00     0.000 C
ATOM     36  O5  BGC B   3      18.066 -19.197 -23.2070  0.00  0.00     0.000 O
ATOM     37   O  BGC B   3      18.094 -22.416 -24.8810  0.00  0.00     0.000 O
ATOM     39  HD  BGC B   3      17.389 -22.516 -25.3750  0.00  0.00     0.000 HD
ATOM     39   O  BGC B   3      16.933 -20.741 -26.8210  0.00  0.00     0.000 O
ATOM     41  HD  BGC B   3      16.228 -20.841 -27.3150  0.00  0.00     0.000 HD
ATOM     41   C  BGC B   3      17.960 -16.887 -23.8610  0.00  0.00     0.000 C
ATOM     42   O  BGC B   3      16.591 -16.778 -23.5540  0.00  0.00     0.000 O
ATOM     44  HD  BGC B   3      15.886 -16.878 -24.0470  0.00  0.00     0.000 HD
BRANCH 31 44
ATOM     44  O4  BGC B   4      18.294 -21.261 -22.3080  0.00  0.00     0.000 O
BRANCH 44 48
ATOM     45  C1  BGC B   4      20.044 -22.250 -18.7360  0.00  0.00     0.000 C
ATOM     46  C2  BGC B   4      19.557 -20.811 -18.8300  0.00  0.00     0.000 C
ATOM     47  C3  BGC B   4      18.604 -20.678 -19.9940  0.00  0.00     0.000 C
ATOM     48  C4  BGC B   4      19.259 -21.195 -21.2780  0.00  0.00     0.000 C
ATOM     49  C5  BGC B   4      19.814 -22.609 -21.0690  0.00  0.00     0.000 C
ATOM     50  O5  BGC B   4      20.707 -22.618 -19.9460  0.00  0.00     0.000 O
ATOM     51   O  BGC B   4      18.872 -20.441 -17.6180  0.00  0.00     0.000 O
ATOM     53  HD  BGC B   4      18.185 -20.576 -18.1280  0.00  0.00     0.000 HD
ATOM     53   O  BGC B   4      18.256 -19.295 -20.1500  0.00  0.00     0.000 O
ATOM     55  HD  BGC B   4      17.569 -19.429 -20.6600  0.00  0.00     0.000 HD
ATOM     55   C  BGC B   4      20.585 -23.162 -22.2540  0.00  0.00     0.000 C
ATOM     56   O  BGC B   4      21.620 -22.231 -22.5730  0.00  0.00     0.000 O
ATOM     58  HD  BGC B   4      20.933 -22.366 -23.0830  0.00  0.00     0.000 HD
BRANCH 45 58
ATOM     58  O4  BGC B   5      21.118 -22.238 -17.7950  0.00  0.00     0.000 O
BRANCH 58 62
ATOM     59  C1  BGC B   5      23.630 -24.915 -15.8800  0.00  0.00     0.000 C
ATOM     60  C2  BGC B   5      24.203 -24.260 -17.1210  0.00  0.00     0.000 C
ATOM     61  C3  BGC B   5      23.399 -23.028 -17.4910  0.00  0.00     0.000 C
ATOM     62  C4  BGC B   5      21.933 -23.401 -17.6330  0.00  0.00     0.000 C
ATOM     63  C5  BGC B   5      21.436 -24.131 -16.3770  0.00  0.00     0.000 C
ATOM     64  O5  BGC B   5      22.267 -25.263 -16.1430  0.00  0.00     0.000 O
ATOM     65   O  BGC B   5      19.986 -25.469 -17.6440  0.00  0.00     0.000 O
ATOM     67  HD  BGC B   5      19.579 -25.490 -18.4080  0.00  0.00     0.000 HD
ATOM     67   O  BGC B   5      19.986 -25.469 -17.6440  0.00  0.00     0.000 O
ATOM     69  HD  BGC B   5      19.579 -25.490 -18.4080  0.00  0.00     0.000 HD
ENDBRANCH 58 62
ENDBRANCH 45 58
ENDBRANCH 44 48
ENDBRANCH 31 44
ENDBRANCH 30 34
ENDBRANCH 17 30
ENDBRANCH 16 20
ENDBRANCH 1 16
TORSDOF 8
ENDMDL
MODEL 94
REMARK VINA RESULT:      -4.3     22.341     26.705
ROOT
ATOM      1  C1  BGC B   1      -4.714  -4.284 -20.7910  0.00  0.00     0.000 C
ATOM      2  C2  BGC B   1      -4.183  -5.678 -21.1220  0.00  0.00     0.000 C
ATOM      3  C3  BGC B   1      -5.031  -6.734 -20.4390  0.00  0.00     0.000 C
ATOM      4  C4  BGC B   1      -5.161  -6.440 -18.9490  0.00  0.00     0.000 C
ATOM      5  C5  BGC B   1      -5.713  -5.032 -18.7820  0.00  0.00     0.000 C
ATOM      6  O5  BGC B   1      -4.767  -4.126 -19.3800  0.00  0.00     0.000 O
ATOM      7   O  BGC B   1      -4.234  -5.878 -22.5440  0.00  0.00     0.000 O
ATOM      9  HD  BGC B   1      -4.319  -6.690 -22.8340  0.00  0.00     0.000 HD
ATOM      9   O  BGC B   1      -4.436  -8.016 -20.6550  0.00  0.00     0.000 O
ATOM     11  HD  BGC B   1      -4.521  -8.828 -20.9450  0.00  0.00     0.000 HD
ATOM     11   O  BGC B   1      -6.039  -7.373 -18.3570  0.00  0.00     0.000 O
ATOM     13  HD  BGC B   1      -6.123  -8.185 -18.6470  0.00  0.00     0.000 HD
ATOM     13   C  BGC B   1      -5.947  -4.604 -17.3400  0.00  0.00     0.000 C
ATOM     14   O  BGC B   1      -4.775  -4.730 -16.5400  0.00  0.00     0.000 O
ATOM     16  HD  BGC B   1      -4.860  -5.542 -16.8300  0.00  0.00     0.000 HD
ENDROOT
BRANCH 1 16
ATOM     16  O4  BGC B   2      -3.717  -3.364 -21.2310  0.00  0.00     0.000 O
BRANCH 16 20
ATOM     17  C1  BGC B   2      -3.307   0.369 -22.7920  0.00  0.00     0.000 C
ATOM     18  C2  BGC B   2      -3.579   0.359 -21.2950  0.00  0.00     0.000 C
ATOM     19  C3  BGC B   2      -3.350  -1.057 -20.7700  0.00  0.00     0.000 C
ATOM     20  C4  BGC B   2      -4.173  -2.054 -21.5600  0.00  0.00     0.000 C
ATOM     21  C5  BGC B   2      -4.010  -1.878 -23.0700  0.00  0.00     0.000 C
ATOM     22  O5  BGC B   2      -4.273  -0.509 -23.4010  0.00  0.00     0.000 O
ATOM     23   O  BGC B   2      -2.682   1.260 -20.6250  0.00  0.00     0.000 O
ATOM     25  HD  BGC B   2      -2.707   0.398 -20.7130  0.00  0.00     0.000 HD
ATOM     25   O  BGC B   2      -3.688  -1.122 -19.3900  0.00  0.00     0.000 O
ATOM     27  HD  BGC B   2      -3.713  -1.983 -19.4780  0.00  0.00     0.000 HD
ATOM     27   C  BGC B   2      -4.971  -2.743 -23.8760  0.00  0.00     0.000 C
ATOM     28   O  BGC B   2      -6.333  -2.529 -23.5440  0.00  0.00     0.000 O
ATOM     30  HD  BGC B   2      -6.358  -3.390 -23.6320  0.00  0.00     0.000 HD
BRANCH 17 30
ATOM     30  O4  BGC B   3      -3.638   1.663 -23.2600  0.00  0.00     0.000 O
BRANCH 30 34
ATOM     31  C1  BGC B   3      -2.123   4.461 -25.8670  0.00  0.00     0.000 C
ATOM     32  C2  BGC B   3      -3.090   3.461 -26.5010  0.00  0.00     0.000 C
ATOM     33  C3  BGC B   3      -3.866   2.762 -25.3990  0.00  0.00     0.000 C
ATOM     34  C4  BGC B   3      -2.904   2.118 -24.4010  0.00  0.00     0.000 C
ATOM     35  C5  BGC B   3      -1.883   3.135 -23.9200  0.00  0.00     0.000 C
ATOM     36  O5  BGC B   3      -1.229   3.723 -25.0490  0.00  0.00     0.000 O
ATOM     37   O  BGC B   3      -4.015   4.155 -27.3350  0.00  0.00     0.000 O
ATOM     39  HD  BGC B   3      -4.295   3.392 -27.6310  0.00  0.00     0.000 HD
ATOM     39   O  BGC B   3      -4.704   1.781 -25.9910  0.00  0.00     0.000 O
ATOM     41  HD  BGC B   3      -4.985   1.017 -26.2880  0.00  0.00     0.000 HD
ATOM     41   C  BGC B   3      -0.824   2.556 -22.9880  0.00  0.00     0.000 C
ATOM     42   O  BGC B   3      -0.142   1.502 -23.6250  0.00  0.00     0.000 O
ATOM     44  HD  BGC B   3      -0.422   0.738 -23.9220  0.00  0.00     0.000 HD
BRANCH 31 44
ATOM     44  O4  BGC B   4      -1.354   5.011 -26.9060  0.00  0.00     0.000 O
BRANCH 44 48
ATOM     45  C1  BGC B   4       1.044   8.240 -27.6970  0.00  0.00     0.000 C
ATOM     46  C2  BGC B   4       1.711   7.131 -26.8960  0.00  0.00     0.000 C
ATOM     47  C3  BGC B   4       0.893   5.868 -27.0060  0.00  0.00     0.000 C
ATOM     48  C4  BGC B   4      -0.559   6.138 -26.5990  0.00  0.00     0.000 C
ATOM     49  C5  BGC B   4      -1.125   7.332 -27.3780  0.00  0.00     0.000 C
ATOM     50  O5  BGC B   4      -0.274   8.474 -27.1980  0.00  0.00     0.000 O
ATOM     51   O  BGC B   4       3.034   6.881 -27.4070  0.00  0.00     0.000 O
ATOM     53  HD  BGC B   4       2.621   6.206 -27.7600  0.00  0.00     0.000 HD
ATOM     53   O  BGC B   4       1.461   4.872 -26.1440  0.00  0.00     0.000 O
ATOM     55  HD  BGC B   4       1.048   4.198 -26.4960  0.00  0.00     0.000 HD
ATOM     55   C  BGC B   4      -2.523   7.749 -26.9580  0.00  0.00     0.000 C
ATOM     56   O  BGC B   4      -2.499   7.999 -25.5520  0.00  0.00     0.000 O
ATOM     58  HD  BGC B   4      -2.912   7.325 -25.9040  0.00  0.00     0.000 HD
BRANCH 45 58
ATOM     58  O4  BGC B   5       1.721   9.444 -27.3380  0.00  0.00     0.000 O
BRANCH 58 62
ATOM     59  C1  BGC B   5       2.079  13.412 -28.4660  0.00  0.00     0.000 C
ATOM     60  C2  BGC B   5       0.851  13.079 -27.6430  0.00  0.00     0.000 C
ATOM     61  C3  BGC B   5       1.024  11.743 -26.9460  0.00  0.00     0.000 C
ATOM     62  C4  BGC B   5       1.366  10.675 -27.9730  0.00  0.00     0.000 C
ATOM     63  C5  BGC B   5       2.567  11.108 -28.8250  0.00  0.00     0.000 C
ATOM     64  O5  BGC B   5       2.276  12.367 -29.4240  0.00  0.00     0.000 O
ATOM     65   O  BGC B   5       1.704  10.022 -30.7150  0.00  0.00     0.000 O
ATOM     67  HD  BGC B   5       1.151   9.396 -30.9420  0.00  0.00     0.000 HD
ATOM     67   O  BGC B   5       1.704  10.022 -30.7150  0.00  0.00     0.000 O
ATOM     69  HD  BGC B   5       1.151   9.396 -30.9420  0.00  0.00     0.000 HD
ENDBRANCH 58 62
ENDBRANCH 45 58
ENDBRANCH 44 48
ENDBRANCH 31 44
ENDBRANCH 30 34
ENDBRANCH 17 30
ENDBRANCH 16 20
ENDBRANCH 1 16
TORSDOF 8
ENDMDL
MODEL 95
REMARK VINA RESULT:      -4.3     27.435     32.059
ROOT
ATOM      1  C1  BGC B   1      -4.462 -22.050  -9.0840  0.00  0.00     0.000 C
ATOM      2  C2  BGC B   1      -3.617 -21.927 -10.3510  0.00  0.00     0.000 C
ATOM      3  C3  BGC B   1      -4.173 -22.826 -11.4370  0.00  0.00     0.000 C
ATOM      4  C4  BGC B   1      -4.345 -24.250 -10.9240  0.00  0.00     0.000 C
ATOM      5  C5  BGC B   1      -5.216 -24.211  -9.6770  0.00  0.00     0.000 C
ATOM      6  O5  BGC B   1      -4.527 -23.415  -8.6950  0.00  0.00     0.000 O
ATOM      7   O  BGC B   1      -3.642 -20.563 -10.8050  0.00  0.00     0.000 O
ATOM      9  HD  BGC B   1      -3.534 -20.419 -11.6520  0.00  0.00     0.000 HD
ATOM      9   O  BGC B   1      -3.290 -22.792 -12.5630  0.00  0.00     0.000 O
ATOM     11  HD  BGC B   1      -3.182 -22.648 -13.4100  0.00  0.00     0.000 HD
ATOM     11   O  BGC B   1      -4.961 -25.041 -11.9170  0.00  0.00     0.000 O
ATOM     13  HD  BGC B   1      -4.853 -24.897 -12.7640  0.00  0.00     0.000 HD
ATOM     13   C  BGC B   1      -5.522 -25.572  -9.0690  0.00  0.00     0.000 C
ATOM     14   O  BGC B   1      -4.341 -26.311  -8.7730  0.00  0.00     0.000 O
ATOM     16  HD  BGC B   1      -4.232 -26.167  -9.6200  0.00  0.00     0.000 HD
ENDROOT
BRANCH 1 16
ATOM     16  O4  BGC B   2      -3.723 -21.404  -8.0480  0.00  0.00     0.000 O
BRANCH 16 20
ATOM     17  C1  BGC B   2      -4.204 -19.058  -4.7620  0.00  0.00     0.000 C
ATOM     18  C2  BGC B   2      -4.749 -20.468  -4.5910  0.00  0.00     0.000 C
ATOM     19  C3  BGC B   2      -4.196 -21.341  -5.7160  0.00  0.00     0.000 C
ATOM     20  C4  BGC B   2      -4.492 -20.717  -7.0640  0.00  0.00     0.000 C
ATOM     21  C5  BGC B   2      -4.098 -19.241  -7.1230  0.00  0.00     0.000 C
ATOM     22  O5  BGC B   2      -4.706 -18.562  -6.0170  0.00  0.00     0.000 O
ATOM     23   O  BGC B   2      -4.331 -21.009  -3.3270  0.00  0.00     0.000 O
ATOM     25  HD  BGC B   2      -4.067 -21.128  -4.1430  0.00  0.00     0.000 HD
ATOM     25   O  BGC B   2      -4.763 -22.644  -5.6400  0.00  0.00     0.000 O
ATOM     27  HD  BGC B   2      -4.499 -22.762  -6.4570  0.00  0.00     0.000 HD
ATOM     27   C  BGC B   2      -4.560 -18.552  -8.4010  0.00  0.00     0.000 C
ATOM     28   O  BGC B   2      -5.958 -18.651  -8.6190  0.00  0.00     0.000 O
ATOM     30  HD  BGC B   2      -5.694 -18.770  -9.4350  0.00  0.00     0.000 HD
BRANCH 17 30
ATOM     30  O4  BGC B   3      -4.824 -18.257  -3.7740  0.00  0.00     0.000 O
BRANCH 30 34
ATOM     31  C1  BGC B   3      -4.063 -14.922  -1.4880  0.00  0.00     0.000 C
ATOM     32  C2  BGC B   3      -4.284 -14.636  -2.9730  0.00  0.00     0.000 C
ATOM     33  C3  BGC B   3      -4.935 -15.849  -3.6150  0.00  0.00     0.000 C
ATOM     34  C4  BGC B   3      -4.092 -17.098  -3.3620  0.00  0.00     0.000 C
ATOM     35  C5  BGC B   3      -3.790 -17.241  -1.8810  0.00  0.00     0.000 C
ATOM     36  O5  BGC B   3      -3.188 -16.035  -1.3990  0.00  0.00     0.000 O
ATOM     37   O  BGC B   3      -5.162 -13.522  -3.1180  0.00  0.00     0.000 O
ATOM     39  HD  BGC B   3      -4.988 -13.516  -3.9670  0.00  0.00     0.000 HD
ATOM     39   O  BGC B   3      -5.066 -15.605  -5.0070  0.00  0.00     0.000 O
ATOM     41  HD  BGC B   3      -4.892 -15.599  -5.8560  0.00  0.00     0.000 HD
ATOM     41   C  BGC B   3      -2.874 -18.413  -1.5460  0.00  0.00     0.000 C
ATOM     42   O  BGC B   3      -1.656 -18.291  -2.2410  0.00  0.00     0.000 O
ATOM     44  HD  BGC B   3      -1.482 -18.286  -3.0900  0.00  0.00     0.000 HD
BRANCH 31 44
ATOM     44  O4  BGC B   4      -3.368 -13.824  -0.9530  0.00  0.00     0.000 O
BRANCH 44 48
ATOM     45  C1  BGC B   4      -2.810 -11.856   2.5990  0.00  0.00     0.000 C
ATOM     46  C2  BGC B   4      -2.032 -13.157   2.4620  0.00  0.00     0.000 C
ATOM     47  C3  BGC B   4      -2.001 -13.574   1.0120  0.00  0.00     0.000 C
ATOM     48  C4  BGC B   4      -3.423 -13.641   0.4470  0.00  0.00     0.000 C
ATOM     49  C5  BGC B   4      -4.172 -12.330   0.7150  0.00  0.00     0.000 C
ATOM     50  O5  BGC B   4      -4.143 -12.034   2.1190  0.00  0.00     0.000 O
ATOM     51   O  BGC B   4      -0.682 -12.977   2.9280  0.00  0.00     0.000 O
ATOM     53  HD  BGC B   4      -0.537 -12.946   2.0750  0.00  0.00     0.000 HD
ATOM     53   O  BGC B   4      -1.380 -14.864   0.9150  0.00  0.00     0.000 O
ATOM     55  HD  BGC B   4      -1.236 -14.834   0.0620  0.00  0.00     0.000 HD
ATOM     55   C  BGC B   4      -5.630 -12.342   0.2940  0.00  0.00     0.000 C
ATOM     56   O  BGC B   4      -6.260 -13.451   0.9380  0.00  0.00     0.000 O
ATOM     58  HD  BGC B   4      -6.116 -13.420   0.0840  0.00  0.00     0.000 HD
BRANCH 45 58
ATOM     58  O4  BGC B   5      -3.015 -11.669   3.9990  0.00  0.00     0.000 O
BRANCH 58 62
ATOM     59  C1  BGC B   5      -2.383  -8.826   6.9430  0.00  0.00     0.000 C
ATOM     60  C2  BGC B   5      -3.732  -8.761   6.2560  0.00  0.00     0.000 C
ATOM     61  C3  BGC B   5      -4.018 -10.057   5.5220  0.00  0.00     0.000 C
ATOM     62  C4  BGC B   5      -2.874 -10.365   4.5690  0.00  0.00     0.000 C
ATOM     63  C5  BGC B   5      -1.530 -10.337   5.3100  0.00  0.00     0.000 C
ATOM     64  O5  BGC B   5      -1.383  -9.073   5.9490  0.00  0.00     0.000 O
ATOM     65   O  BGC B   5      -0.427  -9.498   3.4190  0.00  0.00     0.000 O
ATOM     67  HD  BGC B   5      -0.506  -9.444   2.5590  0.00  0.00     0.000 HD
ATOM     67   O  BGC B   5      -0.427  -9.498   3.4190  0.00  0.00     0.000 O
ATOM     69  HD  BGC B   5      -0.506  -9.444   2.5590  0.00  0.00     0.000 HD
ENDBRANCH 58 62
ENDBRANCH 45 58
ENDBRANCH 44 48
ENDBRANCH 31 44
ENDBRANCH 30 34
ENDBRANCH 17 30
ENDBRANCH 16 20
ENDBRANCH 1 16
TORSDOF 8
ENDMDL
MODEL 96
REMARK VINA RESULT:      -4.3      4.331      8.455
ROOT
ATOM      1  C1  BGC B   1      19.274  -0.814 -19.3930  0.00  0.00     0.000 C
ATOM      2  C2  BGC B   1      18.656  -0.014 -20.5380  0.00  0.00     0.000 C
ATOM      3  C3  BGC B   1      19.233   1.388 -20.5660  0.00  0.00     0.000 C
ATOM      4  C4  BGC B   1      19.117   2.045 -19.1960  0.00  0.00     0.000 C
ATOM      5  C5  BGC B   1      19.789   1.143 -18.1710  0.00  0.00     0.000 C
ATOM      6  O5  BGC B   1      19.083  -0.112 -18.1740  0.00  0.00     0.000 O
ATOM      7   O  BGC B   1      18.945  -0.670 -21.7840  0.00  0.00     0.000 O
ATOM      9  HD  BGC B   1      18.987  -0.179 -22.4970  0.00  0.00     0.000 HD
ATOM      9   O  BGC B   1      18.542   2.153 -21.5580  0.00  0.00     0.000 O
ATOM     11  HD  BGC B   1      18.584   2.643 -22.2710  0.00  0.00     0.000 HD
ATOM     11   O  BGC B   1      19.754   3.304 -19.2190  0.00  0.00     0.000 O
ATOM     13  HD  BGC B   1      19.796   3.794 -19.9320  0.00  0.00     0.000 HD
ATOM     13   C  BGC B   1      19.799   1.689 -16.7500  0.00  0.00     0.000 C
ATOM     14   O  BGC B   1      18.493   2.011 -16.2830  0.00  0.00     0.000 O
ATOM     16  HD  BGC B   1      18.535   2.502 -16.9960  0.00  0.00     0.000 HD
ENDROOT
BRANCH 1 16
ATOM     16  O4  BGC B   2      18.491  -1.999 -19.2670  0.00  0.00     0.000 O
BRANCH 16 20
ATOM     17  C1  BGC B   2      18.760  -5.925 -18.2380  0.00  0.00     0.000 C
ATOM     18  C2  BGC B   2      19.112  -4.971 -17.1070  0.00  0.00     0.000 C
ATOM     19  C3  BGC B   2      18.631  -3.572 -17.4840  0.00  0.00     0.000 C
ATOM     20  C4  BGC B   2      19.184  -3.167 -18.8350  0.00  0.00     0.000 C
ATOM     21  C5  BGC B   2      18.971  -4.246 -19.8980  0.00  0.00     0.000 C
ATOM     22  O5  BGC B   2      19.489  -5.486 -19.4000  0.00  0.00     0.000 O
ATOM     23   O  BGC B   2      18.460  -5.381 -15.8940  0.00  0.00     0.000 O
ATOM     25  HD  BGC B   2      18.303  -4.757 -16.4740  0.00  0.00     0.000 HD
ATOM     25   O  BGC B   2      19.030  -2.637 -16.4880  0.00  0.00     0.000 O
ATOM     27  HD  BGC B   2      18.873  -2.013 -17.0680  0.00  0.00     0.000 HD
ATOM     27   C  BGC B   2      19.686  -3.937 -21.2080  0.00  0.00     0.000 C
ATOM     28   O  BGC B   2      21.080  -3.731 -21.0530  0.00  0.00     0.000 O
ATOM     30  HD  BGC B   2      20.924  -3.107 -21.6330  0.00  0.00     0.000 HD
BRANCH 17 30
ATOM     30  O4  BGC B   3      19.320  -7.181 -17.9040  0.00  0.00     0.000 O
BRANCH 30 34
ATOM     31  C1  BGC B   3      18.368 -11.022 -19.0290  0.00  0.00     0.000 C
ATOM     32  C2  BGC B   3      17.604  -9.932 -19.7810  0.00  0.00     0.000 C
ATOM     33  C3  BGC B   3      18.311  -8.604 -19.5750  0.00  0.00     0.000 C
ATOM     34  C4  BGC B   3      18.462  -8.312 -18.0830  0.00  0.00     0.000 C
ATOM     35  C5  BGC B   3      19.099  -9.494 -17.3740  0.00  0.00     0.000 C
ATOM     36  O5  BGC B   3      18.346 -10.679 -17.6530  0.00  0.00     0.000 O
ATOM     37   O  BGC B   3      17.600 -10.230 -21.1750  0.00  0.00     0.000 O
ATOM     39  HD  BGC B   3      17.030  -9.589 -21.2940  0.00  0.00     0.000 HD
ATOM     39   O  BGC B   3      17.552  -7.587 -20.2110  0.00  0.00     0.000 O
ATOM     41  HD  BGC B   3      16.982  -6.946 -20.3290  0.00  0.00     0.000 HD
ATOM     41   C  BGC B   3      19.204  -9.326 -15.8620  0.00  0.00     0.000 C
ATOM     42   O  BGC B   3      17.929  -9.106 -15.3070  0.00  0.00     0.000 O
ATOM     44  HD  BGC B   3      17.359  -8.465 -15.4260  0.00  0.00     0.000 HD
BRANCH 31 44
ATOM     44  O4  BGC B   4      17.631 -12.210 -19.1580  0.00  0.00     0.000 O
BRANCH 44 48
ATOM     45  C1  BGC B   4      18.152 -16.207 -19.9040  0.00  0.00     0.000 C
ATOM     46  C2  BGC B   4      18.590 -15.755 -18.5180  0.00  0.00     0.000 C
ATOM     47  C3  BGC B   4      18.001 -14.397 -18.2220  0.00  0.00     0.000 C
ATOM     48  C4  BGC B   4      18.358 -13.409 -19.3370  0.00  0.00     0.000 C
ATOM     49  C5  BGC B   4      17.977 -13.982 -20.7080  0.00  0.00     0.000 C
ATOM     50  O5  BGC B   4      18.594 -15.266 -20.8840  0.00  0.00     0.000 O
ATOM     51   O  BGC B   4      18.132 -16.692 -17.5250  0.00  0.00     0.000 O
ATOM     53  HD  BGC B   4      17.544 -16.068 -17.4060  0.00  0.00     0.000 HD
ATOM     53   O  BGC B   4      18.527 -13.928 -16.9730  0.00  0.00     0.000 O
ATOM     55  HD  BGC B   4      17.938 -13.303 -16.8540  0.00  0.00     0.000 HD
ATOM     55   C  BGC B   4      18.398 -13.123 -21.8860  0.00  0.00     0.000 C
ATOM     56   O  BGC B   4      19.805 -12.897 -21.7800  0.00  0.00     0.000 O
ATOM     58  HD  BGC B   4      19.217 -12.273 -21.6620  0.00  0.00     0.000 HD
BRANCH 45 58
ATOM     58  O4  BGC B   5      18.944 -17.355 -20.2090  0.00  0.00     0.000 O
BRANCH 58 62
ATOM     59  C1  BGC B   5      19.483 -20.286 -23.0840  0.00  0.00     0.000 C
ATOM     60  C2  BGC B   5      19.617 -18.860 -23.5770  0.00  0.00     0.000 C
ATOM     61  C3  BGC B   5      19.818 -17.910 -22.4110  0.00  0.00     0.000 C
ATOM     62  C4  BGC B   5      18.692 -18.093 -21.4070  0.00  0.00     0.000 C
ATOM     63  C5  BGC B   5      18.557 -19.570 -21.0090  0.00  0.00     0.000 C
ATOM     64  O5  BGC B   5      18.370 -20.349 -22.1860  0.00  0.00     0.000 O
ATOM     65   O  BGC B   5      16.232 -19.369 -20.7850  0.00  0.00     0.000 O
ATOM     67  HD  BGC B   5      15.613 -18.776 -20.6610  0.00  0.00     0.000 HD
ATOM     67   O  BGC B   5      16.232 -19.369 -20.7850  0.00  0.00     0.000 O
ATOM     69  HD  BGC B   5      15.613 -18.776 -20.6610  0.00  0.00     0.000 HD
ENDBRANCH 58 62
ENDBRANCH 45 58
ENDBRANCH 44 48
ENDBRANCH 31 44
ENDBRANCH 30 34
ENDBRANCH 17 30
ENDBRANCH 16 20
ENDBRANCH 1 16
TORSDOF 8
ENDMDL
MODEL 97
REMARK VINA RESULT:      -4.2     14.487     22.164
ROOT
ATOM      1  C1  BGC B   1      13.167 -13.469 -32.7890  0.00  0.00     0.000 C
ATOM      2  C2  BGC B   1      12.850 -14.815 -32.1390  0.00  0.00     0.000 C
ATOM      3  C3  BGC B   1      13.653 -15.916 -32.8040  0.00  0.00     0.000 C
ATOM      4  C4  BGC B   1      13.470 -15.881 -34.3160  0.00  0.00     0.000 C
ATOM      5  C5  BGC B   1      13.837 -14.491 -34.8130  0.00  0.00     0.000 C
ATOM      6  O5  BGC B   1      12.937 -13.558 -34.1880  0.00  0.00     0.000 O
ATOM      7   O  BGC B   1      13.188 -14.758 -30.7440  0.00  0.00     0.000 O
ATOM      9  HD  BGC B   1      13.406 -15.499 -30.3520  0.00  0.00     0.000 HD
ATOM      9   O  BGC B   1      13.240 -17.177 -32.2690  0.00  0.00     0.000 O
ATOM     11  HD  BGC B   1      13.458 -17.918 -31.8780  0.00  0.00     0.000 HD
ATOM     11   O  BGC B   1      14.307 -16.844 -34.9170  0.00  0.00     0.000 O
ATOM     13  HD  BGC B   1      14.525 -17.585 -34.5260  0.00  0.00     0.000 HD
ATOM     13   C  BGC B   1      13.751 -14.309 -36.3220  0.00  0.00     0.000 C
ATOM     14   O  BGC B   1      12.468 -14.649 -36.8370  0.00  0.00     0.000 O
ATOM     16  HD  BGC B   1      12.686 -15.390 -36.4450  0.00  0.00     0.000 HD
ENDROOT
BRANCH 1 16
ATOM     16  O4  BGC B   2      12.185 -12.553 -32.3070  0.00  0.00     0.000 O
BRANCH 16 20
ATOM     17  C1  BGC B   2      11.746  -8.647 -31.2670  0.00  0.00     0.000 C
ATOM     18  C2  BGC B   2      11.662  -8.893 -32.7670  0.00  0.00     0.000 C
ATOM     19  C3  BGC B   2      11.473 -10.390 -33.0020  0.00  0.00     0.000 C
ATOM     20  C4  BGC B   2      12.560 -11.178 -32.3000  0.00  0.00     0.000 C
ATOM     21  C5  BGC B   2      12.733 -10.758 -30.8400  0.00  0.00     0.000 C
ATOM     22  O5  BGC B   2      12.916  -9.338 -30.7920  0.00  0.00     0.000 O
ATOM     23   O  BGC B   2      10.542  -8.185 -33.3220  0.00  0.00     0.000 O
ATOM     25  HD  BGC B   2      10.680  -9.014 -33.1160  0.00  0.00     0.000 HD
ATOM     25   O  BGC B   2      11.487 -10.666 -34.3970  0.00  0.00     0.000 O
ATOM     27  HD  BGC B   2      11.626 -11.496 -34.1910  0.00  0.00     0.000 HD
ATOM     27   C  BGC B   2      13.943 -11.404 -30.1760  0.00  0.00     0.000 C
ATOM     28   O  BGC B   2      15.160 -11.155 -30.8610  0.00  0.00     0.000 O
ATOM     30  HD  BGC B   2      15.298 -11.985 -30.6540  0.00  0.00     0.000 HD
BRANCH 17 30
ATOM     30  O4  BGC B   3      12.033  -7.272 -31.0940  0.00  0.00     0.000 O
BRANCH 30 34
ATOM     31  C1  BGC B   3      11.303  -4.218 -28.4360  0.00  0.00     0.000 C
ATOM     32  C2  BGC B   3      12.311  -5.258 -27.9470  0.00  0.00     0.000 C
ATOM     33  C3  BGC B   3      12.785  -6.078 -29.1330  0.00  0.00     0.000 C
ATOM     34  C4  BGC B   3      11.591  -6.694 -29.8610  0.00  0.00     0.000 C
ATOM     35  C5  BGC B   3      10.564  -5.626 -30.1910  0.00  0.00     0.000 C
ATOM     36  O5  BGC B   3      10.207  -4.924 -28.9950  0.00  0.00     0.000 O
ATOM     37   O  BGC B   3      13.437  -4.596 -27.3750  0.00  0.00     0.000 O
ATOM     39  HD  BGC B   3      13.721  -5.363 -27.0890  0.00  0.00     0.000 HD
ATOM     39   O  BGC B   3      13.661  -7.090 -28.6590  0.00  0.00     0.000 O
ATOM     41  HD  BGC B   3      13.945  -7.856 -28.3730  0.00  0.00     0.000 HD
ATOM     41   C  BGC B   3       9.294  -6.167 -30.8380  0.00  0.00     0.000 C
ATOM     42   O  BGC B   3       8.691  -7.124 -30.0000  0.00  0.00     0.000 O
ATOM     44  HD  BGC B   3       8.975  -7.890 -29.7140  0.00  0.00     0.000 HD
BRANCH 31 44
ATOM     44  O4  BGC B   4      10.811  -3.550 -27.3020  0.00  0.00     0.000 O
BRANCH 44 48
ATOM     45  C1  BGC B   4       8.987  -0.040 -26.2270  0.00  0.00     0.000 C
ATOM     46  C2  BGC B   4       8.080  -1.041 -26.9290  0.00  0.00     0.000 C
ATOM     47  C3  BGC B   4       8.730  -2.403 -26.9180  0.00  0.00     0.000 C
ATOM     48  C4  BGC B   4      10.141  -2.324 -27.5110  0.00  0.00     0.000 C
ATOM     49  C5  BGC B   4      10.956  -1.224 -26.8180  0.00  0.00     0.000 C
ATOM     50  O5  BGC B   4      10.249   0.022 -26.8930  0.00  0.00     0.000 O
ATOM     51   O  BGC B   4       6.813  -1.120 -26.2500  0.00  0.00     0.000 O
ATOM     53  HD  BGC B   4       7.174  -1.847 -25.9500  0.00  0.00     0.000 HD
ATOM     53   O  BGC B   4       7.929  -3.304 -27.6940  0.00  0.00     0.000 O
ATOM     55  HD  BGC B   4       8.290  -4.032 -27.3940  0.00  0.00     0.000 HD
ATOM     55   C  BGC B   4      12.331  -0.992 -27.4170  0.00  0.00     0.000 C
ATOM     56   O  BGC B   4      12.161  -0.724 -28.8100  0.00  0.00     0.000 O
ATOM     58  HD  BGC B   4      12.522  -1.452 -28.5100  0.00  0.00     0.000 HD
BRANCH 45 58
ATOM     58  O4  BGC B   5       8.436   1.247 -26.5030  0.00  0.00     0.000 O
BRANCH 58 62
ATOM     59  C1  BGC B   5       7.867   4.852 -24.5460  0.00  0.00     0.000 C
ATOM     60  C2  BGC B   5       9.044   4.808 -25.4990  0.00  0.00     0.000 C
ATOM     61  C3  BGC B   5       8.918   3.632 -26.4480  0.00  0.00     0.000 C
ATOM     62  C4  BGC B   5       8.746   2.350 -25.6480  0.00  0.00     0.000 C
ATOM     63  C5  BGC B   5       7.590   2.488 -24.6470  0.00  0.00     0.000 C
ATOM     64  O5  BGC B   5       7.831   3.620 -23.8190  0.00  0.00     0.000 O
ATOM     65   O  BGC B   5       8.687   1.125 -23.0870  0.00  0.00     0.000 O
ATOM     67  HD  BGC B   5       9.303   0.519 -23.0330  0.00  0.00     0.000 HD
ATOM     67   O  BGC B   5       8.687   1.125 -23.0870  0.00  0.00     0.000 O
ATOM     69  HD  BGC B   5       9.303   0.519 -23.0330  0.00  0.00     0.000 HD
ENDBRANCH 58 62
ENDBRANCH 45 58
ENDBRANCH 44 48
ENDBRANCH 31 44
ENDBRANCH 30 34
ENDBRANCH 17 30
ENDBRANCH 16 20
ENDBRANCH 1 16
TORSDOF 8
ENDMDL
MODEL 98
REMARK VINA RESULT:      -4.1     12.836     20.922
ROOT
ATOM      1  C1  BGC B   1      17.068 -14.890 -21.2340  0.00  0.00     0.000 C
ATOM      2  C2  BGC B   1      16.296 -14.365 -22.4430  0.00  0.00     0.000 C
ATOM      3  C3  BGC B   1      16.217 -12.851 -22.3940  0.00  0.00     0.000 C
ATOM      4  C4  BGC B   1      15.683 -12.382 -21.0460  0.00  0.00     0.000 C
ATOM      5  C5  BGC B   1      16.559 -12.970 -19.9500  0.00  0.00     0.000 C
ATOM      6  O5  BGC B   1      16.462 -14.403 -20.0440  0.00  0.00     0.000 O
ATOM      7   O  BGC B   1      16.972 -14.765 -23.6460  0.00  0.00     0.000 O
ATOM      9  HD  BGC B   1      16.878 -14.264 -24.3460  0.00  0.00     0.000 HD
ATOM      9   O  BGC B   1      15.379 -12.397 -23.4610  0.00  0.00     0.000 O
ATOM     11  HD  BGC B   1      15.284 -11.896 -24.1610  0.00  0.00     0.000 HD
ATOM     11   O  BGC B   1      15.719 -10.973 -20.9870  0.00  0.00     0.000 O
ATOM     13  HD  BGC B   1      15.624 -10.472 -21.6870  0.00  0.00     0.000 HD
ATOM     13   C  BGC B   1      16.180 -12.552 -18.5360  0.00  0.00     0.000 C
ATOM     14   O  BGC B   1      14.818 -12.840 -18.2320  0.00  0.00     0.000 O
ATOM     16  HD  BGC B   1      14.724 -12.339 -18.9320  0.00  0.00     0.000 HD
ENDROOT
BRANCH 1 16
ATOM     16  O4  BGC B   2      16.857 -16.300 -21.2080  0.00  0.00     0.000 O
BRANCH 16 20
ATOM     17  C1  BGC B   2      18.749 -19.688 -19.9920  0.00  0.00     0.000 C
ATOM     18  C2  BGC B   2      19.060 -18.472 -19.1320  0.00  0.00     0.000 C
ATOM     19  C3  BGC B   2      18.039 -17.382 -19.4470  0.00  0.00     0.000 C
ATOM     20  C4  BGC B   2      18.004 -17.101 -20.9350  0.00  0.00     0.000 C
ATOM     21  C5  BGC B   2      17.880 -18.378 -21.7660  0.00  0.00     0.000 C
ATOM     22  O5  BGC B   2      18.914 -19.286 -21.3650  0.00  0.00     0.000 O
ATOM     23   O  BGC B   2      18.969 -18.815 -17.7400  0.00  0.00     0.000 O
ATOM     25  HD  BGC B   2      18.447 -18.392 -18.2850  0.00  0.00     0.000 HD
ATOM     25   O  BGC B   2      18.359 -16.196 -18.7280  0.00  0.00     0.000 O
ATOM     27  HD  BGC B   2      17.837 -15.773 -19.2740  0.00  0.00     0.000 HD
ATOM     27   C  BGC B   2      18.035 -18.131 -23.2620  0.00  0.00     0.000 C
ATOM     28   O  BGC B   2      19.254 -17.491 -23.6030  0.00  0.00     0.000 O
ATOM     30  HD  BGC B   2      18.732 -17.067 -24.1480  0.00  0.00     0.000 HD
BRANCH 17 30
ATOM     30  O4  BGC B   3      19.779 -20.630 -19.7570  0.00  0.00     0.000 O
BRANCH 30 34
ATOM     31  C1  BGC B   3      20.581 -24.561 -20.6660  0.00  0.00     0.000 C
ATOM     32  C2  BGC B   3      21.131 -23.552 -21.6740  0.00  0.00     0.000 C
ATOM     33  C3  BGC B   3      21.126 -22.172 -21.0400  0.00  0.00     0.000 C
ATOM     34  C4  BGC B   3      19.722 -21.823 -20.5450  0.00  0.00     0.000 C
ATOM     35  C5  BGC B   3      19.181 -22.936 -19.6640  0.00  0.00     0.000 C
ATOM     36  O5  BGC B   3      19.247 -24.178 -20.3720  0.00  0.00     0.000 O
ATOM     37   O  BGC B   3      22.476 -23.893 -22.0020  0.00  0.00     0.000 O
ATOM     39  HD  BGC B   3      22.456 -23.297 -22.6310  0.00  0.00     0.000 HD
ATOM     39   O  BGC B   3      21.564 -21.231 -22.0080  0.00  0.00     0.000 O
ATOM     41  HD  BGC B   3      21.544 -20.635 -22.6360  0.00  0.00     0.000 HD
ATOM     41   C  BGC B   3      17.746 -22.714 -19.1990  0.00  0.00     0.000 C
ATOM     42   O  BGC B   3      16.893 -22.566 -20.3090  0.00  0.00     0.000 O
ATOM     44  HD  BGC B   3      16.872 -21.970 -20.9370  0.00  0.00     0.000 HD
BRANCH 31 44
ATOM     44  O4  BGC B   4      20.505 -25.802 -21.3200  0.00  0.00     0.000 O
BRANCH 44 48
ATOM     45  C1  BGC B   4      19.386 -29.681 -20.6060  0.00  0.00     0.000 C
ATOM     46  C2  BGC B   4      18.238 -28.733 -20.9210  0.00  0.00     0.000 C
ATOM     47  C3  BGC B   4      18.783 -27.469 -21.5390  0.00  0.00     0.000 C
ATOM     48  C4  BGC B   4      19.860 -26.858 -20.6380  0.00  0.00     0.000 C
ATOM     49  C5  BGC B   4      20.925 -27.903 -20.2840  0.00  0.00     0.000 C
ATOM     50  O5  BGC B   4      20.298 -29.055 -19.7010  0.00  0.00     0.000 O
ATOM     51   O  BGC B   4      17.325 -29.354 -21.8460  0.00  0.00     0.000 O
ATOM     53  HD  BGC B   4      17.743 -28.830 -22.3960  0.00  0.00     0.000 HD
ATOM     53   O  BGC B   4      17.706 -26.536 -21.7090  0.00  0.00     0.000 O
ATOM     55  HD  BGC B   4      18.124 -26.012 -22.2580  0.00  0.00     0.000 HD
ATOM     55   C  BGC B   4      21.974 -27.422 -19.2980  0.00  0.00     0.000 C
ATOM     56   O  BGC B   4      21.293 -26.948 -18.1350  0.00  0.00     0.000 O
ATOM     58  HD  BGC B   4      21.711 -26.424 -18.6840  0.00  0.00     0.000 HD
BRANCH 45 58
ATOM     58  O4  BGC B   5      18.828 -30.719 -19.8020  0.00  0.00     0.000 O
BRANCH 58 62
ATOM     59  C1  BGC B   5      19.925 -34.276 -17.9870  0.00  0.00     0.000 C
ATOM     60  C2  BGC B   5      20.104 -33.032 -17.1410  0.00  0.00     0.000 C
ATOM     61  C3  BGC B   5      19.307 -31.877 -17.7160  0.00  0.00     0.000 C
ATOM     62  C4  BGC B   5      19.689 -31.671 -19.1730  0.00  0.00     0.000 C
ATOM     63  C5  BGC B   5      19.562 -32.985 -19.9570  0.00  0.00     0.000 C
ATOM     64  O5  BGC B   5      20.357 -33.980 -19.3190  0.00  0.00     0.000 O
ATOM     65   O  BGC B   5      21.380 -32.424 -21.3260  0.00  0.00     0.000 O
ATOM     67  HD  BGC B   5      21.835 -31.740 -21.6000  0.00  0.00     0.000 HD
ATOM     67   O  BGC B   5      21.380 -32.424 -21.3260  0.00  0.00     0.000 O
ATOM     69  HD  BGC B   5      21.835 -31.740 -21.6000  0.00  0.00     0.000 HD
ENDBRANCH 58 62
ENDBRANCH 45 58
ENDBRANCH 44 48
ENDBRANCH 31 44
ENDBRANCH 30 34
ENDBRANCH 17 30
ENDBRANCH 16 20
ENDBRANCH 1 16
TORSDOF 8
ENDMDL
MODEL 99
REMARK VINA RESULT:      -3.8      2.706      3.834
ROOT
ATOM      1  C1  BGC B   1      22.657   3.061 -14.1690  0.00  0.00     0.000 C
ATOM      2  C2  BGC B   1      22.811   4.419 -14.8530  0.00  0.00     0.000 C
ATOM      3  C3  BGC B   1      24.032   4.414 -15.7520  0.00  0.00     0.000 C
ATOM      4  C4  BGC B   1      25.263   3.944 -14.9880  0.00  0.00     0.000 C
ATOM      5  C5  BGC B   1      24.963   2.581 -14.3820  0.00  0.00     0.000 C
ATOM      6  O5  BGC B   1      23.857   2.747 -13.4760  0.00  0.00     0.000 O
ATOM      7   O  BGC B   1      21.641   4.686 -15.6440  0.00  0.00     0.000 O
ATOM      9  HD  BGC B   1      21.732   5.198 -16.3360  0.00  0.00     0.000 HD
ATOM      9   O  BGC B   1      24.228   5.732 -16.2740  0.00  0.00     0.000 O
ATOM     11  HD  BGC B   1      24.318   6.244 -16.9660  0.00  0.00     0.000 HD
ATOM     11   O  BGC B   1      26.360   3.847 -15.8700  0.00  0.00     0.000 O
ATOM     13  HD  BGC B   1      26.450   4.359 -16.5630  0.00  0.00     0.000 HD
ATOM     13   C  BGC B   1      26.121   1.951 -13.6210  0.00  0.00     0.000 C
ATOM     14   O  BGC B   1      26.623   2.802 -12.5960  0.00  0.00     0.000 O
ATOM     16  HD  BGC B   1      26.713   3.314 -13.2880  0.00  0.00     0.000 HD
ENDROOT
BRANCH 1 16
ATOM     16  O4  BGC B   2      21.674   3.237 -13.1510  0.00  0.00     0.000 O
BRANCH 16 20
ATOM     17  C1  BGC B   2      20.041  -0.370 -14.0770  0.00  0.00     0.000 C
ATOM     18  C2  BGC B   2      19.087   0.800 -14.2670  0.00  0.00     0.000 C
ATOM     19  C3  BGC B   2      19.897   2.094 -14.2480  0.00  0.00     0.000 C
ATOM     20  C4  BGC B   2      20.739   2.174 -12.9910  0.00  0.00     0.000 C
ATOM     21  C5  BGC B   2      21.538   0.894 -12.7420  0.00  0.00     0.000 C
ATOM     22  O5  BGC B   2      20.637  -0.220 -12.7750  0.00  0.00     0.000 O
ATOM     23   O  BGC B   2      18.411   0.686 -15.5300  0.00  0.00     0.000 O
ATOM     25  HD  BGC B   2      19.071   1.170 -15.2480  0.00  0.00     0.000 HD
ATOM     25   O  BGC B   2      19.022   3.214 -14.3270  0.00  0.00     0.000 O
ATOM     27  HD  BGC B   2      19.682   3.698 -14.0450  0.00  0.00     0.000 HD
ATOM     27   C  BGC B   2      22.240   0.885 -11.3900  0.00  0.00     0.000 C
ATOM     28   O  BGC B   2      21.357   1.081 -10.2970  0.00  0.00     0.000 O
ATOM     30  HD  BGC B   2      22.017   1.565 -10.0150  0.00  0.00     0.000 HD
BRANCH 17 30
ATOM     30  O4  BGC B   3      19.246  -1.537 -13.9860  0.00  0.00     0.000 O
BRANCH 30 34
ATOM     31  C1  BGC B   3      19.423  -5.534 -14.9440  0.00  0.00     0.000 C
ATOM     32  C2  BGC B   3      20.229  -5.142 -13.7060  0.00  0.00     0.000 C
ATOM     33  C3  BGC B   3      19.771  -3.772 -13.2360  0.00  0.00     0.000 C
ATOM     34  C4  BGC B   3      19.885  -2.758 -14.3730  0.00  0.00     0.000 C
ATOM     35  C5  BGC B   3      19.184  -3.276 -15.6160  0.00  0.00     0.000 C
ATOM     36  O5  BGC B   3      19.698  -4.570 -15.9480  0.00  0.00     0.000 O
ATOM     37   O  BGC B   3      19.985  -6.082 -12.6630  0.00  0.00     0.000 O
ATOM     39  HD  BGC B   3      20.624  -5.716 -12.2060  0.00  0.00     0.000 HD
ATOM     39   O  BGC B   3      20.577  -3.383 -12.1340  0.00  0.00     0.000 O
ATOM     41  HD  BGC B   3      21.215  -3.017 -11.6770  0.00  0.00     0.000 HD
ATOM     41   C  BGC B   3      19.326  -2.366 -16.8310  0.00  0.00     0.000 C
ATOM     42   O  BGC B   3      20.686  -2.169 -17.1340  0.00  0.00     0.000 O
ATOM     44  HD  BGC B   3      21.325  -1.803 -16.6780  0.00  0.00     0.000 HD
BRANCH 31 44
ATOM     44  O4  BGC B   4      19.943  -6.753 -15.4090  0.00  0.00     0.000 O
BRANCH 44 48
ATOM     45  C1  BGC B   4      18.952  -9.885 -17.8620  0.00  0.00     0.000 C
ATOM     46  C2  BGC B   4      19.433  -8.635 -18.5860  0.00  0.00     0.000 C
ATOM     47  C3  BGC B   4      20.126  -7.721 -17.6050  0.00  0.00     0.000 C
ATOM     48  C4  BGC B   4      19.212  -7.431 -16.4110  0.00  0.00     0.000 C
ATOM     49  C5  BGC B   4      18.690  -8.738 -15.8020  0.00  0.00     0.000 C
ATOM     50  O5  BGC B   4      18.048  -9.523 -16.8170  0.00  0.00     0.000 O
ATOM     51   O  BGC B   4      20.358  -8.994 -19.6290  0.00  0.00     0.000 O
ATOM     53  HD  BGC B   4      20.923  -8.716 -19.0350  0.00  0.00     0.000 HD
ATOM     53   O  BGC B   4      20.457  -6.494 -18.2710  0.00  0.00     0.000 O
ATOM     55  HD  BGC B   4      21.021  -6.215 -17.6770  0.00  0.00     0.000 HD
ATOM     55   C  BGC B   4      17.682  -8.550 -14.6820  0.00  0.00     0.000 C
ATOM     56   O  BGC B   4      16.618  -7.740 -15.1850  0.00  0.00     0.000 O
ATOM     58  HD  BGC B   4      17.183  -7.462 -14.5910  0.00  0.00     0.000 HD
BRANCH 45 58
ATOM     58  O4  BGC B   5      18.096 -10.564 -18.7800  0.00  0.00     0.000 O
BRANCH 58 62
ATOM     59  C1  BGC B   5      16.120 -14.176 -19.2170  0.00  0.00     0.000 C
ATOM     60  C2  BGC B   5      15.341 -13.092 -18.5010  0.00  0.00     0.000 C
ATOM     61  C3  BGC B   5      15.961 -11.732 -18.7590  0.00  0.00     0.000 C
ATOM     62  C4  BGC B   5      17.433 -11.764 -18.3780  0.00  0.00     0.000 C
ATOM     63  C5  BGC B   5      18.146 -12.932 -19.0740  0.00  0.00     0.000 C
ATOM     64  O5  BGC B   5      17.472 -14.143 -18.7490  0.00  0.00     0.000 O
ATOM     65   O  BGC B   5      19.571 -13.245 -17.2380  0.00  0.00     0.000 O
ATOM     67  HD  BGC B   5      19.886 -12.829 -16.5480  0.00  0.00     0.000 HD
ATOM     67   O  BGC B   5      19.571 -13.245 -17.2380  0.00  0.00     0.000 O
ATOM     69  HD  BGC B   5      19.886 -12.829 -16.5480  0.00  0.00     0.000 HD
ENDBRANCH 58 62
ENDBRANCH 45 58
ENDBRANCH 44 48
ENDBRANCH 31 44
ENDBRANCH 30 34
ENDBRANCH 17 30
ENDBRANCH 16 20
ENDBRANCH 1 16
TORSDOF 8
ENDMDL
MODEL 100
REMARK VINA RESULT:      -2.6      2.379      3.820
ROOT
ATOM      1  C1  BGC B   1      19.388   6.459 -13.5010  0.00  0.00     0.000 C
ATOM      2  C2  BGC B   1      18.835   7.884 -13.5110  0.00  0.00     0.000 C
ATOM      3  C3  BGC B   1      18.852   8.440 -14.9220  0.00  0.00     0.000 C
ATOM      4  C4  BGC B   1      20.235   8.290 -15.5440  0.00  0.00     0.000 C
ATOM      5  C5  BGC B   1      20.639   6.824 -15.4750  0.00  0.00     0.000 C
ATOM      6  O5  BGC B   1      20.684   6.455 -14.0840  0.00  0.00     0.000 O
ATOM      7   O  BGC B   1      17.483   7.870 -13.0240  0.00  0.00     0.000 O
ATOM      9  HD  BGC B   1      16.948   8.491 -13.3040  0.00  0.00     0.000 HD
ATOM      9   O  BGC B   1      18.458   9.814 -14.8830  0.00  0.00     0.000 O
ATOM     11  HD  BGC B   1      17.923  10.435 -15.1630  0.00  0.00     0.000 HD
ATOM     11   O  BGC B   1      20.199   8.716 -16.8890  0.00  0.00     0.000 O
ATOM     13  HD  BGC B   1      19.664   9.336 -17.1690  0.00  0.00     0.000 HD
ATOM     13   C  BGC B   1      21.986   6.502 -16.1040  0.00  0.00     0.000 C
ATOM     14   O  BGC B   1      23.041   7.288 -15.5590  0.00  0.00     0.000 O
ATOM     16  HD  BGC B   1      22.506   7.909 -15.8390  0.00  0.00     0.000 HD
ENDROOT
BRANCH 1 16
ATOM     16  O4  BGC B   2      19.595   6.122 -12.1310  0.00  0.00     0.000 O
BRANCH 16 20
ATOM     17  C1  BGC B   2      18.649   2.242 -12.8990  0.00  0.00     0.000 C
ATOM     18  C2  BGC B   2      17.590   2.982 -12.0940  0.00  0.00     0.000 C
ATOM     19  C3  BGC B   2      17.872   4.480 -12.1840  0.00  0.00     0.000 C
ATOM     20  C4  BGC B   2      19.296   4.778 -11.7630  0.00  0.00     0.000 C
ATOM     21  C5  BGC B   2      20.312   3.875 -12.4640  0.00  0.00     0.000 C
ATOM     22  O5  BGC B   2      19.917   2.510 -12.2720  0.00  0.00     0.000 O
ATOM     23   O  BGC B   2      16.285   2.715 -12.6320  0.00  0.00     0.000 O
ATOM     25  HD  BGC B   2      16.826   3.390 -12.6850  0.00  0.00     0.000 HD
ATOM     25   O  BGC B   2      16.955   5.195 -11.3640  0.00  0.00     0.000 O
ATOM     27  HD  BGC B   2      17.496   5.869 -11.4170  0.00  0.00     0.000 HD
ATOM     27   C  BGC B   2      21.724   4.031 -11.9140  0.00  0.00     0.000 C
ATOM     28   O  BGC B   2      21.812   3.804 -10.5170  0.00  0.00     0.000 O
ATOM     30  HD  BGC B   2      22.353   4.478 -10.5700  0.00  0.00     0.000 HD
BRANCH 17 30
ATOM     30  O4  BGC B   3      18.423   0.860 -12.6990  0.00  0.00     0.000 O
BRANCH 30 34
ATOM     31  C1  BGC B   3      19.364  -2.754 -14.4260  0.00  0.00     0.000 C
ATOM     32  C2  BGC B   3      20.508  -2.105 -13.6480  0.00  0.00     0.000 C
ATOM     33  C3  BGC B   3      19.939  -1.020 -12.7510  0.00  0.00     0.000 C
ATOM     34  C4  BGC B   3      19.133  -0.020 -13.5770  0.00  0.00     0.000 C
ATOM     35  C5  BGC B   3      18.110  -0.745 -14.4340  0.00  0.00     0.000 C
ATOM     36  O5  BGC B   3      18.769  -1.741 -15.2230  0.00  0.00     0.000 O
ATOM     37   O  BGC B   3      21.140  -3.085 -12.8270  0.00  0.00     0.000 O
ATOM     39  HD  BGC B   3      21.765  -2.511 -12.6520  0.00  0.00     0.000 HD
ATOM     39   O  BGC B   3      21.016  -0.372 -12.0900  0.00  0.00     0.000 O
ATOM     41  HD  BGC B   3      21.641   0.201 -11.9150  0.00  0.00     0.000 HD
ATOM     41   C  BGC B   3      17.319   0.170 -15.3630  0.00  0.00     0.000 C
ATOM     42   O  BGC B   3      18.195   0.874 -16.2110  0.00  0.00     0.000 O
ATOM     44  HD  BGC B   3      18.819   1.448 -16.0360  0.00  0.00     0.000 HD
BRANCH 31 44
ATOM     44  O4  BGC B   4      19.937  -3.677 -15.3170  0.00  0.00     0.000 O
BRANCH 44 48
ATOM     45  C1  BGC B   4      18.897  -6.817 -17.7370  0.00  0.00     0.000 C
ATOM     46  C2  BGC B   4      18.523  -5.444 -18.2780  0.00  0.00     0.000 C
ATOM     47  C3  BGC B   4      19.285  -4.382 -17.5240  0.00  0.00     0.000 C
ATOM     48  C4  BGC B   4      19.060  -4.536 -16.0160  0.00  0.00     0.000 C
ATOM     49  C5  BGC B   4      19.361  -5.972 -15.5700  0.00  0.00     0.000 C
ATOM     50  O5  BGC B   4      18.582  -6.894 -16.3460  0.00  0.00     0.000 O
ATOM     51   O  BGC B   4      18.855  -5.357 -19.6760  0.00  0.00     0.000 O
ATOM     53  HD  BGC B   4      19.520  -4.909 -19.3490  0.00  0.00     0.000 HD
ATOM     53   O  BGC B   4      18.826  -3.092 -17.9530  0.00  0.00     0.000 O
ATOM     55  HD  BGC B   4      19.491  -2.644 -17.6260  0.00  0.00     0.000 HD
ATOM     55   C  BGC B   4      19.055  -6.252 -14.1090  0.00  0.00     0.000 C
ATOM     56   O  BGC B   4      17.690  -5.901 -13.8750  0.00  0.00     0.000 O
ATOM     58  HD  BGC B   4      18.355  -5.453 -13.5480  0.00  0.00     0.000 HD
BRANCH 45 58
ATOM     58  O4  BGC B   5      17.961  -7.731 -18.3090  0.00  0.00     0.000 O
BRANCH 58 62
ATOM     59  C1  BGC B   5      17.658 -11.698 -19.4570  0.00  0.00     0.000 C
ATOM     60  C2  BGC B   5      18.513 -11.439 -18.2330  0.00  0.00     0.000 C
ATOM     61  C3  BGC B   5      18.226 -10.062 -17.6640  0.00  0.00     0.000 C
ATOM     62  C4  BGC B   5      18.404  -9.016 -18.7520  0.00  0.00     0.000 C
ATOM     63  C5  BGC B   5      17.575  -9.378 -19.9930  0.00  0.00     0.000 C
ATOM     64  O5  BGC B   5      17.942 -10.684 -20.4260  0.00  0.00     0.000 O
ATOM     65   O  BGC B   5      19.189  -8.461 -21.4240  0.00  0.00     0.000 O
ATOM     67  HD  BGC B   5      19.846  -7.897 -21.4300  0.00  0.00     0.000 HD
ATOM     67   O  BGC B   5      19.189  -8.461 -21.4240  0.00  0.00     0.000 O
ATOM     69  HD  BGC B   5      19.846  -7.897 -21.4300  0.00  0.00     0.000 HD
ENDBRANCH 58 62
ENDBRANCH 45 58
ENDBRANCH 44 48
ENDBRANCH 31 44
ENDBRANCH 30 34
ENDBRANCH 17 30
ENDBRANCH 16 20
ENDBRANCH 1 16
TORSDOF 8
ENDMDL
