ROOT
ATOM      1  C1  BGC C   1      17.880  10.240   -9.910  0.00  0.00     0.000 C
ATOM      2  C2  BGC C   1      17.360  10.983   -8.680  0.00  0.00     0.000 C
ATOM      3  C3  BGC C   1      17.150  12.456   -9.010  0.00  0.00     0.000 C
ATOM      4  C4  BGC C   1      18.370  13.077   -9.670  0.00  0.00     0.000 C
ATOM      5  C5  BGC C   1      18.890  12.168  -10.780  0.00  0.00     0.000 C
ATOM      6  O5  BGC C   1      19.020  10.835  -10.400  0.00  0.00     0.000 O
ATOM      7   O  BGC C   1      16.140  10.386   -8.310  0.00  0.00     0.000 O
ATOM      9  HD  BGC C   1      16.640  10.886   -7.810  0.00  0.00     0.000 HD
ATOM      9   O  BGC C   1      16.790  13.136   -7.800  0.00  0.00     0.000 O
ATOM     11  HD  BGC C   1      17.290  13.636   -7.300  0.00  0.00     0.000 HD
ATOM     11   O  BGC C   1      17.960  14.337  -10.190  0.00  0.00     0.000 O
ATOM     13  HD  BGC C   1      18.460  14.837   -9.690  0.00  0.00     0.000 HD
ATOM     13   O  BGC C   1      21.270  12.505  -10.180  0.00  0.00     0.000 O
ATOM     15  HD  BGC C   1      21.770  13.005   -9.680  0.00  0.00     0.000 HD
ATOM     15   C  BGC C   1      20.270  12.690  -11.220  0.00  0.00     0.000 C
ENDROOT
BRANCH 1 16
ATOM     16  O4  BGC C   2      18.230   8.930   -9.530  0.00  0.00     0.000 O
BRANCH 16 20
ATOM     17  C1  BGC C   2      18.950   5.331  -11.320  0.00  0.00     0.000 C
ATOM     18  C2  BGC C   2      20.080   6.346  -11.390  0.00  0.00     0.000 C
ATOM     19  C3  BGC C   2      19.850   7.479  -10.400  0.00  0.00     0.000 C
ATOM     20  C4  BGC C   2      18.480   8.038  -10.590  0.00  0.00     0.000 C
ATOM     21  C5  BGC C   2      17.430   6.931  -10.580  0.00  0.00     0.000 C
ATOM     22  O5  BGC C   2      17.720   5.960  -11.540  0.00  0.00     0.000 O
ATOM     23   O  BGC C   2      21.320   5.679  -11.110  0.00  0.00     0.000 O
ATOM     25  HD  BGC C   2      21.820   6.179  -10.610  0.00  0.00     0.000 HD
ATOM     25   O  BGC C   2      20.820   8.496  -10.620  0.00  0.00     0.000 O
ATOM     27  HD  BGC C   2      21.320   8.996  -10.120  0.00  0.00     0.000 HD
ATOM     27   C  BGC C   2      15.980   7.414  -10.790  0.00  0.00     0.000 C
ATOM     28   O  BGC C   2      15.860   8.195  -11.990  0.00  0.00     0.000 O
ATOM     30  HD  BGC C   2      16.360   8.695  -11.490  0.00  0.00     0.000 HD
BRANCH 17 30
ATOM     30  O4  BGC C   3      19.140   4.353  -12.320  0.00  0.00     0.000 O
BRANCH 30 34
ATOM     31  C1  BGC C   3      18.070   0.583  -13.310  0.00  0.00     0.000 C
ATOM     32  C2  BGC C   3      16.910   1.600  -13.190  0.00  0.00     0.000 C
ATOM     33  C3  BGC C   3      17.420   2.999  -13.170  0.00  0.00     0.000 C
ATOM     34  C4  BGC C   3      18.510   3.100  -12.100  0.00  0.00     0.000 C
ATOM     35  C5  BGC C   3      19.580   1.982  -12.190  0.00  0.00     0.000 C
ATOM     36  O5  BGC C   3      18.960   0.721  -12.230  0.00  0.00     0.000 O
ATOM     37   O  BGC C   3      15.880   1.562  -14.160  0.00  0.00     0.000 O
ATOM     39  HD  BGC C   3      16.380   2.062  -13.660  0.00  0.00     0.000 HD
ATOM     39   O  BGC C   3      16.330   3.929  -12.900  0.00  0.00     0.000 O
ATOM     41  HD  BGC C   3      16.830   4.429  -12.400  0.00  0.00     0.000 HD
ATOM     41   C  BGC C   3      20.590   1.945  -11.020  0.00  0.00     0.000 C
ATOM     42   O  BGC C   3      20.010   1.645   -9.700  0.00  0.00     0.000 O
ATOM     44  HD  BGC C   3      20.510   2.145   -9.200  0.00  0.00     0.000 HD
BRANCH 31 44
ATOM     44  O4  BGC C   4      17.590  -0.720  -13.330  0.00  0.00     0.000 O
BRANCH 44 48
ATOM     45  C1  BGC C   4      18.470  -4.575  -14.390  0.00  0.00     0.000 C
ATOM     46  C2  BGC C   4      19.540  -3.996  -13.410  0.00  0.00     0.000 C
ATOM     47  C3  BGC C   4      18.860  -2.711  -12.920  0.00  0.00     0.000 C
ATOM     48  C4  BGC C   4      18.310  -1.744  -13.950  0.00  0.00     0.000 C
ATOM     49  C5  BGC C   4      17.300  -2.542  -14.790  0.00  0.00     0.000 C
ATOM     50  O5  BGC C   4      17.890  -3.668  -15.340  0.00  0.00     0.000 O
ATOM     51   O  BGC C   4      20.040  -4.759  -12.170  0.00  0.00     0.000 O
ATOM     53  HD  BGC C   4      20.540  -4.259  -11.670  0.00  0.00     0.000 HD
ATOM     53   O  BGC C   4      20.050  -1.997  -12.340  0.00  0.00     0.000 O
ATOM     55  HD  BGC C   4      20.550  -1.497  -11.840  0.00  0.00     0.000 HD
ATOM     55   C  BGC C   4      16.800  -1.735  -15.960  0.00  0.00     0.000 C
ATOM     56   O  BGC C   4      17.810  -1.228  -16.840  0.00  0.00     0.000 O
ATOM     58  HD  BGC C   4      18.310  -0.728  -16.340  0.00  0.00     0.000 HD
BRANCH 45 58
ATOM     58  O4  BGC C   5      18.970  -5.635  -15.150  0.00  0.00     0.000 O
BRANCH 58 62
ATOM     59  C1  BGC C   5      19.810  -8.456  -15.980  0.00  0.00     0.000 C
ATOM     60  C2  BGC C   5      19.480  -7.752  -17.200  0.00  0.00     0.000 C
ATOM     61  C3  BGC C   5      18.190  -6.941  -17.110  0.00  0.00     0.000 C
ATOM     62  C4  BGC C   5      17.960  -6.540  -15.660  0.00  0.00     0.000 C
ATOM     63  C5  BGC C   5      18.220  -7.762  -14.810  0.00  0.00     0.000 C
ATOM     64  O5  BGC C   5      18.910  -8.862  -15.400  0.00  0.00     0.000 O
ATOM     65   O  BGC C   5      16.040  -8.746  -15.150  0.00  0.00     0.000 O
ATOM     67  HD  BGC C   5      16.540  -8.246  -14.650  0.00  0.00     0.000 HD
ATOM     67   O  BGC C   5      16.040  -8.746  -15.150  0.00  0.00     0.000 O
ATOM     69  HD  BGC C   5      16.540  -8.246  -14.650  0.00  0.00     0.000 HD
ENDBRANCH 58 62
ENDBRANCH 45 58
ENDBRANCH 44 48
ENDBRANCH 31 44
ENDBRANCH 30 34
ENDBRANCH 17 30
ENDBRANCH 16 20
ENDBRANCH 1 16
TORSDOF 8