MODEL 1
REMARK VINA RESULT:      -7.1      0.000      0.000
ROOT
ATOM      1  C1  A00 X   1      13.647   6.278  32.9480  0.00  0.00     0.000 C
ATOM      2  C2  A00 X   1      14.883   7.215  32.9980  0.00  0.00     0.000 C
ATOM      3  C3  A00 X   1      14.582   8.750  32.9920  0.00  0.00     0.000 C
ATOM      4  C4  A00 X   1      13.143   9.148  32.5710  0.00  0.00     0.000 C
ATOM      5  C5  A00 X   1      12.466   8.061  31.7350  0.00  0.00     0.000 C
ATOM      6  O5  A00 X   1      12.390   6.916  32.6140  0.00  0.00     0.000 O
ATOM      7   O  A00 X   1      15.463   9.386  32.0700  0.00  0.00     0.000 O
ATOM      9  HD  A00 X   1      14.683   9.749  31.9680  0.00  0.00     0.000 HD
ATOM      9   O  A00 X   1      12.334   9.458  33.7050  0.00  0.00     0.000 O
ATOM     11  HD  A00 X   1      11.554   9.821  33.6040  0.00  0.00     0.000 HD
ENDROOT
BRANCH 2 11
ATOM     11   O  A00 X   1      15.633   6.889  34.1840  0.00  0.00     0.000 O
ATOM     12   O  A00 X   1      17.245   8.401  35.1230  0.00  0.00     0.000 OA
ATOM     13   O  A00 X   1      17.631   7.476  32.9070  0.00  0.00     0.000 OA
ATOM     14   O  A00 X   1      17.725   6.078  34.8300  0.00  0.00     0.000 OA
ATOM     15   S  A00 X   1      17.154   7.262  34.2460  0.00  0.00     0.000 S
ENDBRANCH 2 11
BRANCH 5 16
ATOM     16   C  A00 X   1      13.141   7.761  30.3930  0.00  0.00     0.000 C
ATOM     17   O  A00 X   1      12.867   6.724  29.8240  0.00  0.00     0.000 OA
ATOM     18   O  A00 X   1      13.933   8.524  29.8770  0.00  0.00     0.000 OA
ENDBRANCH 5 16
BRANCH 1 19
ATOM     19  O4  A00 X   2      13.871   5.097  32.1390  0.00  0.00     0.000 O
BRANCH 19 23
ATOM     20  C1  A00 X   2      12.642   2.408  35.2410  0.00  0.00     0.000 C
ATOM     21  C2  A00 X   2      14.155   2.489  34.9230  0.00  0.00     0.000 C
ATOM     22  C3  A00 X   2      14.481   3.769  34.1260  0.00  0.00     0.000 C
ATOM     23  C4  A00 X   2      13.597   3.863  32.8630  0.00  0.00     0.000 C
ATOM     24  C5  A00 X   2      12.114   3.752  33.3110  0.00  0.00     0.000 C
ATOM     25  O5  A00 X   2      11.923   2.478  33.9810  0.00  0.00     0.000 O
ATOM     26   O  A00 X   2      15.902   3.832  33.9170  0.00  0.00     0.000 O
ATOM     28  HD  A00 X   2      15.944   3.021  33.6140  0.00  0.00     0.000 HD
BRANCH 21 30
ATOM     28   N  A00 X   2      15.351   2.717  35.7400  0.00  0.00     0.000 N
ATOM     30  HD  A00 X   2      15.178   1.870  35.7800  0.00  0.00     0.000 HD
ATOM     30   O  A00 X   2      16.379   0.653  36.1180  0.00  0.00     0.000 OA
ATOM     31   S  A00 X   2      15.716   1.665  36.8620  0.00  0.00     0.000 S
ATOM     32   O  A00 X   2      16.552   2.402  37.7580  0.00  0.00     0.000 OA
ATOM     33   O  A00 X   2      14.493   1.298  37.5110  0.00  0.00     0.000 OA
ENDBRANCH 21 30
BRANCH 24 34
ATOM     34   C  A00 X   2      11.015   4.047  32.2640  0.00  0.00     0.000 C
ATOM     35   O  A00 X   2       8.041   1.999  31.7950  0.00  0.00     0.000 OA
ATOM     36   O  A00 X   2      10.163   2.902  32.0640  0.00  0.00     0.000 O
ATOM     37   O  A00 X   2       8.664   2.971  33.8590  0.00  0.00     0.000 OA
ATOM     38   S  A00 X   2       8.650   3.118  32.4360  0.00  0.00     0.000 S
ATOM     39   O  A00 X   2       8.282   4.396  31.9050  0.00  0.00     0.000 OA
ENDBRANCH 24 34
BRANCH 20 40
ATOM     40  O4  A00 X   3      12.348   3.572  36.0260  0.00  0.00     0.000 O
BRANCH 40 44
ATOM     41  C1  A00 X   3      10.872   6.368  37.7950  0.00  0.00     0.000 C
ATOM     42  C2  A00 X   3      12.147   5.620  38.2400  0.00  0.00     0.000 C
ATOM     43  C3  A00 X   3      11.909   4.088  38.2760  0.00  0.00     0.000 C
ATOM     44  C4  A00 X   3      11.290   3.514  37.0070  0.00  0.00     0.000 C
ATOM     45  C5  A00 X   3      10.012   4.314  36.6290  0.00  0.00     0.000 C
ATOM     46  O5  A00 X   3      10.281   5.753  36.6170  0.00  0.00     0.000 O
ATOM     47   O  A00 X   3      12.995   3.300  38.7570  0.00  0.00     0.000 O
ATOM     49  HD  A00 X   3      12.740   2.766  38.1240  0.00  0.00     0.000 HD
BRANCH 42 49
ATOM     49   O  A00 X   3      13.191   5.970  37.3040  0.00  0.00     0.000 O
ATOM     50   O  A00 X   3      15.518   5.475  37.0390  0.00  0.00     0.000 OA
ATOM     51   O  A00 X   3      14.686   5.927  39.2060  0.00  0.00     0.000 OA
ATOM     52   O  A00 X   3      14.753   7.691  37.6340  0.00  0.00     0.000 OA
ATOM     53   S  A00 X   3      14.628   6.285  37.8110  0.00  0.00     0.000 S
ENDBRANCH 42 49
BRANCH 45 54
ATOM     54   C  A00 X   3       8.820   3.930  37.5130  0.00  0.00     0.000 C
ATOM     55   O  A00 X   3       8.995   3.466  38.6210  0.00  0.00     0.000 OA
ATOM     56   O  A00 X   3       7.674   4.083  37.1180  0.00  0.00     0.000 OA
ENDBRANCH 45 54
BRANCH 41 57
ATOM     57  O4  A00 X   4       9.947   6.544  38.8920  0.00  0.00     0.000 O
BRANCH 57 61
ATOM     58  C1  A00 X   4       6.539   9.150  39.3750  0.00  0.00     0.000 C
ATOM     59  C2  A00 X   4       6.290   7.659  39.0360  0.00  0.00     0.000 C
ATOM     60  C3  A00 X   4       7.531   6.766  39.2420  0.00  0.00     0.000 C
ATOM     61  C4  A00 X   4       8.792   7.380  38.5980  0.00  0.00     0.000 C
ATOM     62  C5  A00 X   4       8.968   8.781  39.2350  0.00  0.00     0.000 C
ATOM     63  O5  A00 X   4       7.824   9.607  38.8960  0.00  0.00     0.000 O
BRANCH 59 66
ATOM     64   N  A00 X   4       5.316   6.552  39.0470  0.00  0.00     0.000 N
ATOM     66  HD  A00 X   4       5.419   5.923  38.4600  0.00  0.00     0.000 HD
ATOM     66   O  A00 X   4       3.681   8.115  38.2210  0.00  0.00     0.000 OA
ATOM     67   S  A00 X   4       3.759   6.913  38.9900  0.00  0.00     0.000 S
ATOM     68   O  A00 X   4       3.244   5.737  38.3500  0.00  0.00     0.000 OA
ATOM     69   O  A00 X   4       3.466   6.995  40.3930  0.00  0.00     0.000 OA
ENDBRANCH 59 66
BRANCH 62 70
ATOM     70   C  A00 X   4      10.255   9.519  38.7920  0.00  0.00     0.000 C
ATOM     71   O  A00 X   4      10.864  11.370  35.7410  0.00  0.00     0.000 OA
ATOM     72   O  A00 X   4      12.137   9.696  36.8000  0.00  0.00     0.000 OA
ATOM     73   O  A00 X   4       9.969  10.319  37.6340  0.00  0.00     0.000 O
ATOM     74   O  A00 X   4      10.123   9.082  35.5720  0.00  0.00     0.000 OA
ATOM     75   S  A00 X   4      10.817  10.066  36.3390  0.00  0.00     0.000 S
ENDBRANCH 62 70
ENDBRANCH 57 61
ENDBRANCH 41 57
ENDBRANCH 40 44
ENDBRANCH 20 40
ENDBRANCH 19 23
ENDBRANCH 1 19
TORSDOF 14
ENDMDL
MODEL 2
REMARK VINA RESULT:      -6.4      1.831      2.317
ROOT
ATOM      1  C1  A00 X   1      13.485   6.176  32.9890  0.00  0.00     0.000 C
ATOM      2  C2  A00 X   1      14.716   7.118  33.0790  0.00  0.00     0.000 C
ATOM      3  C3  A00 X   1      14.407   8.652  33.0990  0.00  0.00     0.000 C
ATOM      4  C4  A00 X   1      12.974   9.051  32.6620  0.00  0.00     0.000 C
ATOM      5  C5  A00 X   1      12.315   7.980  31.7940  0.00  0.00     0.000 C
ATOM      6  O5  A00 X   1      12.231   6.816  32.6470  0.00  0.00     0.000 O
ATOM      7   O  A00 X   1      15.301   9.310  32.2040  0.00  0.00     0.000 O
ATOM      9  HD  A00 X   1      14.521   9.671  32.0970  0.00  0.00     0.000 HD
ATOM      9   O  A00 X   1      12.145   9.335  33.7890  0.00  0.00     0.000 O
ATOM     11  HD  A00 X   1      11.365   9.696  33.6820  0.00  0.00     0.000 HD
ENDROOT
BRANCH 2 11
ATOM     11   O  A00 X   1      15.448   6.771  34.2700  0.00  0.00     0.000 O
ATOM     12   O  A00 X   1      17.074   8.249  35.2370  0.00  0.00     0.000 OA
ATOM     13   O  A00 X   1      17.468   7.334  33.0180  0.00  0.00     0.000 OA
ATOM     14   O  A00 X   1      17.519   5.921  34.9310  0.00  0.00     0.000 OA
ATOM     15   S  A00 X   1      16.974   7.118  34.3500  0.00  0.00     0.000 S
ENDBRANCH 2 11
BRANCH 5 16
ATOM     16   C  A00 X   1      13.014   7.709  30.4570  0.00  0.00     0.000 C
ATOM     17   O  A00 X   1      12.789   6.663  29.8850  0.00  0.00     0.000 OA
ATOM     18   O  A00 X   1      13.777   8.506  29.9480  0.00  0.00     0.000 OA
ENDBRANCH 5 16
BRANCH 1 19
ATOM     19  O4  A00 X   2      13.728   5.014  32.1590  0.00  0.00     0.000 O
BRANCH 19 23
ATOM     20  C1  A00 X   2      12.457   2.260  35.1870  0.00  0.00     0.000 C
ATOM     21  C2  A00 X   2      13.968   2.311  34.8560  0.00  0.00     0.000 C
ATOM     22  C3  A00 X   2      14.321   3.607  34.0970  0.00  0.00     0.000 C
ATOM     23  C4  A00 X   2      13.428   3.765  32.8460  0.00  0.00     0.000 C
ATOM     24  C5  A00 X   2      11.947   3.678  33.3070  0.00  0.00     0.000 C
ATOM     25  O5  A00 X   2      11.728   2.389  33.9370  0.00  0.00     0.000 O
ATOM     26   O  A00 X   2      15.741   3.639  33.8750  0.00  0.00     0.000 O
ATOM     28  HD  A00 X   2      15.759   2.838  33.5470  0.00  0.00     0.000 HD
BRANCH 21 30
ATOM     28   N  A00 X   2      15.082   2.449  35.7990  0.00  0.00     0.000 N
ATOM     30  HD  A00 X   2      14.939   1.601  35.7030  0.00  0.00     0.000 HD
ATOM     30   O  A00 X   2      16.153   0.380  35.9690  0.00  0.00     0.000 OA
ATOM     31   S  A00 X   2      15.393   1.256  36.7880  0.00  0.00     0.000 S
ATOM     32   O  A00 X   2      16.123   1.876  37.8490  0.00  0.00     0.000 OA
ATOM     33   O  A00 X   2      14.135   0.766  37.2680  0.00  0.00     0.000 OA
ENDBRANCH 21 30
BRANCH 24 34
ATOM     34   C  A00 X   2      10.846   4.036  32.2810  0.00  0.00     0.000 C
ATOM     35   O  A00 X   2       7.764   2.145  31.8520  0.00  0.00     0.000 OA
ATOM     36   O  A00 X   2       9.933   2.936  32.0890  0.00  0.00     0.000 O
ATOM     37   O  A00 X   2       8.472   3.070  33.9110  0.00  0.00     0.000 OA
ATOM     38   S  A00 X   2       8.440   3.227  32.4890  0.00  0.00     0.000 S
ATOM     39   O  A00 X   2       8.128   4.526  31.9710  0.00  0.00     0.000 OA
ENDBRANCH 24 34
BRANCH 20 40
ATOM     40  O4  A00 X   3      12.201   3.405  36.0120  0.00  0.00     0.000 O
BRANCH 40 44
ATOM     41  C1  A00 X   3      10.923   6.158  37.9910  0.00  0.00     0.000 C
ATOM     42  C2  A00 X   3      12.146   5.295  38.3690  0.00  0.00     0.000 C
ATOM     43  C3  A00 X   3      11.805   3.784  38.2960  0.00  0.00     0.000 C
ATOM     44  C4  A00 X   3      11.145   3.347  36.9950  0.00  0.00     0.000 C
ATOM     45  C5  A00 X   3       9.923   4.256  36.6850  0.00  0.00     0.000 C
ATOM     46  O5  A00 X   3      10.288   5.672  36.7760  0.00  0.00     0.000 O
ATOM     47   O  A00 X   3      12.837   2.891  38.7100  0.00  0.00     0.000 O
ATOM     49  HD  A00 X   3      12.545   2.424  38.0420  0.00  0.00     0.000 HD
BRANCH 42 49
ATOM     49   O  A00 X   3      13.208   5.641  37.4530  0.00  0.00     0.000 O
ATOM     50   O  A00 X   3      15.492   5.003  37.1270  0.00  0.00     0.000 OA
ATOM     51   O  A00 X   3      14.705   5.341  39.3310  0.00  0.00     0.000 OA
ATOM     52   O  A00 X   3      14.893   7.214  37.9010  0.00  0.00     0.000 OA
ATOM     53   S  A00 X   3      14.667   5.811  37.9680  0.00  0.00     0.000 S
ENDBRANCH 42 49
BRANCH 45 54
ATOM     54   C  A00 X   3       8.710   3.890  37.5480  0.00  0.00     0.000 C
ATOM     55   O  A00 X   3       8.855   3.312  38.6060  0.00  0.00     0.000 OA
ATOM     56   O  A00 X   3       7.578   4.171  37.1870  0.00  0.00     0.000 OA
ENDBRANCH 45 54
BRANCH 41 57
ATOM     57  O4  A00 X   4      10.016   6.315  39.1050  0.00  0.00     0.000 O
BRANCH 57 61
ATOM     58  C1  A00 X   4       7.148   9.388  40.0910  0.00  0.00     0.000 C
ATOM     59  C2  A00 X   4       7.094   8.749  38.6810  0.00  0.00     0.000 C
ATOM     60  C3  A00 X   4       7.906   7.443  38.5660  0.00  0.00     0.000 C
ATOM     61  C4  A00 X   4       9.323   7.594  39.1610  0.00  0.00     0.000 C
ATOM     62  C5  A00 X   4       9.132   8.036  40.6340  0.00  0.00     0.000 C
ATOM     63  O5  A00 X   4       8.475   9.329  40.6630  0.00  0.00     0.000 O
BRANCH 59 66
ATOM     64   N  A00 X   4       6.143   8.469  37.5900  0.00  0.00     0.000 N
ATOM     66  HD  A00 X   4       6.472   8.281  36.8110  0.00  0.00     0.000 HD
ATOM     66   O  A00 X   4       5.560  10.805  37.6340  0.00  0.00     0.000 OA
ATOM     67   S  A00 X   4       4.990   9.539  37.2980  0.00  0.00     0.000 S
ATOM     68   O  A00 X   4       4.774   9.311  35.8990  0.00  0.00     0.000 OA
ATOM     69   O  A00 X   4       3.950   9.027  38.1450  0.00  0.00     0.000 OA
ENDBRANCH 59 66
BRANCH 62 70
ATOM     70   C  A00 X   4      10.450   8.136  41.4390  0.00  0.00     0.000 C
ATOM     71   O  A00 X   4      10.895   8.755  44.9780  0.00  0.00     0.000 OA
ATOM     72   O  A00 X   4      11.913   9.756  43.1050  0.00  0.00     0.000 OA
ATOM     73   O  A00 X   4      10.148   8.143  42.8440  0.00  0.00     0.000 O
ATOM     74   O  A00 X   4       9.618  10.338  43.6830  0.00  0.00     0.000 OA
ATOM     75   S  A00 X   4      10.655   9.357  43.6970  0.00  0.00     0.000 S
ENDBRANCH 62 70
ENDBRANCH 57 61
ENDBRANCH 41 57
ENDBRANCH 40 44
ENDBRANCH 20 40
ENDBRANCH 19 23
ENDBRANCH 1 19
TORSDOF 14
ENDMDL
MODEL 3
REMARK VINA RESULT:      -6.2      5.085      8.508
ROOT
ATOM      1  C1  A00 X   1      11.694   7.358  34.3470  0.00  0.00     0.000 C
ATOM      2  C2  A00 X   1      12.815   7.169  33.2900  0.00  0.00     0.000 C
ATOM      3  C3  A00 X   1      13.732   8.410  33.0310  0.00  0.00     0.000 C
ATOM      4  C4  A00 X   1      13.196   9.761  33.5720  0.00  0.00     0.000 C
ATOM      5  C5  A00 X   1      11.680   9.747  33.7620  0.00  0.00     0.000 C
ATOM      6  O5  A00 X   1      11.444   8.725  34.7570  0.00  0.00     0.000 O
ATOM      7   O  A00 X   1      13.895   8.573  31.6240  0.00  0.00     0.000 O
ATOM      9  HD  A00 X   1      13.785   9.363  31.9620  0.00  0.00     0.000 HD
ATOM      9   O  A00 X   1      13.833  10.122  34.7970  0.00  0.00     0.000 O
ATOM     11  HD  A00 X   1      13.723  10.912  35.1350  0.00  0.00     0.000 HD
ENDROOT
BRANCH 2 11
ATOM     11   O  A00 X   1      13.633   6.061  33.7110  0.00  0.00     0.000 O
ATOM     12   O  A00 X   1      15.639   5.446  32.5420  0.00  0.00     0.000 OA
ATOM     13   O  A00 X   1      13.496   5.270  31.4040  0.00  0.00     0.000 OA
ATOM     14   O  A00 X   1      14.025   3.814  33.2090  0.00  0.00     0.000 OA
ATOM     15   S  A00 X   1      14.240   5.110  32.6230  0.00  0.00     0.000 S
ENDBRANCH 2 11
BRANCH 5 16
ATOM     16   C  A00 X   1      10.868   9.550  32.4780  0.00  0.00     0.000 C
ATOM     17   O  A00 X   1       9.681   9.314  32.5710  0.00  0.00     0.000 OA
ATOM     18   O  A00 X   1      11.367   9.628  31.3730  0.00  0.00     0.000 OA
ENDBRANCH 5 16
BRANCH 1 19
ATOM     19  O4  A00 X   2      10.465   6.681  33.9890  0.00  0.00     0.000 O
BRANCH 19 23
ATOM     20  C1  A00 X   2       7.899   4.074  36.2210  0.00  0.00     0.000 C
ATOM     21  C2  A00 X   2       8.016   5.542  36.6980  0.00  0.00     0.000 C
ATOM     22  C3  A00 X   2       8.599   6.437  35.5850  0.00  0.00     0.000 C
ATOM     23  C4  A00 X   2       9.940   5.863  35.0740  0.00  0.00     0.000 C
ATOM     24  C5  A00 X   2       9.695   4.390  34.6460  0.00  0.00     0.000 C
ATOM     25  O5  A00 X   2       9.219   3.643  35.7960  0.00  0.00     0.000 O
ATOM     26   O  A00 X   2       8.623   7.797  36.0500  0.00  0.00     0.000 O
ATOM     28  HD  A00 X   2       9.018   7.588  36.7930  0.00  0.00     0.000 HD
BRANCH 21 30
ATOM     28   N  A00 X   2       7.871   5.060  38.0750  0.00  0.00     0.000 N
ATOM     30  HD  A00 X   2       7.738   5.916  38.0940  0.00  0.00     0.000 HD
ATOM     30   O  A00 X   2       6.796   6.721  39.3180  0.00  0.00     0.000 OA
ATOM     31   S  A00 X   2       8.065   6.085  39.2620  0.00  0.00     0.000 S
ATOM     32   O  A00 X   2       8.373   5.252  40.3830  0.00  0.00     0.000 OA
ATOM     33   O  A00 X   2       9.189   6.909  38.9310  0.00  0.00     0.000 OA
ENDBRANCH 21 30
BRANCH 24 34
ATOM     34   C  A00 X   2      10.824   3.658  33.8840  0.00  0.00     0.000 C
ATOM     35   O  A00 X   2      11.782   0.197  34.4860  0.00  0.00     0.000 OA
ATOM     36   O  A00 X   2      11.211   2.446  34.5610  0.00  0.00     0.000 O
ATOM     37   O  A00 X   2       9.587   0.884  33.9340  0.00  0.00     0.000 OA
ATOM     38   S  A00 X   2      10.986   1.120  33.7460  0.00  0.00     0.000 S
ATOM     39   O  A00 X   2      11.441   1.382  32.4140  0.00  0.00     0.000 OA
ENDBRANCH 24 34
BRANCH 20 40
ATOM     40  O4  A00 X   3       7.016   4.103  35.0910  0.00  0.00     0.000 O
BRANCH 40 44
ATOM     41  C1  A00 X   3       4.568   3.782  32.4390  0.00  0.00     0.000 C
ATOM     42  C2  A00 X   3       4.286   4.395  33.8280  0.00  0.00     0.000 C
ATOM     43  C3  A00 X   3       4.763   3.449  34.9600  0.00  0.00     0.000 C
ATOM     44  C4  A00 X   3       6.194   2.950  34.8070  0.00  0.00     0.000 C
ATOM     45  C5  A00 X   3       6.398   2.344  33.3900  0.00  0.00     0.000 C
ATOM     46  O5  A00 X   3       5.925   3.265  32.3540  0.00  0.00     0.000 O
ATOM     47   O  A00 X   3       4.475   3.875  36.2900  0.00  0.00     0.000 O
ATOM     49  HD  A00 X   3       5.264   3.552  36.4440  0.00  0.00     0.000 HD
BRANCH 42 49
ATOM     49   O  A00 X   3       4.972   5.665  33.8770  0.00  0.00     0.000 O
ATOM     50   O  A00 X   3       5.269   7.414  35.4850  0.00  0.00     0.000 OA
ATOM     51   O  A00 X   3       3.135   6.420  35.2590  0.00  0.00     0.000 OA
ATOM     52   O  A00 X   3       3.955   7.744  33.4820  0.00  0.00     0.000 OA
ATOM     53   S  A00 X   3       4.307   6.893  34.5650  0.00  0.00     0.000 S
ENDBRANCH 42 49
BRANCH 45 54
ATOM     54   C  A00 X   3       5.783   0.944  33.2780  0.00  0.00     0.000 C
ATOM     55   O  A00 X   3       5.875   0.308  32.2470  0.00  0.00     0.000 OA
ATOM     56   O  A00 X   3       5.190   0.444  34.2210  0.00  0.00     0.000 OA
ENDBRANCH 45 54
BRANCH 41 57
ATOM     57  O4  A00 X   4       3.551   2.827  32.0610  0.00  0.00     0.000 O
BRANCH 57 61
ATOM     58  C1  A00 X   4       1.684   1.861  28.2900  0.00  0.00     0.000 C
ATOM     59  C2  A00 X   4       3.004   1.143  28.6690  0.00  0.00     0.000 C
ATOM     60  C3  A00 X   4       3.378   1.291  30.1580  0.00  0.00     0.000 C
ATOM     61  C4  A00 X   4       3.270   2.755  30.6340  0.00  0.00     0.000 C
ATOM     62  C5  A00 X   4       1.814   3.200  30.3520  0.00  0.00     0.000 C
ATOM     63  O5  A00 X   4       1.570   3.156  28.9230  0.00  0.00     0.000 O
BRANCH 59 66
ATOM     64   N  A00 X   4       2.574   1.994  27.5450  0.00  0.00     0.000 N
ATOM     66  HD  A00 X   4       1.724   2.057  27.3940  0.00  0.00     0.000 HD
ATOM     66   O  A00 X   4       3.494   0.330  26.0660  0.00  0.00     0.000 OA
ATOM     67   S  A00 X   4       3.225   1.733  26.1070  0.00  0.00     0.000 S
ATOM     68   O  A00 X   4       2.161   2.182  25.2560  0.00  0.00     0.000 OA
ATOM     69   O  A00 X   4       4.345   2.628  26.1700  0.00  0.00     0.000 OA
ENDBRANCH 59 66
BRANCH 62 70
ATOM     70   C  A00 X   4       1.476   4.620  30.8650  0.00  0.00     0.000 C
ATOM     71   O  A00 X   4       0.479   7.534  28.9630  0.00  0.00     0.000 OA
ATOM     72   O  A00 X   4       2.125   7.278  30.6270  0.00  0.00     0.000 OA
ATOM     73   O  A00 X   4       0.894   5.385  29.7970  0.00  0.00     0.000 O
ATOM     74   O  A00 X   4       2.541   6.428  28.3810  0.00  0.00     0.000 OA
ATOM     75   S  A00 X   4       1.588   6.734  29.3990  0.00  0.00     0.000 S
ENDBRANCH 62 70
ENDBRANCH 57 61
ENDBRANCH 41 57
ENDBRANCH 40 44
ENDBRANCH 20 40
ENDBRANCH 19 23
ENDBRANCH 1 19
TORSDOF 14
ENDMDL
MODEL 4
REMARK VINA RESULT:      -6.2      2.758      9.331
ROOT
ATOM      1  C1  A00 X   1       9.434   6.207  35.4810  0.00  0.00     0.000 C
ATOM      2  C2  A00 X   1       8.121   5.727  36.1560  0.00  0.00     0.000 C
ATOM      3  C3  A00 X   1       8.033   4.199  36.4780  0.00  0.00     0.000 C
ATOM      4  C4  A00 X   1       9.082   3.304  35.7680  0.00  0.00     0.000 C
ATOM      5  C5  A00 X   1       9.638   3.959  34.5040  0.00  0.00     0.000 C
ATOM      6  O5  A00 X   1      10.295   5.159  34.9710  0.00  0.00     0.000 O
ATOM      7   O  A00 X   1       6.752   3.719  36.0750  0.00  0.00     0.000 O
ATOM      9  HD  A00 X   1       7.333   3.119  35.8460  0.00  0.00     0.000 HD
ATOM      9   O  A00 X   1      10.154   2.960  36.6450  0.00  0.00     0.000 O
ATOM     11  HD  A00 X   1      10.735   2.360  36.4160  0.00  0.00     0.000 HD
ENDROOT
BRANCH 2 11
ATOM     11   O  A00 X   1       7.957   6.474  37.3770  0.00  0.00     0.000 O
ATOM     12   O  A00 X   1       6.243   5.941  38.9710  0.00  0.00     0.000 OA
ATOM     13   O  A00 X   1       5.607   6.703  36.7500  0.00  0.00     0.000 OA
ATOM     14   O  A00 X   1       6.658   8.191  38.2800  0.00  0.00     0.000 OA
ATOM     15   S  A00 X   1       6.509   6.823  37.8630  0.00  0.00     0.000 S
ENDBRANCH 2 11
BRANCH 5 16
ATOM     16   C  A00 X   1       8.607   4.215  33.4000  0.00  0.00     0.000 C
ATOM     17   O  A00 X   1       8.888   4.995  32.5120  0.00  0.00     0.000 OA
ATOM     18   O  A00 X   1       7.526   3.663  33.3770  0.00  0.00     0.000 OA
ENDBRANCH 5 16
BRANCH 1 19
ATOM     19  O4  A00 X   2       9.210   7.237  34.4870  0.00  0.00     0.000 O
BRANCH 19 23
ATOM     20  C1  A00 X   2      12.750   9.431  35.4980  0.00  0.00     0.000 C
ATOM     21  C2  A00 X   2      11.419   9.886  36.1430  0.00  0.00     0.000 C
ATOM     22  C3  A00 X   2      10.351   8.776  36.0410  0.00  0.00     0.000 C
ATOM     23  C4  A00 X   2      10.182   8.318  34.5750  0.00  0.00     0.000 C
ATOM     24  C5  A00 X   2      11.581   7.908  34.0410  0.00  0.00     0.000 C
ATOM     25  O5  A00 X   2      12.467   9.055  34.1240  0.00  0.00     0.000 O
ATOM     26   O  A00 X   2       9.160   9.220  36.7130  0.00  0.00     0.000 O
ATOM     28  HD  A00 X   2       9.145   9.978  36.2940  0.00  0.00     0.000 HD
BRANCH 21 30
ATOM     28   N  A00 X   2      10.497  10.263  37.2190  0.00  0.00     0.000 N
ATOM     30  HD  A00 X   2      11.148  10.833  37.2360  0.00  0.00     0.000 HD
ATOM     30   O  A00 X   2      11.005  12.445  37.8810  0.00  0.00     0.000 OA
ATOM     31   S  A00 X   2      11.047  11.132  38.4190  0.00  0.00     0.000 S
ATOM     32   O  A00 X   2      10.113  10.882  39.4740  0.00  0.00     0.000 OA
ATOM     33   O  A00 X   2      12.336  10.611  38.7630  0.00  0.00     0.000 OA
ENDBRANCH 21 30
BRANCH 24 34
ATOM     34   C  A00 X   2      11.655   7.195  32.6700  0.00  0.00     0.000 C
ATOM     35   O  A00 X   2      13.563   8.430  29.8260  0.00  0.00     0.000 OA
ATOM     36   O  A00 X   2      12.175   8.072  31.6520  0.00  0.00     0.000 O
ATOM     37   O  A00 X   2      14.493   8.014  31.9610  0.00  0.00     0.000 OA
ATOM     38   S  A00 X   2      13.523   7.607  30.9900  0.00  0.00     0.000 S
ATOM     39   O  A00 X   2      13.387   6.204  30.7360  0.00  0.00     0.000 OA
ENDBRANCH 24 34
BRANCH 20 40
ATOM     40  O4  A00 X   3      13.163   8.272  36.2370  0.00  0.00     0.000 O
BRANCH 40 44
ATOM     41  C1  A00 X   3      14.670   4.991  36.5330  0.00  0.00     0.000 C
ATOM     42  C2  A00 X   3      14.129   5.821  37.7170  0.00  0.00     0.000 C
ATOM     43  C3  A00 X   3      14.704   7.261  37.6940  0.00  0.00     0.000 C
ATOM     44  C4  A00 X   3      14.571   7.974  36.3550  0.00  0.00     0.000 C
ATOM     45  C5  A00 X   3      15.140   7.080  35.2170  0.00  0.00     0.000 C
ATOM     46  O5  A00 X   3      14.578   5.729  35.2840  0.00  0.00     0.000 O
ATOM     47   O  A00 X   3      14.340   8.094  38.7930  0.00  0.00     0.000 O
ATOM     49  HD  A00 X   3      14.292   8.698  38.1730  0.00  0.00     0.000 HD
BRANCH 42 49
ATOM     49   O  A00 X   3      12.689   5.826  37.6080  0.00  0.00     0.000 O
ATOM     50   O  A00 X   3      10.866   6.842  38.7810  0.00  0.00     0.000 OA
ATOM     51   O  A00 X   3      12.669   5.953  40.0250  0.00  0.00     0.000 OA
ATOM     52   O  A00 X   3      11.254   4.457  38.8650  0.00  0.00     0.000 OA
ATOM     53   S  A00 X   3      11.803   5.768  38.8870  0.00  0.00     0.000 S
ENDBRANCH 42 49
BRANCH 45 54
ATOM     54   C  A00 X   3      16.673   7.096  35.1950  0.00  0.00     0.000 C
ATOM     55   O  A00 X   3      17.297   7.698  36.0440  0.00  0.00     0.000 OA
ATOM     56   O  A00 X   3      17.292   6.505  34.3240  0.00  0.00     0.000 OA
ENDBRANCH 45 54
BRANCH 41 57
ATOM     57  O4  A00 X   4      15.987   4.463  36.8080  0.00  0.00     0.000 O
BRANCH 57 61
ATOM     58  C1  A00 X   4      18.058   0.907  35.5030  0.00  0.00     0.000 C
ATOM     59  C2  A00 X   4      18.152   2.182  34.6290  0.00  0.00     0.000 C
ATOM     60  C3  A00 X   4      17.689   3.461  35.3570  0.00  0.00     0.000 C
ATOM     61  C4  A00 X   4      16.336   3.257  36.0710  0.00  0.00     0.000 C
ATOM     62  C5  A00 X   4      16.532   2.070  37.0460  0.00  0.00     0.000 C
ATOM     63  O5  A00 X   4      16.842   0.874  36.2850  0.00  0.00     0.000 O
BRANCH 59 66
ATOM     64   N  A00 X   4      18.937   2.875  33.5910  0.00  0.00     0.000 N
ATOM     66  HD  A00 X   4      18.524   3.456  33.0990  0.00  0.00     0.000 HD
ATOM     66   O  A00 X   4      19.022   0.783  32.4010  0.00  0.00     0.000 OA
ATOM     67   S  A00 X   4      19.776   1.988  32.5580  0.00  0.00     0.000 S
ATOM     68   O  A00 X   4      19.788   2.860  31.4200  0.00  0.00     0.000 OA
ATOM     69   O  A00 X   4      21.029   1.908  33.2520  0.00  0.00     0.000 OA
ENDBRANCH 59 66
BRANCH 62 70
ATOM     70   C  A00 X   4      15.305   1.779  37.9420  0.00  0.00     0.000 C
ATOM     71   O  A00 X   4      12.320  -0.110  37.1460  0.00  0.00     0.000 OA
ATOM     72   O  A00 X   4      12.575   2.022  38.1130  0.00  0.00     0.000 OA
ATOM     73   O  A00 X   4      14.477   0.791  37.3070  0.00  0.00     0.000 O
ATOM     74   O  A00 X   4      12.931   1.736  35.7190  0.00  0.00     0.000 OA
ATOM     75   S  A00 X   4      12.980   1.160  37.0240  0.00  0.00     0.000 S
ENDBRANCH 62 70
ENDBRANCH 57 61
ENDBRANCH 41 57
ENDBRANCH 40 44
ENDBRANCH 20 40
ENDBRANCH 19 23
ENDBRANCH 1 19
TORSDOF 14
ENDMDL
MODEL 5
REMARK VINA RESULT:      -4.2     16.609     20.798
ROOT
ATOM      1  C1  A00 X   1      10.969   3.818  55.8220  0.00  0.00     0.000 C
ATOM      2  C2  A00 X   1      11.865   3.073  56.8470  0.00  0.00     0.000 C
ATOM      3  C3  A00 X   1      11.412   3.154  58.3420  0.00  0.00     0.000 C
ATOM      4  C4  A00 X   1      10.361   4.247  58.6650  0.00  0.00     0.000 C
ATOM      5  C5  A00 X   1      10.363   5.372  57.6290  0.00  0.00     0.000 C
ATOM      6  O5  A00 X   1       9.994   4.729  56.3890  0.00  0.00     0.000 O
ATOM      7   O  A00 X   1      12.552   3.436  59.1510  0.00  0.00     0.000 O
ATOM      9  HD  A00 X   1      11.897   3.914  59.4570  0.00  0.00     0.000 HD
ATOM      9   O  A00 X   1       9.050   3.695  58.7750  0.00  0.00     0.000 O
ATOM     11  HD  A00 X   1       8.395   4.173  59.0810  0.00  0.00     0.000 HD
ENDROOT
BRANCH 2 11
ATOM     11   O  A00 X   1      11.928   1.689  56.4500  0.00  0.00     0.000 O
ATOM     12   O  A00 X   1      12.957   0.017  57.8330  0.00  0.00     0.000 OA
ATOM     13   O  A00 X   1      14.321   1.813  56.9230  0.00  0.00     0.000 OA
ATOM     14   O  A00 X   1      13.401   0.154  55.4880  0.00  0.00     0.000 OA
ATOM     15   S  A00 X   1      13.245   0.883  56.7180  0.00  0.00     0.000 S
ENDBRANCH 2 11
BRANCH 5 16
ATOM     16   C  A00 X   1      11.668   6.171  57.5420  0.00  0.00     0.000 C
ATOM     17   O  A00 X   1      11.820   6.934  56.6110  0.00  0.00     0.000 OA
ATOM     18   O  A00 X   1      12.549   6.072  58.3730  0.00  0.00     0.000 OA
ENDBRANCH 5 16
BRANCH 1 19
ATOM     19  O4  A00 X   2      11.731   4.450  54.7650  0.00  0.00     0.000 O
BRANCH 19 23
ATOM     20  C1  A00 X   2       8.886   3.479  51.7120  0.00  0.00     0.000 C
ATOM     21  C2  A00 X   2      10.118   2.554  51.8610  0.00  0.00     0.000 C
ATOM     22  C3  A00 X   2      10.797   2.759  53.2310  0.00  0.00     0.000 C
ATOM     23  C4  A00 X   2      11.136   4.251  53.4510  0.00  0.00     0.000 C
ATOM     24  C5  A00 X   2       9.830   5.069  53.2570  0.00  0.00     0.000 C
ATOM     25  O5  A00 X   2       9.335   4.846  51.9110  0.00  0.00     0.000 O
ATOM     26   O  A00 X   2      11.889   1.832  53.3480  0.00  0.00     0.000 O
ATOM     28  HD  A00 X   2      12.222   2.050  52.5790  0.00  0.00     0.000 HD
BRANCH 21 30
ATOM     28   N  A00 X   2      10.084   2.355  50.4090  0.00  0.00     0.000 N
ATOM     30  HD  A00 X   2      10.598   1.739  50.7340  0.00  0.00     0.000 HD
ATOM     30   O  A00 X   2      10.893   0.212  49.9490  0.00  0.00     0.000 OA
ATOM     31   S  A00 X   2      11.268   1.563  49.7240  0.00  0.00     0.000 S
ATOM     32   O  A00 X   2      11.214   1.986  48.3590  0.00  0.00     0.000 OA
ATOM     33   O  A00 X   2      12.485   2.009  50.3350  0.00  0.00     0.000 OA
ENDBRANCH 21 30
BRANCH 24 34
ATOM     34   C  A00 X   2       9.847   6.566  53.6470  0.00  0.00     0.000 C
ATOM     35   O  A00 X   2       9.332   9.294  51.2910  0.00  0.00     0.000 OA
ATOM     36   O  A00 X   2       9.971   7.407  52.4830  0.00  0.00     0.000 O
ATOM     37   O  A00 X   2       7.804   7.517  51.6090  0.00  0.00     0.000 OA
ATOM     38   S  A00 X   2       8.763   8.381  52.2270  0.00  0.00     0.000 S
ATOM     39   O  A00 X   2       8.423   8.948  53.4980  0.00  0.00     0.000 OA
ENDBRANCH 24 34
BRANCH 20 40
ATOM     40  O4  A00 X   3       7.992   3.108  52.7720  0.00  0.00     0.000 O
BRANCH 40 44
ATOM     41  C1  A00 X   3       5.752   4.132  55.4280  0.00  0.00     0.000 C
ATOM     42  C2  A00 X   3       6.084   2.667  55.0730  0.00  0.00     0.000 C
ATOM     43  C3  A00 X   3       5.892   2.405  53.5570  0.00  0.00     0.000 C
ATOM     44  C4  A00 X   3       6.586   3.412  52.6480  0.00  0.00     0.000 C
ATOM     45  C5  A00 X   3       6.198   4.859  53.0640  0.00  0.00     0.000 C
ATOM     46  O5  A00 X   3       6.385   5.058  54.5020  0.00  0.00     0.000 O
ATOM     47   O  A00 X   3       6.088   1.059  53.1270  0.00  0.00     0.000 O
ATOM     49  HD  A00 X   3       6.460   1.449  52.4490  0.00  0.00     0.000 HD
BRANCH 42 49
ATOM     49   O  A00 X   3       7.450   2.433  55.4810  0.00  0.00     0.000 O
ATOM     50   O  A00 X   3       8.993   0.603  55.4010  0.00  0.00     0.000 OA
ATOM     51   O  A00 X   3       6.742   0.174  55.9820  0.00  0.00     0.000 OA
ATOM     52   O  A00 X   3       8.081   1.401  57.4940  0.00  0.00     0.000 OA
ATOM     53   S  A00 X   3       7.856   1.076  56.1280  0.00  0.00     0.000 S
ENDBRANCH 42 49
BRANCH 45 54
ATOM     54   C  A00 X   3       4.791   5.231  52.5810  0.00  0.00     0.000 C
ATOM     55   O  A00 X   3       4.481   6.392  52.4120  0.00  0.00     0.000 OA
ATOM     56   O  A00 X   3       3.957   4.366  52.3600  0.00  0.00     0.000 OA
ENDBRANCH 45 54
BRANCH 41 57
ATOM     57  O4  A00 X   4       4.329   4.335  55.5790  0.00  0.00     0.000 O
BRANCH 57 61
ATOM     58  C1  A00 X   4       1.980   7.015  58.0160  0.00  0.00     0.000 C
ATOM     59  C2  A00 X   4       2.919   7.620  56.9420  0.00  0.00     0.000 C
ATOM     60  C3  A00 X   4       3.420   6.587  55.9120  0.00  0.00     0.000 C
ATOM     61  C4  A00 X   4       3.947   5.307  56.5940  0.00  0.00     0.000 C
ATOM     62  C5  A00 X   4       2.780   4.757  57.4510  0.00  0.00     0.000 C
ATOM     63  O5  A00 X   4       2.443   5.725  58.4770  0.00  0.00     0.000 O
BRANCH 59 66
ATOM     64   N  A00 X   4       4.181   8.343  57.1820  0.00  0.00     0.000 N
ATOM     66  HD  A00 X   4       4.702   8.043  57.8050  0.00  0.00     0.000 HD
ATOM     66   O  A00 X   4       2.860  10.143  58.0850  0.00  0.00     0.000 OA
ATOM     67   S  A00 X   4       4.113   9.922  57.4330  0.00  0.00     0.000 S
ATOM     68   O  A00 X   4       5.276  10.103  58.2520  0.00  0.00     0.000 OA
ATOM     69   O  A00 X   4       4.261  10.398  56.0870  0.00  0.00     0.000 OA
ENDBRANCH 59 66
BRANCH 62 70
ATOM     70   C  A00 X   4       3.080   3.401  58.1340  0.00  0.00     0.000 C
ATOM     71   O  A00 X   4       5.367   2.697  60.8510  0.00  0.00     0.000 OA
ATOM     72   O  A00 X   4       5.084   1.634  58.7690  0.00  0.00     0.000 OA
ATOM     73   O  A00 X   4       3.860   3.630  59.3190  0.00  0.00     0.000 O
ATOM     74   O  A00 X   4       6.223   3.786  58.8780  0.00  0.00     0.000 OA
ATOM     75   S  A00 X   4       5.246   2.907  59.4360  0.00  0.00     0.000 S
ENDBRANCH 62 70
ENDBRANCH 57 61
ENDBRANCH 41 57
ENDBRANCH 40 44
ENDBRANCH 20 40
ENDBRANCH 19 23
ENDBRANCH 1 19
TORSDOF 14
ENDMDL
MODEL 6
REMARK VINA RESULT:      -4.2      3.313      9.474
ROOT
ATOM      1  C1  A00 X   1       9.069   5.305  34.5530  0.00  0.00     0.000 C
ATOM      2  C2  A00 X   1       9.520   3.822  34.4740  0.00  0.00     0.000 C
ATOM      3  C3  A00 X   1       8.416   2.751  34.7600  0.00  0.00     0.000 C
ATOM      4  C4  A00 X   1       7.128   3.285  35.4380  0.00  0.00     0.000 C
ATOM      5  C5  A00 X   1       7.368   4.598  36.1830  0.00  0.00     0.000 C
ATOM      6  O5  A00 X   1       7.771   5.533  35.1570  0.00  0.00     0.000 O
ATOM      7   O  A00 X   1       8.955   1.763  35.6360  0.00  0.00     0.000 O
ATOM      9  HD  A00 X   1       8.147   1.927  35.9020  0.00  0.00     0.000 HD
ATOM      9   O  A00 X   1       6.072   3.453  34.4920  0.00  0.00     0.000 O
ATOM     11  HD  A00 X   1       5.264   3.617  34.7580  0.00  0.00     0.000 HD
ENDROOT
BRANCH 2 11
ATOM     11   O  A00 X   1      10.060   3.598  33.1570  0.00  0.00     0.000 O
ATOM     12   O  A00 X   1      10.611   1.398  32.3670  0.00  0.00     0.000 OA
ATOM     13   O  A00 X   1      11.830   2.324  34.2570  0.00  0.00     0.000 OA
ATOM     14   O  A00 X   1      12.102   3.244  32.0810  0.00  0.00     0.000 OA
ATOM     15   S  A00 X   1      11.216   2.554  32.9790  0.00  0.00     0.000 S
ENDBRANCH 2 11
BRANCH 5 16
ATOM     16   C  A00 X   1       8.354   4.508  37.3520  0.00  0.00     0.000 C
ATOM     17   O  A00 X   1       8.641   3.412  37.7880  0.00  0.00     0.000 OA
ATOM     18   O  A00 X   1       8.862   5.492  37.8530  0.00  0.00     0.000 OA
ENDBRANCH 5 16
BRANCH 1 19
ATOM     19  O4  A00 X   2      10.079   6.169  35.1290  0.00  0.00     0.000 O
BRANCH 19 23
ATOM     20  C1  A00 X   2      11.366  10.121  34.0860  0.00  0.00     0.000 C
ATOM     21  C2  A00 X   2      10.001   9.980  34.8030  0.00  0.00     0.000 C
ATOM     22  C3  A00 X   2       9.879   8.602  35.4860  0.00  0.00     0.000 C
ATOM     23  C4  A00 X   2      10.145   7.467  34.4710  0.00  0.00     0.000 C
ATOM     24  C5  A00 X   2      11.526   7.732  33.8120  0.00  0.00     0.000 C
ATOM     25  O5  A00 X   2      11.485   9.021  33.1450  0.00  0.00     0.000 O
ATOM     26   O  A00 X   2       8.629   8.547  36.1920  0.00  0.00     0.000 O
ATOM     28  HD  A00 X   2       8.172   8.816  35.5070  0.00  0.00     0.000 HD
BRANCH 21 30
ATOM     28   N  A00 X   2       9.245  10.454  35.9660  0.00  0.00     0.000 N
ATOM     30  HD  A00 X   2       9.213  11.084  35.3720  0.00  0.00     0.000 HD
ATOM     30   O  A00 X   2       7.944  12.275  35.2950  0.00  0.00     0.000 OA
ATOM     31   S  A00 X   2       9.041  12.010  36.1560  0.00  0.00     0.000 S
ATOM     32   O  A00 X   2       8.761  12.147  37.5520  0.00  0.00     0.000 OA
ATOM     33   O  A00 X   2      10.286  12.642  35.8340  0.00  0.00     0.000 OA
ENDBRANCH 21 30
BRANCH 24 34
ATOM     34   C  A00 X   2      12.132   6.620  32.9250  0.00  0.00     0.000 C
ATOM     35   O  A00 X   2      13.294   7.137  29.5130  0.00  0.00     0.000 OA
ATOM     36   O  A00 X   2      12.169   7.018  31.5400  0.00  0.00     0.000 O
ATOM     37   O  A00 X   2      14.066   8.375  31.3740  0.00  0.00     0.000 OA
ATOM     38   S  A00 X   2      13.605   7.105  30.9050  0.00  0.00     0.000 S
ATOM     39   O  A00 X   2      14.312   5.939  31.3420  0.00  0.00     0.000 OA
ENDBRANCH 24 34
BRANCH 20 40
ATOM     40  O4  A00 X   3      12.359   9.984  35.1130  0.00  0.00     0.000 O
BRANCH 40 44
ATOM     41  C1  A00 X   3      15.430   9.020  36.7760  0.00  0.00     0.000 C
ATOM     42  C2  A00 X   3      14.410  10.038  37.3310  0.00  0.00     0.000 C
ATOM     43  C3  A00 X   3      14.064  11.113  36.2700  0.00  0.00     0.000 C
ATOM     44  C4  A00 X   3      13.670  10.555  34.9080  0.00  0.00     0.000 C
ATOM     45  C5  A00 X   3      14.744   9.545  34.4150  0.00  0.00     0.000 C
ATOM     46  O5  A00 X   3      15.047   8.556  35.4520  0.00  0.00     0.000 O
ATOM     47   O  A00 X   3      13.195  12.158  36.7020  0.00  0.00     0.000 O
ATOM     49  HD  A00 X   3      12.868  12.062  35.9050  0.00  0.00     0.000 HD
BRANCH 42 49
ATOM     49   O  A00 X   3      13.239   9.290  37.7270  0.00  0.00     0.000 O
ATOM     50   O  A00 X   3      11.066   9.804  38.5900  0.00  0.00     0.000 OA
ATOM     51   O  A00 X   3      12.935  10.981  39.4310  0.00  0.00     0.000 OA
ATOM     52   O  A00 X   3      12.731   8.682  39.9370  0.00  0.00     0.000 OA
ATOM     53   S  A00 X   3      12.433   9.703  38.9930  0.00  0.00     0.000 S
ENDBRANCH 42 49
BRANCH 45 54
ATOM     54   C  A00 X   3      15.992  10.260  33.8810  0.00  0.00     0.000 C
ATOM     55   O  A00 X   3      16.168  11.441  34.0970  0.00  0.00     0.000 OA
ATOM     56   O  A00 X   3      16.827   9.655  33.2280  0.00  0.00     0.000 OA
ENDBRANCH 45 54
BRANCH 41 57
ATOM     57  O4  A00 X   4      16.782   9.523  36.8540  0.00  0.00     0.000 O
BRANCH 57 61
ATOM     58  C1  A00 X   4      20.640   7.596  37.0660  0.00  0.00     0.000 C
ATOM     59  C2  A00 X   4      19.970   7.762  35.6790  0.00  0.00     0.000 C
ATOM     60  C3  A00 X   4      18.796   8.763  35.6800  0.00  0.00     0.000 C
ATOM     61  C4  A00 X   4      17.822   8.504  36.8490  0.00  0.00     0.000 C
ATOM     62  C5  A00 X   4      18.664   8.591  38.1460  0.00  0.00     0.000 C
ATOM     63  O5  A00 X   4      19.667   7.544  38.1350  0.00  0.00     0.000 O
BRANCH 59 66
ATOM     64   N  A00 X   4      19.383   6.769  34.7620  0.00  0.00     0.000 N
ATOM     66  HD  A00 X   4      18.874   6.158  35.1070  0.00  0.00     0.000 HD
ATOM     66   O  A00 X   4      21.597   5.861  34.4890  0.00  0.00     0.000 OA
ATOM     67   S  A00 X   4      20.362   5.976  33.7770  0.00  0.00     0.000 S
ATOM     68   O  A00 X   4      19.630   4.755  33.6120  0.00  0.00     0.000 OA
ATOM     69   O  A00 X   4      20.327   6.843  32.6340  0.00  0.00     0.000 OA
ENDBRANCH 59 66
BRANCH 62 70
ATOM     70   C  A00 X   4      17.836   8.466  39.4470  0.00  0.00     0.000 C
ATOM     71   O  A00 X   4      17.635   5.670  41.7390  0.00  0.00     0.000 OA
ATOM     72   O  A00 X   4      15.937   6.953  40.7310  0.00  0.00     0.000 OA
ATOM     73   O  A00 X   4      18.250   7.290  40.1610  0.00  0.00     0.000 O
ATOM     74   O  A00 X   4      17.134   5.290  39.4110  0.00  0.00     0.000 OA
ATOM     75   S  A00 X   4      17.159   6.215  40.4980  0.00  0.00     0.000 S
ENDBRANCH 62 70
ENDBRANCH 57 61
ENDBRANCH 41 57
ENDBRANCH 40 44
ENDBRANCH 20 40
ENDBRANCH 19 23
ENDBRANCH 1 19
TORSDOF 14
ENDMDL
MODEL 7
REMARK VINA RESULT:      -4.0      3.565      9.583
ROOT
ATOM      1  C1  A00 X   1       9.714   5.155  34.2460  0.00  0.00     0.000 C
ATOM      2  C2  A00 X   1       9.669   3.646  34.6060  0.00  0.00     0.000 C
ATOM      3  C3  A00 X   1       8.308   2.918  34.3490  0.00  0.00     0.000 C
ATOM      4  C4  A00 X   1       7.086   3.846  34.1230  0.00  0.00     0.000 C
ATOM      5  C5  A00 X   1       7.301   5.238  34.7160  0.00  0.00     0.000 C
ATOM      6  O5  A00 X   1       8.430   5.776  33.9900  0.00  0.00     0.000 O
ATOM      7   O  A00 X   1       7.999   2.112  35.4840  0.00  0.00     0.000 O
ATOM      9  HD  A00 X   1       7.262   2.490  35.2320  0.00  0.00     0.000 HD
ATOM      9   O  A00 X   1       6.764   3.956  32.7370  0.00  0.00     0.000 O
ATOM     11  HD  A00 X   1       6.027   4.334  32.4850  0.00  0.00     0.000 HD
ENDROOT
BRANCH 2 11
ATOM     11   O  A00 X   1      10.704   2.984  33.8530  0.00  0.00     0.000 O
ATOM     12   O  A00 X   1      10.844   0.590  33.7180  0.00  0.00     0.000 OA
ATOM     13   O  A00 X   1      11.139   1.681  35.8720  0.00  0.00     0.000 OA
ATOM     14   O  A00 X   1      12.769   1.937  34.1590  0.00  0.00     0.000 OA
ATOM     15   S  A00 X   1      11.381   1.705  34.4560  0.00  0.00     0.000 S
ENDBRANCH 2 11
BRANCH 5 16
ATOM     16   C  A00 X   1       7.478   5.275  36.2370  0.00  0.00     0.000 C
ATOM     17   O  A00 X   1       7.809   6.320  36.7590  0.00  0.00     0.000 OA
ATOM     18   O  A00 X   1       7.292   4.300  36.9380  0.00  0.00     0.000 OA
ENDBRANCH 5 16
BRANCH 1 19
ATOM     19  O4  A00 X   2      10.499   5.932  35.1820  0.00  0.00     0.000 O
BRANCH 19 23
ATOM     20  C1  A00 X   2      12.176   9.823  34.5380  0.00  0.00     0.000 C
ATOM     21  C2  A00 X   2      11.046   9.697  35.5880  0.00  0.00     0.000 C
ATOM     22  C3  A00 X   2      10.855   8.227  36.0160  0.00  0.00     0.000 C
ATOM     23  C4  A00 X   2      10.629   7.326  34.7800  0.00  0.00     0.000 C
ATOM     24  C5  A00 X   2      11.813   7.557  33.8020  0.00  0.00     0.000 C
ATOM     25  O5  A00 X   2      11.838   8.957  33.4210  0.00  0.00     0.000 O
ATOM     26   O  A00 X   2       9.845   8.171  37.0380  0.00  0.00     0.000 O
ATOM     28  HD  A00 X   2       9.283   8.644  36.5790  0.00  0.00     0.000 HD
BRANCH 21 30
ATOM     28   N  A00 X   2      10.532  11.009  35.1820  0.00  0.00     0.000 N
ATOM     30  HD  A00 X   2      10.192  10.836  35.9590  0.00  0.00     0.000 HD
ATOM     30   O  A00 X   2       9.651  12.062  37.0720  0.00  0.00     0.000 OA
ATOM     31   S  A00 X   2       9.193  11.534  35.8360  0.00  0.00     0.000 S
ATOM     32   O  A00 X   2       8.720  12.509  34.9020  0.00  0.00     0.000 OA
ATOM     33   O  A00 X   2       8.289  10.425  35.8980  0.00  0.00     0.000 OA
ENDBRANCH 21 30
BRANCH 24 34
ATOM     34   C  A00 X   2      11.949   6.606  32.5900  0.00  0.00     0.000 C
ATOM     35   O  A00 X   2      15.095   5.144  31.4840  0.00  0.00     0.000 OA
ATOM     36   O  A00 X   2      13.325   6.475  32.1800  0.00  0.00     0.000 O
ATOM     37   O  A00 X   2      14.232   4.921  33.6750  0.00  0.00     0.000 OA
ATOM     38   S  A00 X   2      13.919   5.022  32.2820  0.00  0.00     0.000 S
ATOM     39   O  A00 X   2      12.921   4.138  31.7600  0.00  0.00     0.000 OA
ENDBRANCH 24 34
BRANCH 20 40
ATOM     40  O4  A00 X   3      13.361   9.333  35.1830  0.00  0.00     0.000 O
BRANCH 40 44
ATOM     41  C1  A00 X   3      16.535   7.851  36.1050  0.00  0.00     0.000 C
ATOM     42  C2  A00 X   3      15.900   9.074  36.8010  0.00  0.00     0.000 C
ATOM     43  C3  A00 X   3      15.486  10.150  35.7640  0.00  0.00     0.000 C
ATOM     44  C4  A00 X   3      14.651   9.623  34.6030  0.00  0.00     0.000 C
ATOM     45  C5  A00 X   3      15.357   8.399  33.9530  0.00  0.00     0.000 C
ATOM     46  O5  A00 X   3      15.739   7.416  34.9680  0.00  0.00     0.000 O
ATOM     47   O  A00 X   3      14.965  11.364  36.3010  0.00  0.00     0.000 O
ATOM     49  HD  A00 X   3      14.428  11.301  35.6250  0.00  0.00     0.000 HD
BRANCH 42 49
ATOM     49   O  A00 X   3      14.760   8.592  37.5450  0.00  0.00     0.000 O
ATOM     50   O  A00 X   3      13.066   9.555  38.9350  0.00  0.00     0.000 OA
ATOM     51   O  A00 X   3      15.294  10.313  39.1610  0.00  0.00     0.000 OA
ATOM     52   O  A00 X   3      14.778   8.109  39.8430  0.00  0.00     0.000 OA
ATOM     53   S  A00 X   3      14.441   9.168  38.9560  0.00  0.00     0.000 S
ENDBRANCH 42 49
BRANCH 45 54
ATOM     54   C  A00 X   3      16.526   8.828  33.0580  0.00  0.00     0.000 C
ATOM     55   O  A00 X   3      16.764  10.004  32.8720  0.00  0.00     0.000 OA
ATOM     56   O  A00 X   3      17.237   7.996  32.5160  0.00  0.00     0.000 OA
ENDBRANCH 45 54
BRANCH 41 57
ATOM     57  O4  A00 X   4      17.928   8.078  35.7930  0.00  0.00     0.000 O
BRANCH 57 61
ATOM     58  C1  A00 X   4      21.419   5.538  35.8280  0.00  0.00     0.000 C
ATOM     59  C2  A00 X   4      20.419   5.407  34.6520  0.00  0.00     0.000 C
ATOM     60  C3  A00 X   4      19.427   6.584  34.5550  0.00  0.00     0.000 C
ATOM     61  C4  A00 X   4      18.789   6.911  35.9220  0.00  0.00     0.000 C
ATOM     62  C5  A00 X   4      19.960   7.213  36.8890  0.00  0.00     0.000 C
ATOM     63  O5  A00 X   4      20.781   6.025  37.0310  0.00  0.00     0.000 O
BRANCH 59 66
ATOM     64   N  A00 X   4      19.518   4.241  34.6210  0.00  0.00     0.000 N
ATOM     66  HD  A00 X   4      19.243   3.927  35.3800  0.00  0.00     0.000 HD
ATOM     66   O  A00 X   4      21.401   2.932  33.8850  0.00  0.00     0.000 OA
ATOM     67   S  A00 X   4      19.974   2.953  33.7890  0.00  0.00     0.000 S
ATOM     68   O  A00 X   4      19.292   1.922  34.5150  0.00  0.00     0.000 OA
ATOM     69   O  A00 X   4      19.393   3.257  32.5130  0.00  0.00     0.000 OA
ENDBRANCH 59 66
BRANCH 62 70
ATOM     70   C  A00 X   4      19.515   7.673  38.2980  0.00  0.00     0.000 C
ATOM     71   O  A00 X   4      20.142  10.834  39.9480  0.00  0.00     0.000 OA
ATOM     72   O  A00 X   4      20.419   8.623  40.7110  0.00  0.00     0.000 OA
ATOM     73   O  A00 X   4      19.769   9.080  38.4400  0.00  0.00     0.000 O
ATOM     74   O  A00 X   4      22.024   9.564  39.1370  0.00  0.00     0.000 OA
ATOM     75   S  A00 X   4      20.684   9.543  39.6270  0.00  0.00     0.000 S
ENDBRANCH 62 70
ENDBRANCH 57 61
ENDBRANCH 41 57
ENDBRANCH 40 44
ENDBRANCH 20 40
ENDBRANCH 19 23
ENDBRANCH 1 19
TORSDOF 14
ENDMDL
MODEL 8
REMARK VINA RESULT:      -3.9      2.878      4.415
ROOT
ATOM      1  C1  A00 X   1      17.200   6.313  34.5470  0.00  0.00     0.000 C
ATOM      2  C2  A00 X   1      18.659   6.740  34.2350  0.00  0.00     0.000 C
ATOM      3  C3  A00 X   1      19.381   7.582  35.3390  0.00  0.00     0.000 C
ATOM      4  C4  A00 X   1      18.457   8.192  36.4240  0.00  0.00     0.000 C
ATOM      5  C5  A00 X   1      17.013   8.330  35.9430  0.00  0.00     0.000 C
ATOM      6  O5  A00 X   1      16.583   6.975  35.6790  0.00  0.00     0.000 O
ATOM      7   O  A00 X   1      20.051   8.675  34.7160  0.00  0.00     0.000 O
ATOM      9  HD  A00 X   1      19.686   8.978  35.4400  0.00  0.00     0.000 HD
ATOM      9   O  A00 X   1      18.493   7.428  37.6290  0.00  0.00     0.000 O
ATOM     11  HD  A00 X   1      18.128   7.731  38.3540  0.00  0.00     0.000 HD
ENDROOT
BRANCH 2 11
ATOM     11   O  A00 X   1      19.422   5.544  33.9830  0.00  0.00     0.000 O
ATOM     12   O  A00 X   1      19.181   3.575  35.3360  0.00  0.00     0.000 OA
ATOM     13   O  A00 X   1      20.041   5.615  36.3450  0.00  0.00     0.000 OA
ATOM     14   O  A00 X   1      21.330   4.430  34.7360  0.00  0.00     0.000 OA
ATOM     15   S  A00 X   1      20.007   4.748  35.1990  0.00  0.00     0.000 S
ENDBRANCH 2 11
BRANCH 5 16
ATOM     16   C  A00 X   1      16.813   9.278  34.7560  0.00  0.00     0.000 C
ATOM     17   O  A00 X   1      15.715   9.346  34.2450  0.00  0.00     0.000 OA
ATOM     18   O  A00 X   1      17.711   9.967  34.3140  0.00  0.00     0.000 OA
ENDBRANCH 5 16
BRANCH 1 19
ATOM     19  O4  A00 X   2      16.342   6.352  33.3810  0.00  0.00     0.000 O
BRANCH 19 23
ATOM     20  C1  A00 X   2      13.205   3.879  34.9320  0.00  0.00     0.000 C
ATOM     21  C2  A00 X   2      14.505   3.178  34.4710  0.00  0.00     0.000 C
ATOM     22  C3  A00 X   2      15.665   4.190  34.3570  0.00  0.00     0.000 C
ATOM     23  C4  A00 X   2      15.265   5.373  33.4470  0.00  0.00     0.000 C
ATOM     24  C5  A00 X   2      13.945   5.975  34.0020  0.00  0.00     0.000 C
ATOM     25  O5  A00 X   2      12.921   4.946  33.9890  0.00  0.00     0.000 O
ATOM     26   O  A00 X   2      16.862   3.481  33.9930  0.00  0.00     0.000 O
ATOM     28  HD  A00 X   2      16.479   3.071  33.3330  0.00  0.00     0.000 HD
BRANCH 21 30
ATOM     28   N  A00 X   2      15.558   2.260  34.9170  0.00  0.00     0.000 N
ATOM     30  HD  A00 X   2      14.865   1.775  34.7290  0.00  0.00     0.000 HD
ATOM     30   O  A00 X   2      14.955   0.095  34.2750  0.00  0.00     0.000 OA
ATOM     31   S  A00 X   2      15.141   0.839  35.4700  0.00  0.00     0.000 S
ATOM     32   O  A00 X   2      16.264   0.441  36.2610  0.00  0.00     0.000 OA
ATOM     33   O  A00 X   2      13.990   1.030  36.3020  0.00  0.00     0.000 OA
ENDBRANCH 21 30
BRANCH 24 34
ATOM     34   C  A00 X   2      13.453   7.315  33.4080  0.00  0.00     0.000 C
ATOM     35   O  A00 X   2      13.725   8.212  29.8900  0.00  0.00     0.000 OA
ATOM     36   O  A00 X   2      14.001   7.538  32.0940  0.00  0.00     0.000 O
ATOM     37   O  A00 X   2      12.653   6.256  30.6760  0.00  0.00     0.000 OA
ATOM     38   S  A00 X   2      12.944   7.633  30.9330  0.00  0.00     0.000 S
ATOM     39   O  A00 X   2      11.879   8.456  31.4220  0.00  0.00     0.000 OA
ENDBRANCH 24 34
BRANCH 20 40
ATOM     40  O4  A00 X   3      13.503   4.442  36.2180  0.00  0.00     0.000 O
BRANCH 40 44
ATOM     41  C1  A00 X   3      13.548   6.450  39.2330  0.00  0.00     0.000 C
ATOM     42  C2  A00 X   3      14.129   5.024  39.1170  0.00  0.00     0.000 C
ATOM     43  C3  A00 X   3      13.092   4.051  38.4980  0.00  0.00     0.000 C
ATOM     44  C4  A00 X   3      12.455   4.544  37.2050  0.00  0.00     0.000 C
ATOM     45  C5  A00 X   3      11.891   5.979  37.4030  0.00  0.00     0.000 C
ATOM     46  O5  A00 X   3      12.898   6.859  37.9980  0.00  0.00     0.000 O
ATOM     47   O  A00 X   3      13.489   2.684  38.4220  0.00  0.00     0.000 O
ATOM     49  HD  A00 X   3      13.081   2.724  37.6600  0.00  0.00     0.000 HD
BRANCH 42 49
ATOM     49   O  A00 X   3      15.318   5.117  38.3020  0.00  0.00     0.000 O
ATOM     50   O  A00 X   3      17.010   3.610  37.5280  0.00  0.00     0.000 OA
ATOM     51   O  A00 X   3      16.251   3.426  39.7600  0.00  0.00     0.000 OA
ATOM     52   O  A00 X   3      17.498   5.338  39.1470  0.00  0.00     0.000 OA
ATOM     53   S  A00 X   3      16.603   4.330  38.6940  0.00  0.00     0.000 S
ENDBRANCH 42 49
BRANCH 45 54
ATOM     54   C  A00 X   3      10.567   5.967  38.1770  0.00  0.00     0.000 C
ATOM     55   O  A00 X   3       9.776   6.881  38.0650  0.00  0.00     0.000 OA
ATOM     56   O  A00 X   3      10.286   5.040  38.9210  0.00  0.00     0.000 OA
ENDBRANCH 45 54
BRANCH 41 57
ATOM     57  O4  A00 X   4      12.720   6.595  40.4080  0.00  0.00     0.000 O
BRANCH 57 61
ATOM     58  C1  A00 X   4      11.124  10.117  42.3280  0.00  0.00     0.000 C
ATOM     59  C2  A00 X   4      10.159   9.207  41.5280  0.00  0.00     0.000 C
ATOM     60  C3  A00 X   4      10.750   7.821  41.2010  0.00  0.00     0.000 C
ATOM     61  C4  A00 X   4      12.177   7.929  40.6210  0.00  0.00     0.000 C
ATOM     62  C5  A00 X   4      13.020   8.689  41.6750  0.00  0.00     0.000 C
ATOM     63  O5  A00 X   4      12.483  10.026  41.8420  0.00  0.00     0.000 O
BRANCH 59 66
ATOM     64   N  A00 X   4       9.369   9.347  40.2910  0.00  0.00     0.000 N
ATOM     66  HD  A00 X   4       9.775   9.655  39.5910  0.00  0.00     0.000 HD
ATOM     66   O  A00 X   4       8.202  11.162  41.3610  0.00  0.00     0.000 OA
ATOM     67   S  A00 X   4       7.996  10.164  40.3580  0.00  0.00     0.000 S
ATOM     68   O  A00 X   4       7.918  10.650  39.0110  0.00  0.00     0.000 OA
ATOM     69   O  A00 X   4       7.081   9.098  40.6520  0.00  0.00     0.000 OA
ENDBRANCH 59 66
BRANCH 62 70
ATOM     70   C  A00 X   4      14.522   8.803  41.3220  0.00  0.00     0.000 C
ATOM     71   O  A00 X   4      16.151  11.159  39.1080  0.00  0.00     0.000 OA
ATOM     72   O  A00 X   4      16.316   8.814  39.2430  0.00  0.00     0.000 OA
ATOM     73   O  A00 X   4      14.749  10.028  40.6050  0.00  0.00     0.000 O
ATOM     74   O  A00 X   4      14.339   9.826  38.2400  0.00  0.00     0.000 OA
ATOM     75   S  A00 X   4      15.404   9.935  39.1840  0.00  0.00     0.000 S
ENDBRANCH 62 70
ENDBRANCH 57 61
ENDBRANCH 41 57
ENDBRANCH 40 44
ENDBRANCH 20 40
ENDBRANCH 19 23
ENDBRANCH 1 19
TORSDOF 14
ENDMDL
MODEL 9
REMARK VINA RESULT:      -3.1     14.458     19.903
ROOT
ATOM      1  C1  A00 X   1       8.417   7.300  56.0620  0.00  0.00     0.000 C
ATOM      2  C2  A00 X   1       9.505   8.163  56.7560  0.00  0.00     0.000 C
ATOM      3  C3  A00 X   1      10.830   8.375  55.9520  0.00  0.00     0.000 C
ATOM      4  C4  A00 X   1      11.044   7.417  54.7520  0.00  0.00     0.000 C
ATOM      5  C5  A00 X   1      10.234   6.129  54.8900  0.00  0.00     0.000 C
ATOM      6  O5  A00 X   1       8.855   6.561  54.8950  0.00  0.00     0.000 O
ATOM      7   O  A00 X   1      11.935   8.176  56.8310  0.00  0.00     0.000 O
ATOM      9  HD  A00 X   1      12.136   7.798  56.0780  0.00  0.00     0.000 HD
ATOM      9   O  A00 X   1      10.730   8.054  53.5130  0.00  0.00     0.000 O
ATOM     11  HD  A00 X   1      10.931   7.677  52.7600  0.00  0.00     0.000 HD
ENDROOT
BRANCH 2 11
ATOM     11   O  A00 X   1       8.924   9.449  57.0490  0.00  0.00     0.000 O
ATOM     12   O  A00 X   1      10.073  11.090  58.3720  0.00  0.00     0.000 OA
ATOM     13   O  A00 X   1       9.427   8.979  59.3930  0.00  0.00     0.000 OA
ATOM     14   O  A00 X   1       7.773  10.562  58.7490  0.00  0.00     0.000 OA
ATOM     15   S  A00 X   1       9.089  10.044  58.4900  0.00  0.00     0.000 S
ENDBRANCH 2 11
BRANCH 5 16
ATOM     16   C  A00 X   1      10.607   5.254  56.0910  0.00  0.00     0.000 C
ATOM     17   O  A00 X   1       9.863   4.348  56.4040  0.00  0.00     0.000 OA
ATOM     18   O  A00 X   1      11.621   5.432  56.7370  0.00  0.00     0.000 OA
ENDBRANCH 5 16
BRANCH 1 19
ATOM     19  O4  A00 X   2       7.701   6.448  56.9900  0.00  0.00     0.000 O
BRANCH 19 23
ATOM     20  C1  A00 X   2       3.983   6.709  54.8750  0.00  0.00     0.000 C
ATOM     21  C2  A00 X   2       4.213   7.701  56.0410  0.00  0.00     0.000 C
ATOM     22  C3  A00 X   2       5.710   7.783  56.4060  0.00  0.00     0.000 C
ATOM     23  C4  A00 X   2       6.277   6.374  56.6950  0.00  0.00     0.000 C
ATOM     24  C5  A00 X   2       5.967   5.477  55.4660  0.00  0.00     0.000 C
ATOM     25  O5  A00 X   2       4.529   5.425  55.2750  0.00  0.00     0.000 O
ATOM     26   O  A00 X   2       5.879   8.764  57.4430  0.00  0.00     0.000 O
ATOM     28  HD  A00 X   2       5.255   8.423  57.9370  0.00  0.00     0.000 HD
BRANCH 21 30
ATOM     28   N  A00 X   2       2.784   7.615  56.3580  0.00  0.00     0.000 N
ATOM     30  HD  A00 X   2       3.089   8.317  56.7630  0.00  0.00     0.000 HD
ATOM     30   O  A00 X   2       2.101   9.682  57.2060  0.00  0.00     0.000 OA
ATOM     31   S  A00 X   2       2.249   8.343  57.6550  0.00  0.00     0.000 S
ATOM     32   O  A00 X   2       1.024   7.664  57.9440  0.00  0.00     0.000 OA
ATOM     33   O  A00 X   2       3.205   8.109  58.6960  0.00  0.00     0.000 OA
ENDBRANCH 21 30
BRANCH 24 34
ATOM     34   C  A00 X   2       6.629   4.080  55.4030  0.00  0.00     0.000 C
ATOM     35   O  A00 X   2       6.004   1.416  57.8050  0.00  0.00     0.000 OA
ATOM     36   O  A00 X   2       6.477   3.373  56.6500  0.00  0.00     0.000 O
ATOM     37   O  A00 X   2       4.308   2.502  56.5650  0.00  0.00     0.000 OA
ATOM     38   S  A00 X   2       5.660   2.032  56.5660  0.00  0.00     0.000 S
ATOM     39   O  A00 X   2       6.125   1.347  55.3970  0.00  0.00     0.000 OA
ENDBRANCH 24 34
BRANCH 20 40
ATOM     40  O4  A00 X   3       4.737   7.228  53.7700  0.00  0.00     0.000 O
BRANCH 40 44
ATOM     41  C1  A00 X   3       6.777   7.712  50.8150  0.00  0.00     0.000 C
ATOM     42  C2  A00 X   3       5.725   8.717  51.3330  0.00  0.00     0.000 C
ATOM     43  C3  A00 X   3       4.366   8.016  51.5880  0.00  0.00     0.000 C
ATOM     44  C4  A00 X   3       4.454   6.753  52.4360  0.00  0.00     0.000 C
ATOM     45  C5  A00 X   3       5.527   5.793  51.8510  0.00  0.00     0.000 C
ATOM     46  O5  A00 X   3       6.788   6.498  51.6160  0.00  0.00     0.000 O
ATOM     47   O  A00 X   3       3.292   8.865  51.9870  0.00  0.00     0.000 O
ATOM     49  HD  A00 X   3       3.104   8.197  52.5050  0.00  0.00     0.000 HD
BRANCH 42 49
ATOM     49   O  A00 X   3       6.255   9.298  52.5440  0.00  0.00     0.000 O
ATOM     50   O  A00 X   3       5.510  10.884  54.1750  0.00  0.00     0.000 OA
ATOM     51   O  A00 X   3       5.096  11.319  51.8890  0.00  0.00     0.000 OA
ATOM     52   O  A00 X   3       7.328  11.383  52.6620  0.00  0.00     0.000 OA
ATOM     53   S  A00 X   3       6.041  10.809  52.8510  0.00  0.00     0.000 S
ENDBRANCH 42 49
BRANCH 45 54
ATOM     54   C  A00 X   3       5.010   5.053  50.6110  0.00  0.00     0.000 C
ATOM     55   O  A00 X   3       4.074   5.492  49.9740  0.00  0.00     0.000 OA
ATOM     56   O  A00 X   3       5.529   4.010  50.2440  0.00  0.00     0.000 OA
ENDBRANCH 45 54
BRANCH 41 57
ATOM     57  O4  A00 X   4       6.638   7.478  49.3960  0.00  0.00     0.000 O
BRANCH 57 61
ATOM     58  C1  A00 X   4       9.475   6.677  46.2420  0.00  0.00     0.000 C
ATOM     59  C2  A00 X   4       9.241   5.591  47.3220  0.00  0.00     0.000 C
ATOM     60  C3  A00 X   4       7.974   5.829  48.1690  0.00  0.00     0.000 C
ATOM     61  C4  A00 X   4       7.888   7.284  48.6760  0.00  0.00     0.000 C
ATOM     62  C5  A00 X   4       7.928   8.188  47.4180  0.00  0.00     0.000 C
ATOM     63  O5  A00 X   4       9.198   8.005  46.7400  0.00  0.00     0.000 O
BRANCH 59 66
ATOM     64   N  A00 X   4       9.726   4.519  48.2100  0.00  0.00     0.000 N
ATOM     66  HD  A00 X   4      10.035   4.751  48.9850  0.00  0.00     0.000 HD
ATOM     66   O  A00 X   4      11.579   4.241  46.6970  0.00  0.00     0.000 OA
ATOM     67   S  A00 X   4      10.805   3.488  47.6340  0.00  0.00     0.000 S
ATOM     68   O  A00 X   4      11.484   3.122  48.8420  0.00  0.00     0.000 OA
ATOM     69   O  A00 X   4       9.932   2.471  47.1180  0.00  0.00     0.000 OA
ENDBRANCH 59 66
BRANCH 62 70
ATOM     70   C  A00 X   4       7.742   9.695  47.7160  0.00  0.00     0.000 C
ATOM     71   O  A00 X   4       6.888  12.364  45.4250  0.00  0.00     0.000 OA
ATOM     72   O  A00 X   4       8.599  12.213  47.0350  0.00  0.00     0.000 OA
ATOM     73   O  A00 X   4       7.167  10.338  46.5670  0.00  0.00     0.000 O
ATOM     74   O  A00 X   4       8.812  10.996  44.9340  0.00  0.00     0.000 OA
ATOM     75   S  A00 X   4       7.949  11.540  45.9320  0.00  0.00     0.000 S
ENDBRANCH 62 70
ENDBRANCH 57 61
ENDBRANCH 41 57
ENDBRANCH 40 44
ENDBRANCH 20 40
ENDBRANCH 19 23
ENDBRANCH 1 19
TORSDOF 14
ENDMDL
MODEL 10
REMARK VINA RESULT:      -3.1      3.680      6.661
ROOT
ATOM      1  C1  A00 X   1      17.041   6.890  34.5300  0.00  0.00     0.000 C
ATOM      2  C2  A00 X   1      18.468   6.304  34.3620  0.00  0.00     0.000 C
ATOM      3  C3  A00 X   1      19.540   6.801  35.3880  0.00  0.00     0.000 C
ATOM      4  C4  A00 X   1      19.155   8.066  36.1970  0.00  0.00     0.000 C
ATOM      5  C5  A00 X   1      18.084   8.899  35.4910  0.00  0.00     0.000 C
ATOM      6  O5  A00 X   1      16.932   8.029  35.4190  0.00  0.00     0.000 O
ATOM      7   O  A00 X   1      20.736   7.120  34.6810  0.00  0.00     0.000 O
ATOM      9  HD  A00 X   1      20.619   7.738  35.2770  0.00  0.00     0.000 HD
ATOM      9   O  A00 X   1      18.716   7.731  37.5130  0.00  0.00     0.000 O
ATOM     11  HD  A00 X   1      18.599   8.349  38.1090  0.00  0.00     0.000 HD
ENDROOT
BRANCH 2 11
ATOM     11   O  A00 X   1      18.366   4.870  34.4470  0.00  0.00     0.000 O
ATOM     12   O  A00 X   1      16.790   3.792  35.9030  0.00  0.00     0.000 OA
ATOM     13   O  A00 X   1      18.569   5.143  36.8660  0.00  0.00     0.000 OA
ATOM     14   O  A00 X   1      19.070   3.087  35.7800  0.00  0.00     0.000 OA
ATOM     15   S  A00 X   1      18.169   4.205  35.8530  0.00  0.00     0.000 S
ENDBRANCH 2 11
BRANCH 5 16
ATOM     16   C  A00 X   1      18.502   9.477  34.1360  0.00  0.00     0.000 C
ATOM     17   O  A00 X   1      17.653   9.993  33.4380  0.00  0.00     0.000 OA
ATOM     18   O  A00 X   1      19.649   9.443  33.7380  0.00  0.00     0.000 OA
ENDBRANCH 5 16
BRANCH 1 19
ATOM     19  O4  A00 X   2      16.386   7.145  33.2630  0.00  0.00     0.000 O
BRANCH 19 23
ATOM     20  C1  A00 X   2      12.456   6.308  34.7510  0.00  0.00     0.000 C
ATOM     21  C2  A00 X   2      13.217   5.154  34.0560  0.00  0.00     0.000 C
ATOM     22  C3  A00 X   2      14.727   5.463  33.9730  0.00  0.00     0.000 C
ATOM     23  C4  A00 X   2      14.964   6.832  33.2950  0.00  0.00     0.000 C
ATOM     24  C5  A00 X   2      14.137   7.894  34.0690  0.00  0.00     0.000 C
ATOM     25  O5  A00 X   2      12.734   7.527  34.0110  0.00  0.00     0.000 O
ATOM     26   O  A00 X   2      15.397   4.336  33.3840  0.00  0.00     0.000 O
ATOM     28  HD  A00 X   2      14.849   4.296  32.7150  0.00  0.00     0.000 HD
BRANCH 21 30
ATOM     28   N  A00 X   2      11.929   4.671  33.5510  0.00  0.00     0.000 N
ATOM     30  HD  A00 X   2      12.497   4.026  33.4440  0.00  0.00     0.000 HD
ATOM     30   O  A00 X   2      12.049   2.345  33.3590  0.00  0.00     0.000 OA
ATOM     31   S  A00 X   2      11.920   3.478  32.5130  0.00  0.00     0.000 S
ATOM     32   O  A00 X   2      10.653   3.605  31.8620  0.00  0.00     0.000 OA
ATOM     33   O  A00 X   2      12.983   3.718  31.5830  0.00  0.00     0.000 OA
ENDBRANCH 21 30
BRANCH 24 34
ATOM     34   C  A00 X   2      14.378   9.386  33.7360  0.00  0.00     0.000 C
ATOM     35   O  A00 X   2      14.139  10.793  30.3860  0.00  0.00     0.000 OA
ATOM     36   O  A00 X   2      14.564   9.581  32.3200  0.00  0.00     0.000 O
ATOM     37   O  A00 X   2      12.396   9.593  31.4440  0.00  0.00     0.000 OA
ATOM     38   S  A00 X   2      13.492  10.496  31.6220  0.00  0.00     0.000 S
ATOM     39   O  A00 X   2      13.293  11.619  32.4880  0.00  0.00     0.000 OA
ENDBRANCH 24 34
BRANCH 20 40
ATOM     40  O4  A00 X   3      13.018   6.407  36.0670  0.00  0.00     0.000 O
BRANCH 40 44
ATOM     41  C1  A00 X   3      13.701   6.243  39.6210  0.00  0.00     0.000 C
ATOM     42  C2  A00 X   3      12.923   5.174  38.8240  0.00  0.00     0.000 C
ATOM     43  C3  A00 X   3      11.792   5.821  37.9840  0.00  0.00     0.000 C
ATOM     44  C4  A00 X   3      12.236   7.000  37.1270  0.00  0.00     0.000 C
ATOM     45  C5  A00 X   3      13.005   8.032  37.9980  0.00  0.00     0.000 C
ATOM     46  O5  A00 X   3      14.055   7.377  38.7810  0.00  0.00     0.000 O
ATOM     47   O  A00 X   3      10.950   4.917  37.2720  0.00  0.00     0.000 O
ATOM     49  HD  A00 X   3      10.997   5.530  36.6620  0.00  0.00     0.000 HD
BRANCH 42 49
ATOM     49   O  A00 X   3      13.880   4.492  37.9850  0.00  0.00     0.000 O
ATOM     50   O  A00 X   3      13.819   2.732  36.3630  0.00  0.00     0.000 OA
ATOM     51   O  A00 X   3      12.532   2.513  38.3340  0.00  0.00     0.000 OA
ATOM     52   O  A00 X   3      14.888   2.437  38.5120  0.00  0.00     0.000 OA
ATOM     53   S  A00 X   3      13.786   2.953  37.7750  0.00  0.00     0.000 S
ENDBRANCH 42 49
BRANCH 45 54
ATOM     54   C  A00 X   3      12.052   8.875  38.8540  0.00  0.00     0.000 C
ATOM     55   O  A00 X   3      12.464   9.828  39.4820  0.00  0.00     0.000 OA
ATOM     56   O  A00 X   3      10.863   8.602  38.9190  0.00  0.00     0.000 OA
ENDBRANCH 45 54
BRANCH 41 57
ATOM     57  O4  A00 X   4      13.013   6.608  40.8390  0.00  0.00     0.000 O
BRANCH 57 61
ATOM     58  C1  A00 X   4      14.596   8.321  44.4720  0.00  0.00     0.000 C
ATOM     59  C2  A00 X   4      13.574   9.144  43.6480  0.00  0.00     0.000 C
ATOM     60  C3  A00 X   4      12.819   8.308  42.5940  0.00  0.00     0.000 C
ATOM     61  C4  A00 X   4      13.780   7.436  41.7590  0.00  0.00     0.000 C
ATOM     62  C5  A00 X   4      14.549   6.546  42.7670  0.00  0.00     0.000 C
ATOM     63  O5  A00 X   4      15.334   7.391  43.6470  0.00  0.00     0.000 O
BRANCH 59 66
ATOM     64   N  A00 X   4      12.998  10.411  43.1650  0.00  0.00     0.000 N
ATOM     66  HD  A00 X   4      13.270  10.707  42.3980  0.00  0.00     0.000 HD
ATOM     66   O  A00 X   4      14.241  11.523  44.9020  0.00  0.00     0.000 OA
ATOM     67   S  A00 X   4      13.047  11.683  44.1330  0.00  0.00     0.000 S
ATOM     68   O  A00 X   4      13.072  12.743  43.1680  0.00  0.00     0.000 OA
ATOM     69   O  A00 X   4      11.790  11.534  44.8110  0.00  0.00     0.000 OA
ENDBRANCH 59 66
BRANCH 62 70
ATOM     70   C  A00 X   4      15.493   5.512  42.1060  0.00  0.00     0.000 C
ATOM     71   O  A00 X   4      18.856   5.996  40.8570  0.00  0.00     0.000 OA
ATOM     72   O  A00 X   4      16.979   4.985  39.8580  0.00  0.00     0.000 OA
ATOM     73   O  A00 X   4      16.810   6.075  41.9950  0.00  0.00     0.000 O
ATOM     74   O  A00 X   4      17.098   7.414  40.0120  0.00  0.00     0.000 OA
ATOM     75   S  A00 X   4      17.458   6.150  40.5690  0.00  0.00     0.000 S
ENDBRANCH 62 70
ENDBRANCH 57 61
ENDBRANCH 41 57
ENDBRANCH 40 44
ENDBRANCH 20 40
ENDBRANCH 19 23
ENDBRANCH 1 19
TORSDOF 14
ENDMDL
MODEL 11
REMARK VINA RESULT:      -2.8     13.934     19.311
ROOT
ATOM      1  C1  A00 X   1       8.559   7.987  55.6320  0.00  0.00     0.000 C
ATOM      2  C2  A00 X   1       9.425   8.623  56.7520  0.00  0.00     0.000 C
ATOM      3  C3  A00 X   1      10.948   8.786  56.4340  0.00  0.00     0.000 C
ATOM      4  C4  A00 X   1      11.467   7.975  55.2190  0.00  0.00     0.000 C
ATOM      5  C5  A00 X   1      10.571   6.779  54.8970  0.00  0.00     0.000 C
ATOM      6  O5  A00 X   1       9.294   7.361  54.5510  0.00  0.00     0.000 O
ATOM      7   O  A00 X   1      11.700   8.350  57.5630  0.00  0.00     0.000 O
ATOM      9  HD  A00 X   1      12.105   8.053  56.8570  0.00  0.00     0.000 HD
ATOM      9   O  A00 X   1      11.606   8.799  54.0620  0.00  0.00     0.000 O
ATOM     11  HD  A00 X   1      12.010   8.502  53.3560  0.00  0.00     0.000 HD
ENDROOT
BRANCH 2 11
ATOM     11   O  A00 X   1       8.868   9.917  57.0560  0.00  0.00     0.000 O
ATOM     12   O  A00 X   1       9.564  11.180  58.9760  0.00  0.00     0.000 OA
ATOM     13   O  A00 X   1       8.441   9.047  59.2980  0.00  0.00     0.000 OA
ATOM     14   O  A00 X   1       7.255  10.912  58.4190  0.00  0.00     0.000 OA
ATOM     15   S  A00 X   1       8.534  10.268  58.5460  0.00  0.00     0.000 S
ENDBRANCH 2 11
BRANCH 5 16
ATOM     16   C  A00 X   1      10.483   5.720  56.0000  0.00  0.00     0.000 C
ATOM     17   O  A00 X   1      11.337   5.707  56.8620  0.00  0.00     0.000 OA
ATOM     18   O  A00 X   1       9.589   4.899  56.0450  0.00  0.00     0.000 OA
ENDBRANCH 5 16
BRANCH 1 19
ATOM     19  O4  A00 X   2       7.530   7.109  56.1500  0.00  0.00     0.000 O
BRANCH 19 23
ATOM     20  C1  A00 X   2       4.731   8.007  53.0310  0.00  0.00     0.000 C
ATOM     21  C2  A00 X   2       4.622   8.819  54.3450  0.00  0.00     0.000 C
ATOM     22  C3  A00 X   2       5.919   8.701  55.1720  0.00  0.00     0.000 C
ATOM     23  C4  A00 X   2       6.279   7.218  55.4120  0.00  0.00     0.000 C
ATOM     24  C5  A00 X   2       6.339   6.514  54.0280  0.00  0.00     0.000 C
ATOM     25  O5  A00 X   2       5.042   6.634  53.3870  0.00  0.00     0.000 O
ATOM     26   O  A00 X   2       5.794   9.525  56.3450  0.00  0.00     0.000 O
ATOM     28  HD  A00 X   2       5.024   9.191  56.5580  0.00  0.00     0.000 HD
BRANCH 21 30
ATOM     28   N  A00 X   2       3.157   8.791  54.2890  0.00  0.00     0.000 N
ATOM     30  HD  A00 X   2       3.376   9.456  54.8000  0.00  0.00     0.000 HD
ATOM     30   O  A00 X   2       2.361  10.846  55.0640  0.00  0.00     0.000 OA
ATOM     31   S  A00 X   2       2.341   9.481  55.4540  0.00  0.00     0.000 S
ATOM     32   O  A00 X   2       1.058   8.852  55.3860  0.00  0.00     0.000 OA
ATOM     33   O  A00 X   2       2.994   9.147  56.6840  0.00  0.00     0.000 OA
ENDBRANCH 21 30
BRANCH 24 34
ATOM     34   C  A00 X   2       6.904   5.076  53.9690  0.00  0.00     0.000 C
ATOM     35   O  A00 X   2       5.423   2.229  55.6900  0.00  0.00     0.000 OA
ATOM     36   O  A00 X   2       6.339   4.249  55.0070  0.00  0.00     0.000 O
ATOM     37   O  A00 X   2       4.251   3.611  54.1700  0.00  0.00     0.000 OA
ATOM     38   S  A00 X   2       5.508   3.014  54.5020  0.00  0.00     0.000 S
ATOM     39   O  A00 X   2       6.264   2.424  53.4380  0.00  0.00     0.000 OA
ENDBRANCH 24 34
BRANCH 20 40
ATOM     40  O4  A00 X   3       5.834   8.578  52.3130  0.00  0.00     0.000 O
BRANCH 40 44
ATOM     41  C1  A00 X   3       8.804   8.268  50.2610  0.00  0.00     0.000 C
ATOM     42  C2  A00 X   3       8.191   9.607  50.7260  0.00  0.00     0.000 C
ATOM     43  C3  A00 X   3       6.675   9.664  50.4070  0.00  0.00     0.000 C
ATOM     44  C4  A00 X   3       5.883   8.450  50.8760  0.00  0.00     0.000 C
ATOM     45  C5  A00 X   3       6.557   7.146  50.3650  0.00  0.00     0.000 C
ATOM     46  O5  A00 X   3       7.987   7.139  50.6790  0.00  0.00     0.000 O
ATOM     47   O  A00 X   3       6.020  10.893  50.7150  0.00  0.00     0.000 O
ATOM     49  HD  A00 X   3       5.383  10.361  50.9630  0.00  0.00     0.000 HD
BRANCH 42 49
ATOM     49   O  A00 X   3       8.436   9.714  52.1460  0.00  0.00     0.000 O
ATOM     50   O  A00 X   3       7.949  11.298  53.8730  0.00  0.00     0.000 OA
ATOM     51   O  A00 X   3       8.657  12.093  51.7630  0.00  0.00     0.000 OA
ATOM     52   O  A00 X   3      10.209  10.919  53.1030  0.00  0.00     0.000 OA
ATOM     53   S  A00 X   3       8.835  11.081  52.7740  0.00  0.00     0.000 S
ENDBRANCH 42 49
BRANCH 45 54
ATOM     54   C  A00 X   3       6.263   6.898  48.8810  0.00  0.00     0.000 C
ATOM     55   O  A00 X   3       6.307   5.776  48.4200  0.00  0.00     0.000 OA
ATOM     56   O  A00 X   3       5.982   7.825  48.1360  0.00  0.00     0.000 OA
ENDBRANCH 45 54
BRANCH 41 57
ATOM     57  O4  A00 X   4       9.108   8.282  48.8490  0.00  0.00     0.000 O
BRANCH 57 61
ATOM     58  C1  A00 X   4      12.071   6.260  46.4470  0.00  0.00     0.000 C
ATOM     59  C2  A00 X   4      10.777   5.497  46.8260  0.00  0.00     0.000 C
ATOM     60  C3  A00 X   4       9.658   6.412  47.3610  0.00  0.00     0.000 C
ATOM     61  C4  A00 X   4      10.180   7.387  48.4380  0.00  0.00     0.000 C
ATOM     62  C5  A00 X   4      11.327   8.192  47.7780  0.00  0.00     0.000 C
ATOM     63  O5  A00 X   4      12.398   7.284  47.4130  0.00  0.00     0.000 O
BRANCH 59 66
ATOM     64   N  A00 X   4      10.772   4.429  47.8430  0.00  0.00     0.000 N
ATOM     66  HD  A00 X   4      11.295   4.526  48.5260  0.00  0.00     0.000 HD
ATOM     66   O  A00 X   4      11.873   3.023  46.2270  0.00  0.00     0.000 OA
ATOM     67   S  A00 X   4      11.007   2.922  47.3600  0.00  0.00     0.000 S
ATOM     68   O  A00 X   4      11.597   2.362  48.5400  0.00  0.00     0.000 OA
ATOM     69   O  A00 X   4       9.649   2.516  47.1310  0.00  0.00     0.000 OA
ENDBRANCH 59 66
BRANCH 62 70
ATOM     70   C  A00 X   4      11.913   9.308  48.6750  0.00  0.00     0.000 C
ATOM     71   O  A00 X   4      14.316  11.875  47.8120  0.00  0.00     0.000 OA
ATOM     72   O  A00 X   4      14.250  10.386  49.6350  0.00  0.00     0.000 OA
ATOM     73   O  A00 X   4      12.635  10.244  47.8580  0.00  0.00     0.000 O
ATOM     74   O  A00 X   4      14.909   9.568  47.4360  0.00  0.00     0.000 OA
ATOM     75   S  A00 X   4      14.144  10.503  48.1970  0.00  0.00     0.000 S
ENDBRANCH 62 70
ENDBRANCH 57 61
ENDBRANCH 41 57
ENDBRANCH 40 44
ENDBRANCH 20 40
ENDBRANCH 19 23
ENDBRANCH 1 19
TORSDOF 14
ENDMDL
MODEL 12
REMARK VINA RESULT:      -1.9      5.387     10.098
ROOT
ATOM      1  C1  A00 X   1      18.917   8.723  35.5130  0.00  0.00     0.000 C
ATOM      2  C2  A00 X   1      20.006   9.592  34.8300  0.00  0.00     0.000 C
ATOM      3  C3  A00 X   1      21.421   9.572  35.4990  0.00  0.00     0.000 C
ATOM      4  C4  A00 X   1      21.471   8.998  36.9380  0.00  0.00     0.000 C
ATOM      5  C5  A00 X   1      20.112   9.065  37.6350  0.00  0.00     0.000 C
ATOM      6  O5  A00 X   1      19.248   8.228  36.8340  0.00  0.00     0.000 O
ATOM      7   O  A00 X   1      21.908  10.909  35.5780  0.00  0.00     0.000 O
ATOM      9  HD  A00 X   1      22.110  10.519  36.3250  0.00  0.00     0.000 HD
ATOM      9   O  A00 X   1      21.952   7.654  36.9480  0.00  0.00     0.000 O
ATOM     11  HD  A00 X   1      22.154   7.264  37.6940  0.00  0.00     0.000 HD
ENDROOT
BRANCH 2 11
ATOM     11   O  A00 X   1      20.127   9.151  33.4640  0.00  0.00     0.000 O
ATOM     12   O  A00 X   1      20.026   6.828  32.8660  0.00  0.00     0.000 OA
ATOM     13   O  A00 X   1      21.853   7.619  34.2630  0.00  0.00     0.000 OA
ATOM     14   O  A00 X   1      21.707   8.279  31.9820  0.00  0.00     0.000 OA
ATOM     15   S  A00 X   1      20.977   7.872  33.1520  0.00  0.00     0.000 S
ENDBRANCH 2 11
BRANCH 5 16
ATOM     16   C  A00 X   1      19.566  10.480  37.8530  0.00  0.00     0.000 C
ATOM     17   O  A00 X   1      20.327  11.419  37.7500  0.00  0.00     0.000 OA
ATOM     18   O  A00 X   1      18.399  10.694  38.1160  0.00  0.00     0.000 OA
ENDBRANCH 5 16
BRANCH 1 19
ATOM     19  O4  A00 X   2      17.609   9.346  35.4950  0.00  0.00     0.000 O
BRANCH 19 23
ATOM     20  C1  A00 X   2      15.414   5.668  35.6490  0.00  0.00     0.000 C
ATOM     21  C2  A00 X   2      15.833   6.192  34.2540  0.00  0.00     0.000 C
ATOM     22  C3  A00 X   2      16.953   7.247  34.3770  0.00  0.00     0.000 C
ATOM     23  C4  A00 X   2      16.531   8.378  35.3410  0.00  0.00     0.000 C
ATOM     24  C5  A00 X   2      16.120   7.725  36.6890  0.00  0.00     0.000 C
ATOM     25  O5  A00 X   2      15.016   6.814  36.4480  0.00  0.00     0.000 O
ATOM     26   O  A00 X   2      17.354   7.650  33.0560  0.00  0.00     0.000 O
ATOM     28  HD  A00 X   2      16.540   7.801  32.8010  0.00  0.00     0.000 HD
BRANCH 21 30
ATOM     28   N  A00 X   2      14.593   5.616  33.7260  0.00  0.00     0.000 N
ATOM     30  HD  A00 X   2      15.095   5.798  33.0440  0.00  0.00     0.000 HD
ATOM     30   O  A00 X   2      14.971   4.986  31.5080  0.00  0.00     0.000 OA
ATOM     31   S  A00 X   2      14.189   5.926  32.2300  0.00  0.00     0.000 S
ATOM     32   O  A00 X   2      12.779   5.688  32.2030  0.00  0.00     0.000 OA
ATOM     33   O  A00 X   2      14.463   7.313  31.9960  0.00  0.00     0.000 OA
ENDBRANCH 21 30
BRANCH 24 34
ATOM     34   C  A00 X   2      15.874   8.654  37.9010  0.00  0.00     0.000 C
ATOM     35   O  A00 X   2      12.986   8.413  40.1040  0.00  0.00     0.000 OA
ATOM     36   O  A00 X   2      14.511   8.563  38.3610  0.00  0.00     0.000 O
ATOM     37   O  A00 X   2      14.466   6.621  39.6650  0.00  0.00     0.000 OA
ATOM     38   S  A00 X   2      14.334   8.036  39.8330  0.00  0.00     0.000 S
ATOM     39   O  A00 X   2      15.322   8.706  40.6240  0.00  0.00     0.000 OA
ENDBRANCH 24 34
BRANCH 20 40
ATOM     40  O4  A00 X   3      16.595   5.078  36.2120  0.00  0.00     0.000 O
BRANCH 40 44
ATOM     41  C1  A00 X   3      19.290   3.457  38.0110  0.00  0.00     0.000 C
ATOM     42  C2  A00 X   3      18.649   2.919  36.7130  0.00  0.00     0.000 C
ATOM     43  C3  A00 X   3      17.104   2.871  36.8360  0.00  0.00     0.000 C
ATOM     44  C4  A00 X   3      16.467   4.166  37.3240  0.00  0.00     0.000 C
ATOM     45  C5  A00 X   3      17.160   4.640  38.6320  0.00  0.00     0.000 C
ATOM     46  O5  A00 X   3      18.616   4.660  38.4740  0.00  0.00     0.000 O
ATOM     47   O  A00 X   3      16.408   2.307  35.7260  0.00  0.00     0.000 O
ATOM     49  HD  A00 X   3      15.848   2.945  35.8970  0.00  0.00     0.000 HD
BRANCH 42 49
ATOM     49   O  A00 X   3      19.066   3.792  35.6410  0.00  0.00     0.000 O
ATOM     50   O  A00 X   3      18.695   3.937  33.2810  0.00  0.00     0.000 OA
ATOM     51   O  A00 X   3      19.067   1.812  34.2490  0.00  0.00     0.000 OA
ATOM     52   O  A00 X   3      20.859   3.353  34.1890  0.00  0.00     0.000 OA
ATOM     53   S  A00 X   3      19.446   3.203  34.2510  0.00  0.00     0.000 S
ENDBRANCH 42 49
BRANCH 45 54
ATOM     54   C  A00 X   3      16.696   3.828  39.8470  0.00  0.00     0.000 C
ATOM     55   O  A00 X   3      16.686   4.323  40.9550  0.00  0.00     0.000 OA
ATOM     56   O  A00 X   3      16.331   2.669  39.7220  0.00  0.00     0.000 OA
ENDBRANCH 45 54
BRANCH 41 57
ATOM     57  O4  A00 X   4      19.407   2.426  39.0160  0.00  0.00     0.000 O
BRANCH 57 61
ATOM     58  C1  A00 X   4      21.843   2.093  42.5650  0.00  0.00     0.000 C
ATOM     59  C2  A00 X   4      20.397   2.630  42.7060  0.00  0.00     0.000 C
ATOM     60  C3  A00 X   4      19.520   2.368  41.4650  0.00  0.00     0.000 C
ATOM     61  C4  A00 X   4      20.241   2.769  40.1590  0.00  0.00     0.000 C
ATOM     62  C5  A00 X   4      21.560   1.958  40.1230  0.00  0.00     0.000 C
ATOM     63  O5  A00 X   4      22.389   2.345  41.2500  0.00  0.00     0.000 O
BRANCH 59 66
ATOM     64   N  A00 X   4      19.320   2.654  43.7120  0.00  0.00     0.000 N
ATOM     66  HD  A00 X   4      18.656   3.193  43.5740  0.00  0.00     0.000 HD
ATOM     66   O  A00 X   4      20.877   3.719  45.2080  0.00  0.00     0.000 OA
ATOM     67   S  A00 X   4      19.719   2.882  45.2440  0.00  0.00     0.000 S
ATOM     68   O  A00 X   4      18.523   3.504  45.7330  0.00  0.00     0.000 OA
ATOM     69   O  A00 X   4      19.889   1.521  45.6670  0.00  0.00     0.000 OA
ENDBRANCH 59 66
BRANCH 62 70
ATOM     70   C  A00 X   4      22.380   2.142  38.8240  0.00  0.00     0.000 C
ATOM     71   O  A00 X   4      24.642   4.827  37.9380  0.00  0.00     0.000 OA
ATOM     72   O  A00 X   4      22.868   3.855  36.7330  0.00  0.00     0.000 OA
ATOM     73   O  A00 X   4      23.324   3.211  39.0050  0.00  0.00     0.000 O
ATOM     74   O  A00 X   4      22.382   5.385  38.5670  0.00  0.00     0.000 OA
ATOM     75   S  A00 X   4      23.268   4.417  38.0040  0.00  0.00     0.000 S
ENDBRANCH 62 70
ENDBRANCH 57 61
ENDBRANCH 41 57
ENDBRANCH 40 44
ENDBRANCH 20 40
ENDBRANCH 19 23
ENDBRANCH 1 19
TORSDOF 14
ENDMDL
MODEL 13
REMARK VINA RESULT:      -1.5      6.139     11.077
ROOT
ATOM      1  C1  A00 X   1      19.502   9.691  34.5740  0.00  0.00     0.000 C
ATOM      2  C2  A00 X   1      20.416  10.237  33.4440  0.00  0.00     0.000 C
ATOM      3  C3  A00 X   1      21.907  10.501  33.8350  0.00  0.00     0.000 C
ATOM      4  C4  A00 X   1      22.203  10.542  35.3560  0.00  0.00     0.000 C
ATOM      5  C5  A00 X   1      20.955  10.858  36.1790  0.00  0.00     0.000 C
ATOM      6  O5  A00 X   1      20.052   9.761  35.9130  0.00  0.00     0.000 O
ATOM      7   O  A00 X   1      22.299  11.769  33.3120  0.00  0.00     0.000 O
ATOM      9  HD  A00 X   1      22.633  11.707  34.1090  0.00  0.00     0.000 HD
ATOM      9   O  A00 X   1      22.781   9.317  35.8080  0.00  0.00     0.000 O
ATOM     11  HD  A00 X   1      23.114   9.255  36.6050  0.00  0.00     0.000 HD
ENDROOT
BRANCH 2 11
ATOM     11   O  A00 X   1      20.376   9.295  32.3550  0.00  0.00     0.000 O
ATOM     12   O  A00 X   1      20.190   6.930  32.7260  0.00  0.00     0.000 OA
ATOM     13   O  A00 X   1      22.171   8.105  33.5070  0.00  0.00     0.000 OA
ATOM     14   O  A00 X   1      21.769   7.837  31.1780  0.00  0.00     0.000 OA
ATOM     15   S  A00 X   1      21.175   7.953  32.4830  0.00  0.00     0.000 S
ENDBRANCH 2 11
BRANCH 5 16
ATOM     16   C  A00 X   1      20.339  12.237  35.9170  0.00  0.00     0.000 C
ATOM     17   O  A00 X   1      21.012  13.077  35.3570  0.00  0.00     0.000 OA
ATOM     18   O  A00 X   1      19.201  12.515  36.2420  0.00  0.00     0.000 OA
ENDBRANCH 5 16
BRANCH 1 19
ATOM     19  O4  A00 X   2      18.161  10.238  34.5240  0.00  0.00     0.000 O
BRANCH 19 23
ATOM     20  C1  A00 X   2      16.272   6.614  35.8140  0.00  0.00     0.000 C
ATOM     21  C2  A00 X   2      16.395   6.852  34.2900  0.00  0.00     0.000 C
ATOM     22  C3  A00 X   2      17.448   7.938  33.9860  0.00  0.00     0.000 C
ATOM     23  C4  A00 X   2      17.138   9.231  34.7730  0.00  0.00     0.000 C
ATOM     24  C5  A00 X   2      17.023   8.857  36.2760  0.00  0.00     0.000 C
ATOM     25  O5  A00 X   2      15.954   7.888  36.4350  0.00  0.00     0.000 O
ATOM     26   O  A00 X   2      17.574   8.073  32.5600  0.00  0.00     0.000 O
ATOM     28  HD  A00 X   2      16.719   8.148  32.4420  0.00  0.00     0.000 HD
BRANCH 21 30
ATOM     28   N  A00 X   2      15.102   6.183  34.1140  0.00  0.00     0.000 N
ATOM     30  HD  A00 X   2      15.478   6.211  33.3350  0.00  0.00     0.000 HD
ATOM     30   O  A00 X   2      15.124   5.088  32.0510  0.00  0.00     0.000 OA
ATOM     31   S  A00 X   2      14.445   6.167  32.6770  0.00  0.00     0.000 S
ATOM     32   O  A00 X   2      13.058   5.937  32.9400  0.00  0.00     0.000 OA
ATOM     33   O  A00 X   2      14.634   7.469  32.1100  0.00  0.00     0.000 OA
ENDBRANCH 21 30
BRANCH 24 34
ATOM     34   C  A00 X   2      16.944  10.007  37.3070  0.00  0.00     0.000 C
ATOM     35   O  A00 X   2      14.575  10.112  40.0700  0.00  0.00     0.000 OA
ATOM     36   O  A00 X   2      15.710   9.958  38.0510  0.00  0.00     0.000 O
ATOM     37   O  A00 X   2      16.084   8.331  39.6900  0.00  0.00     0.000 OA
ATOM     38   S  A00 X   2      15.870   9.743  39.6010  0.00  0.00     0.000 S
ATOM     39   O  A00 X   2      16.935  10.603  40.0210  0.00  0.00     0.000 OA
ENDBRANCH 24 34
BRANCH 20 40
ATOM     40  O4  A00 X   3      17.571   6.182  36.2450  0.00  0.00     0.000 O
BRANCH 40 44
ATOM     41  C1  A00 X   3      20.584   4.749  37.6560  0.00  0.00     0.000 C
ATOM     42  C2  A00 X   3      19.552   3.971  36.8110  0.00  0.00     0.000 C
ATOM     43  C3  A00 X   3      18.116   4.184  37.3550  0.00  0.00     0.000 C
ATOM     44  C4  A00 X   3      17.732   5.642  37.5740  0.00  0.00     0.000 C
ATOM     45  C5  A00 X   3      18.813   6.354  38.4350  0.00  0.00     0.000 C
ATOM     46  O5  A00 X   3      20.152   6.117  37.8920  0.00  0.00     0.000 O
ATOM     47   O  A00 X   3      17.087   3.442  36.7030  0.00  0.00     0.000 O
ATOM     49  HD  A00 X   3      16.642   4.177  36.8140  0.00  0.00     0.000 HD
BRANCH 42 49
ATOM     49   O  A00 X   3      19.677   4.443  35.4510  0.00  0.00     0.000 O
ATOM     50   O  A00 X   3      18.592   4.013  33.3620  0.00  0.00     0.000 OA
ATOM     51   O  A00 X   3      19.082   2.193  34.7890  0.00  0.00     0.000 OA
ATOM     52   O  A00 X   3      20.878   3.336  33.7640  0.00  0.00     0.000 OA
ATOM     53   S  A00 X   3      19.550   3.449  34.2600  0.00  0.00     0.000 S
ENDBRANCH 42 49
BRANCH 45 54
ATOM     54   C  A00 X   3      18.690   5.986  39.9180  0.00  0.00     0.000 C
ATOM     55   O  A00 X   3      19.329   6.585  40.7590  0.00  0.00     0.000 OA
ATOM     56   O  A00 X   3      17.950   5.084  40.2800  0.00  0.00     0.000 OA
ENDBRANCH 45 54
BRANCH 41 57
ATOM     57  O4  A00 X   4      20.939   4.030  38.8590  0.00  0.00     0.000 O
BRANCH 57 61
ATOM     58  C1  A00 X   4      24.511   4.216  41.2770  0.00  0.00     0.000 C
ATOM     59  C2  A00 X   4      23.190   4.775  41.8620  0.00  0.00     0.000 C
ATOM     60  C3  A00 X   4      21.937   4.336  41.0780  0.00  0.00     0.000 C
ATOM     61  C4  A00 X   4      22.113   4.535  39.5570  0.00  0.00     0.000 C
ATOM     62  C5  A00 X   4      23.368   3.722  39.1540  0.00  0.00     0.000 C
ATOM     63  O5  A00 X   4      24.528   4.267  39.8320  0.00  0.00     0.000 O
BRANCH 59 66
ATOM     64   N  A00 X   4      22.595   4.875  43.2070  0.00  0.00     0.000 N
ATOM     66  HD  A00 X   4      21.877   5.352  43.2920  0.00  0.00     0.000 HD
ATOM     66   O  A00 X   4      24.491   6.221  43.8350  0.00  0.00     0.000 OA
ATOM     67   S  A00 X   4      23.534   5.333  44.4180  0.00  0.00     0.000 S
ATOM     68   O  A00 X   4      22.565   5.947  45.2780  0.00  0.00     0.000 OA
ATOM     69   O  A00 X   4      23.999   4.054  44.8750  0.00  0.00     0.000 OA
ENDBRANCH 59 66
BRANCH 62 70
ATOM     70   C  A00 X   4      23.650   3.707  37.6320  0.00  0.00     0.000 C
ATOM     71   O  A00 X   4      25.264   6.236  35.6070  0.00  0.00     0.000 OA
ATOM     72   O  A00 X   4      23.240   5.076  35.2870  0.00  0.00     0.000 OA
ATOM     73   O  A00 X   4      24.525   4.797  37.3010  0.00  0.00     0.000 O
ATOM     74   O  A00 X   4      23.352   6.869  36.9330  0.00  0.00     0.000 OA
ATOM     75   S  A00 X   4      24.035   5.832  36.2290  0.00  0.00     0.000 S
ENDBRANCH 62 70
ENDBRANCH 57 61
ENDBRANCH 41 57
ENDBRANCH 40 44
ENDBRANCH 20 40
ENDBRANCH 19 23
ENDBRANCH 1 19
TORSDOF 14
ENDMDL
MODEL 14
REMARK VINA RESULT:      -1.4     12.641     18.299
ROOT
ATOM      1  C1  A00 X   1       8.298   8.358  53.6890  0.00  0.00     0.000 C
ATOM      2  C2  A00 X   1       9.403   8.611  54.7490  0.00  0.00     0.000 C
ATOM      3  C3  A00 X   1      10.851   8.821  54.1950  0.00  0.00     0.000 C
ATOM      4  C4  A00 X   1      11.072   8.391  52.7220  0.00  0.00     0.000 C
ATOM      5  C5  A00 X   1      10.035   7.369  52.2570  0.00  0.00     0.000 C
ATOM      6  O5  A00 X   1       8.769   8.060  52.3520  0.00  0.00     0.000 O
ATOM      7   O  A00 X   1      11.757   8.050  54.9810  0.00  0.00     0.000 O
ATOM      9  HD  A00 X   1      12.000   7.965  54.1550  0.00  0.00     0.000 HD
ATOM      9   O  A00 X   1      11.066   9.517  51.8440  0.00  0.00     0.000 O
ATOM     11  HD  A00 X   1      11.310   9.432  51.0170  0.00  0.00     0.000 HD
ENDROOT
BRANCH 2 11
ATOM     11   O  A00 X   1       9.020   9.772  55.5130  0.00  0.00     0.000 O
ATOM     12   O  A00 X   1      10.155  10.391  57.5360  0.00  0.00     0.000 OA
ATOM     13   O  A00 X   1       8.935   8.288  57.4510  0.00  0.00     0.000 OA
ATOM     14   O  A00 X   1       7.769  10.361  57.3940  0.00  0.00     0.000 OA
ATOM     15   S  A00 X   1       8.992   9.674  57.0770  0.00  0.00     0.000 S
ENDBRANCH 2 11
BRANCH 5 16
ATOM     16   C  A00 X   1      10.061   6.033  53.0070  0.00  0.00     0.000 C
ATOM     17   O  A00 X   1      11.027   5.771  53.6940  0.00  0.00     0.000 OA
ATOM     18   O  A00 X   1       9.150   5.232  52.9430  0.00  0.00     0.000 OA
ENDBRANCH 5 16
BRANCH 1 19
ATOM     19  O4  A00 X   2       7.310   7.393  54.1280  0.00  0.00     0.000 O
BRANCH 19 23
ATOM     20  C1  A00 X   2       4.068   9.264  52.0410  0.00  0.00     0.000 C
ATOM     21  C2  A00 X   2       4.282   9.652  53.5240  0.00  0.00     0.000 C
ATOM     22  C3  A00 X   2       5.696   9.254  53.9980  0.00  0.00     0.000 C
ATOM     23  C4  A00 X   2       5.958   7.755  53.7260  0.00  0.00     0.000 C
ATOM     24  C5  A00 X   2       5.693   7.493  52.2190  0.00  0.00     0.000 C
ATOM     25  O5  A00 X   2       4.315   7.837  51.9200  0.00  0.00     0.000 O
ATOM     26   O  A00 X   2       5.869   9.696  55.3550  0.00  0.00     0.000 O
ATOM     28  HD  A00 X   2       5.126   9.339  55.6190  0.00  0.00     0.000 HD
BRANCH 21 30
ATOM     28   N  A00 X   2       2.829   9.762  53.6810  0.00  0.00     0.000 N
ATOM     30  HD  A00 X   2       3.185  10.174  54.3540  0.00  0.00     0.000 HD
ATOM     30   O  A00 X   2       2.391  11.446  55.2400  0.00  0.00     0.000 OA
ATOM     31   S  A00 X   2       2.240  10.039  55.1220  0.00  0.00     0.000 S
ATOM     32   O  A00 X   2       0.888   9.581  55.0290  0.00  0.00     0.000 OA
ATOM     33   O  A00 X   2       2.978   9.227  56.0430  0.00  0.00     0.000 OA
ENDBRANCH 21 30
BRANCH 24 34
ATOM     34   C  A00 X   2       6.104   6.119  51.6380  0.00  0.00     0.000 C
ATOM     35   O  A00 X   2       5.210   2.922  53.1330  0.00  0.00     0.000 OA
ATOM     36   O  A00 X   2       5.923   5.067  52.6070  0.00  0.00     0.000 O
ATOM     37   O  A00 X   2       3.638   4.577  52.5140  0.00  0.00     0.000 OA
ATOM     38   S  A00 X   2       4.888   3.954  52.2030  0.00  0.00     0.000 S
ATOM     39   O  A00 X   2       5.148   3.637  50.8310  0.00  0.00     0.000 OA
ENDBRANCH 24 34
BRANCH 20 40
ATOM     40  O4  A00 X   3       5.063   9.987  51.3030  0.00  0.00     0.000 O
BRANCH 40 44
ATOM     41  C1  A00 X   3       7.589  11.296  49.0600  0.00  0.00     0.000 C
ATOM     42  C2  A00 X   3       6.418  12.117  49.6420  0.00  0.00     0.000 C
ATOM     43  C3  A00 X   3       5.067  11.392  49.4200  0.00  0.00     0.000 C
ATOM     44  C4  A00 X   3       5.050   9.934  49.8600  0.00  0.00     0.000 C
ATOM     45  C5  A00 X   3       6.252   9.174  49.2300  0.00  0.00     0.000 C
ATOM     46  O5  A00 X   3       7.505   9.899  49.4560  0.00  0.00     0.000 O
ATOM     47   O  A00 X   3       3.903  12.100  49.8410  0.00  0.00     0.000 O
ATOM     49  HD  A00 X   3       3.652  11.311  50.0950  0.00  0.00     0.000 HD
BRANCH 42 49
ATOM     49   O  A00 X   3       6.692  12.305  51.0480  0.00  0.00     0.000 O
ATOM     50   O  A00 X   3       5.898  13.741  52.7910  0.00  0.00     0.000 OA
ATOM     51   O  A00 X   3       6.287  14.657  50.6460  0.00  0.00     0.000 OA
ATOM     52   O  A00 X   3       8.144  13.933  51.9170  0.00  0.00     0.000 OA
ATOM     53   S  A00 X   3       6.760  13.738  51.6510  0.00  0.00     0.000 S
ENDBRANCH 42 49
BRANCH 45 54
ATOM     54   C  A00 X   3       6.004   8.843  47.7540  0.00  0.00     0.000 C
ATOM     55   O  A00 X   3       6.791   8.159  47.1320  0.00  0.00     0.000 OA
ATOM     56   O  A00 X   3       5.012   9.263  47.1770  0.00  0.00     0.000 OA
ENDBRANCH 45 54
BRANCH 41 57
ATOM     57  O4  A00 X   4       7.724  11.496  47.6350  0.00  0.00     0.000 O
BRANCH 57 61
ATOM     58  C1  A00 X   4      11.111  11.460  44.9580  0.00  0.00     0.000 C
ATOM     59  C2  A00 X   4      10.462  10.109  45.3500  0.00  0.00     0.000 C
ATOM     60  C3  A00 X   4       9.072  10.261  46.0010  0.00  0.00     0.000 C
ATOM     61  C4  A00 X   4       9.073  11.332  47.1120  0.00  0.00     0.000 C
ATOM     62  C5  A00 X   4       9.554  12.647  46.4500  0.00  0.00     0.000 C
ATOM     63  O5  A00 X   4      10.913  12.471  45.9720  0.00  0.00     0.000 O
BRANCH 59 66
ATOM     64   N  A00 X   4      11.155   9.236  46.3140  0.00  0.00     0.000 N
ATOM     66  HD  A00 X   4      11.610   9.618  46.9440  0.00  0.00     0.000 HD
ATOM     66   O  A00 X   4      12.661   8.635  44.5340  0.00  0.00     0.000 OA
ATOM     67   S  A00 X   4      12.123   8.098  45.7450  0.00  0.00     0.000 S
ATOM     68   O  A00 X   4      13.050   7.979  46.8330  0.00  0.00     0.000 OA
ATOM     69   O  A00 X   4      11.197   7.006  45.6400  0.00  0.00     0.000 OA
ENDBRANCH 59 66
BRANCH 62 70
ATOM     70   C  A00 X   4       9.519  13.877  47.3880  0.00  0.00     0.000 C
ATOM     71   O  A00 X   4      10.132  17.354  46.5840  0.00  0.00     0.000 OA
ATOM     72   O  A00 X   4      10.989  16.005  48.3140  0.00  0.00     0.000 OA
ATOM     73   O  A00 X   4       9.578  15.077  46.6010  0.00  0.00     0.000 O
ATOM     74   O  A00 X   4      11.829  15.729  46.0430  0.00  0.00     0.000 OA
ATOM     75   S  A00 X   4      10.740  16.090  46.8920  0.00  0.00     0.000 S
ENDBRANCH 62 70
ENDBRANCH 57 61
ENDBRANCH 41 57
ENDBRANCH 40 44
ENDBRANCH 20 40
ENDBRANCH 19 23
ENDBRANCH 1 19
TORSDOF 14
ENDMDL
MODEL 15
REMARK VINA RESULT:      -0.8      6.098     11.261
ROOT
ATOM      1  C1  A00 X   1      22.260  11.301  34.5440  0.00  0.00     0.000 C
ATOM      2  C2  A00 X   1      23.072  10.985  33.2600  0.00  0.00     0.000 C
ATOM      3  C3  A00 X   1      23.489   9.490  33.0620  0.00  0.00     0.000 C
ATOM      4  C4  A00 X   1      23.370   8.590  34.3190  0.00  0.00     0.000 C
ATOM      5  C5  A00 X   1      23.397   9.402  35.6140  0.00  0.00     0.000 C
ATOM      6  O5  A00 X   1      22.229  10.250  35.5410  0.00  0.00     0.000 O
ATOM      7   O  A00 X   1      24.857   9.446  32.6620  0.00  0.00     0.000 O
ATOM      9  HD  A00 X   1      24.738   8.807  33.2340  0.00  0.00     0.000 HD
ATOM      9   O  A00 X   1      22.189   7.789  34.2770  0.00  0.00     0.000 O
ATOM     11  HD  A00 X   1      22.070   7.150  34.8490  0.00  0.00     0.000 HD
ENDROOT
BRANCH 2 11
ATOM     11   O  A00 X   1      22.287  11.407  32.1290  0.00  0.00     0.000 O
ATOM     12   O  A00 X   1      19.895  11.187  32.0900  0.00  0.00     0.000 OA
ATOM     13   O  A00 X   1      21.273   9.185  32.1880  0.00  0.00     0.000 OA
ATOM     14   O  A00 X   1      21.246  10.534  30.2300  0.00  0.00     0.000 OA
ATOM     15   S  A00 X   1      21.091  10.508  31.6590  0.00  0.00     0.000 S
ENDBRANCH 2 11
BRANCH 5 16
ATOM     16   C  A00 X   1      24.698  10.170  35.8700  0.00  0.00     0.000 C
ATOM     17   O  A00 X   1      25.696   9.841  35.2640  0.00  0.00     0.000 OA
ATOM     18   O  A00 X   1      24.763  11.099  36.6510  0.00  0.00     0.000 OA
ENDBRANCH 5 16
BRANCH 1 19
ATOM     19  O4  A00 X   2      22.615  12.577  35.1330  0.00  0.00     0.000 O
BRANCH 19 23
ATOM     20  C1  A00 X   2      18.669  13.377  36.6000  0.00  0.00     0.000 C
ATOM     21  C2  A00 X   2      19.047  13.955  35.2150  0.00  0.00     0.000 C
ATOM     22  C3  A00 X   2      20.290  13.243  34.6430  0.00  0.00     0.000 C
ATOM     23  C4  A00 X   2      21.458  13.293  35.6530  0.00  0.00     0.000 C
ATOM     24  C5  A00 X   2      20.948  12.705  36.9980  0.00  0.00     0.000 C
ATOM     25  O5  A00 X   2      19.830  13.505  37.4630  0.00  0.00     0.000 O
ATOM     26   O  A00 X   2      20.559  13.767  33.3310  0.00  0.00     0.000 O
ATOM     28  HD  A00 X   2      20.524  14.590  33.5980  0.00  0.00     0.000 HD
BRANCH 21 30
ATOM     28   N  A00 X   2      18.201  15.114  35.5190  0.00  0.00     0.000 N
ATOM     30  HD  A00 X   2      18.358  15.134  34.6670  0.00  0.00     0.000 HD
ATOM     30   O  A00 X   2      17.313  15.913  33.5110  0.00  0.00     0.000 OA
ATOM     31   S  A00 X   2      18.211  16.342  34.5240  0.00  0.00     0.000 S
ATOM     32   O  A00 X   2      17.742  17.430  35.3250  0.00  0.00     0.000 OA
ATOM     33   O  A00 X   2      19.572  16.561  34.1360  0.00  0.00     0.000 OA
ENDBRANCH 21 30
BRANCH 24 34
ATOM     34   C  A00 X   2      21.988  12.429  38.1100  0.00  0.00     0.000 C
ATOM     35   O  A00 X   2      21.337  12.865  41.6650  0.00  0.00     0.000 OA
ATOM     36   O  A00 X   2      21.582  13.016  39.3620  0.00  0.00     0.000 O
ATOM     37   O  A00 X   2      20.033  11.499  40.2410  0.00  0.00     0.000 OA
ATOM     38   S  A00 X   2      21.343  11.996  40.5350  0.00  0.00     0.000 S
ATOM     39   O  A00 X   2      22.431  11.065  40.4900  0.00  0.00     0.000 OA
ENDBRANCH 24 34
BRANCH 20 40
ATOM     40  O4  A00 X   3      18.388  11.987  36.3760  0.00  0.00     0.000 O
BRANCH 40 44
ATOM     41  C1  A00 X   3      16.807   8.765  35.8850  0.00  0.00     0.000 C
ATOM     42  C2  A00 X   3      16.192  10.119  35.4710  0.00  0.00     0.000 C
ATOM     43  C3  A00 X   3      16.220  11.126  36.6500  0.00  0.00     0.000 C
ATOM     44  C4  A00 X   3      17.576  11.268  37.3290  0.00  0.00     0.000 C
ATOM     45  C5  A00 X   3      18.126   9.867  37.7190  0.00  0.00     0.000 C
ATOM     46  O5  A00 X   3      18.071   8.948  36.5800  0.00  0.00     0.000 O
ATOM     47   O  A00 X   3      15.597  12.386  36.4080  0.00  0.00     0.000 O
ATOM     49  HD  A00 X   3      16.270  12.679  36.8670  0.00  0.00     0.000 HD
BRANCH 42 49
ATOM     49   O  A00 X   3      16.956  10.604  34.3450  0.00  0.00     0.000 O
ATOM     50   O  A00 X   3      16.887  12.508  32.8950  0.00  0.00     0.000 OA
ATOM     51   O  A00 X   3      14.856  11.456  33.4950  0.00  0.00     0.000 OA
ATOM     52   O  A00 X   3      16.360  10.287  32.0960  0.00  0.00     0.000 OA
ATOM     53   S  A00 X   3      16.236  11.257  33.1290  0.00  0.00     0.000 S
ENDBRANCH 42 49
BRANCH 45 54
ATOM     54   C  A00 X   3      17.436   9.316  38.9730  0.00  0.00     0.000 C
ATOM     55   O  A00 X   3      17.860   8.322  39.5260  0.00  0.00     0.000 OA
ATOM     56   O  A00 X   3      16.448   9.865  39.4350  0.00  0.00     0.000 OA
ENDBRANCH 45 54
BRANCH 41 57
ATOM     57  O4  A00 X   4      15.857   7.944  36.6000  0.00  0.00     0.000 O
BRANCH 57 61
ATOM     58  C1  A00 X   4      15.041   3.704  36.6260  0.00  0.00     0.000 C
ATOM     59  C2  A00 X   4      16.305   4.221  37.3590  0.00  0.00     0.000 C
ATOM     60  C3  A00 X   4      16.301   5.746  37.5900  0.00  0.00     0.000 C
ATOM     61  C4  A00 X   4      15.928   6.519  36.3080  0.00  0.00     0.000 C
ATOM     62  C5  A00 X   4      14.539   5.992  35.8690  0.00  0.00     0.000 C
ATOM     63  O5  A00 X   4      14.644   4.581  35.5480  0.00  0.00     0.000 O
BRANCH 59 66
ATOM     64   N  A00 X   4      17.132   3.837  38.5170  0.00  0.00     0.000 N
ATOM     66  HD  A00 X   4      17.899   4.229  38.6080  0.00  0.00     0.000 HD
ATOM     66   O  A00 X   4      17.476   1.711  37.4400  0.00  0.00     0.000 OA
ATOM     67   S  A00 X   4      17.437   2.284  38.7490  0.00  0.00     0.000 S
ATOM     68   O  A00 X   4      18.699   2.367  39.4250  0.00  0.00     0.000 OA
ATOM     69   O  A00 X   4      16.335   1.935  39.6000  0.00  0.00     0.000 OA
ENDBRANCH 59 66
BRANCH 62 70
ATOM     70   C  A00 X   4      13.938   6.731  34.6500  0.00  0.00     0.000 C
ATOM     71   O  A00 X   4      13.190   5.424  31.3570  0.00  0.00     0.000 OA
ATOM     72   O  A00 X   4      14.360   7.361  32.0100  0.00  0.00     0.000 OA
ATOM     73   O  A00 X   4      13.584   5.772  33.6400  0.00  0.00     0.000 O
ATOM     74   O  A00 X   4      15.432   5.182  32.2110  0.00  0.00     0.000 OA
ATOM     75   S  A00 X   4      14.220   5.937  32.2160  0.00  0.00     0.000 S
ENDBRANCH 62 70
ENDBRANCH 57 61
ENDBRANCH 41 57
ENDBRANCH 40 44
ENDBRANCH 20 40
ENDBRANCH 19 23
ENDBRANCH 1 19
TORSDOF 14
ENDMDL
MODEL 16
REMARK VINA RESULT:      -0.6     13.640     18.743
ROOT
ATOM      1  C1  A00 X   1       8.857   9.503  54.6560  0.00  0.00     0.000 C
ATOM      2  C2  A00 X   1       8.369  10.970  54.7900  0.00  0.00     0.000 C
ATOM      3  C3  A00 X   1       9.228  12.050  54.0520  0.00  0.00     0.000 C
ATOM      4  C4  A00 X   1      10.636  11.588  53.5970  0.00  0.00     0.000 C
ATOM      5  C5  A00 X   1      11.137  10.387  54.4000  0.00  0.00     0.000 C
ATOM      6  O5  A00 X   1      10.190   9.334  54.1140  0.00  0.00     0.000 O
ATOM      7   O  A00 X   1       9.429  13.154  54.9320  0.00  0.00     0.000 O
ATOM      9  HD  A00 X   1      10.180  13.012  54.5250  0.00  0.00     0.000 HD
ATOM      9   O  A00 X   1      10.659  11.279  52.2030  0.00  0.00     0.000 O
ATOM     11  HD  A00 X   1      11.410  11.137  51.7960  0.00  0.00     0.000 HD
ENDROOT
BRANCH 2 11
ATOM     11   O  A00 X   1       7.017  11.030  54.2970  0.00  0.00     0.000 O
ATOM     12   O  A00 X   1       6.238   9.584  52.5450  0.00  0.00     0.000 OA
ATOM     13   O  A00 X   1       7.991  11.201  52.0640  0.00  0.00     0.000 OA
ATOM     14   O  A00 X   1       5.776  11.929  52.5350  0.00  0.00     0.000 OA
ATOM     15   S  A00 X   1       6.765  10.909  52.7550  0.00  0.00     0.000 S
ENDBRANCH 2 11
BRANCH 5 16
ATOM     16   C  A00 X   1      11.333  10.646  55.8970  0.00  0.00     0.000 C
ATOM     17   O  A00 X   1      11.386  11.795  56.2870  0.00  0.00     0.000 OA
ATOM     18   O  A00 X   1      11.430   9.745  56.7070  0.00  0.00     0.000 OA
ENDBRANCH 5 16
BRANCH 1 19
ATOM     19  O4  A00 X   2       8.680   8.739  55.8740  0.00  0.00     0.000 O
BRANCH 19 23
ATOM     20  C1  A00 X   2       8.196   4.994  53.8480  0.00  0.00     0.000 C
ATOM     21  C2  A00 X   2       6.913   5.778  54.2160  0.00  0.00     0.000 C
ATOM     22  C3  A00 X   2       7.241   7.253  54.5290  0.00  0.00     0.000 C
ATOM     23  C4  A00 X   2       8.336   7.348  55.6160  0.00  0.00     0.000 C
ATOM     24  C5  A00 X   2       9.554   6.511  55.1380  0.00  0.00     0.000 C
ATOM     25  O5  A00 X   2       9.130   5.135  54.9510  0.00  0.00     0.000 O
ATOM     26   O  A00 X   2       6.014   7.952  54.7970  0.00  0.00     0.000 O
ATOM     28  HD  A00 X   2       5.743   7.360  55.3690  0.00  0.00     0.000 HD
BRANCH 21 30
ATOM     28   N  A00 X   2       6.241   4.495  54.4390  0.00  0.00     0.000 N
ATOM     30  HD  A00 X   2       5.621   5.096  54.3830  0.00  0.00     0.000 HD
ATOM     30   O  A00 X   2       3.983   4.752  53.8980  0.00  0.00     0.000 OA
ATOM     31   S  A00 X   2       4.781   4.498  55.0450  0.00  0.00     0.000 S
ATOM     32   O  A00 X   2       4.642   3.187  55.5990  0.00  0.00     0.000 OA
ATOM     33   O  A00 X   2       4.756   5.483  56.0850  0.00  0.00     0.000 OA
ENDBRANCH 21 30
BRANCH 24 34
ATOM     34   C  A00 X   2      10.873   6.626  55.9380  0.00  0.00     0.000 C
ATOM     35   O  A00 X   2      11.213   5.735  59.4520  0.00  0.00     0.000 OA
ATOM     36   O  A00 X   2      10.632   6.549  57.3570  0.00  0.00     0.000 O
ATOM     37   O  A00 X   2      10.410   4.260  57.7860  0.00  0.00     0.000 OA
ATOM     38   S  A00 X   2      11.309   5.332  58.0870  0.00  0.00     0.000 S
ATOM     39   O  A00 X   2      12.643   5.243  57.5730  0.00  0.00     0.000 OA
ENDBRANCH 24 34
BRANCH 20 40
ATOM     40  O4  A00 X   3       8.727   5.645  52.6840  0.00  0.00     0.000 O
BRANCH 40 44
ATOM     41  C1  A00 X   3      10.517   7.004  49.8430  0.00  0.00     0.000 C
ATOM     42  C2  A00 X   3       9.154   6.283  49.7610  0.00  0.00     0.000 C
ATOM     43  C3  A00 X   3       9.201   4.921  50.4990  0.00  0.00     0.000 C
ATOM     44  C4  A00 X   3       9.758   4.987  51.9160  0.00  0.00     0.000 C
ATOM     45  C5  A00 X   3      11.129   5.720  51.9150  0.00  0.00     0.000 C
ATOM     46  O5  A00 X   3      11.040   6.995  51.2000  0.00  0.00     0.000 O
ATOM     47   O  A00 X   3       8.020   4.126  50.4160  0.00  0.00     0.000 O
ATOM     49  HD  A00 X   3       8.214   3.952  51.2420  0.00  0.00     0.000 HD
BRANCH 42 49
ATOM     49   O  A00 X   3       8.172   7.167  50.3460  0.00  0.00     0.000 O
ATOM     50   O  A00 X   3       5.793   7.415  50.2570  0.00  0.00     0.000 OA
ATOM     51   O  A00 X   3       6.966   6.943  48.2600  0.00  0.00     0.000 OA
ATOM     52   O  A00 X   3       7.275   9.055  49.2760  0.00  0.00     0.000 OA
ATOM     53   S  A00 X   3       6.973   7.682  49.4970  0.00  0.00     0.000 S
ENDBRANCH 42 49
BRANCH 45 54
ATOM     54   C  A00 X   3      12.255   4.816  51.4000  0.00  0.00     0.000 C
ATOM     55   O  A00 X   3      13.413   5.051  51.6780  0.00  0.00     0.000 OA
ATOM     56   O  A00 X   3      12.008   3.846  50.7000  0.00  0.00     0.000 OA
ENDBRANCH 45 54
BRANCH 41 57
ATOM     57  O4  A00 X   4      11.444   6.507  48.8520  0.00  0.00     0.000 O
BRANCH 57 61
ATOM     58  C1  A00 X   4      14.825   8.261  46.8200  0.00  0.00     0.000 C
ATOM     59  C2  A00 X   4      14.985   7.848  48.3040  0.00  0.00     0.000 C
ATOM     60  C3  A00 X   4      13.860   6.921  48.8090  0.00  0.00     0.000 C
ATOM     61  C4  A00 X   4      12.463   7.456  48.4270  0.00  0.00     0.000 C
ATOM     62  C5  A00 X   4      12.456   7.594  46.8840  0.00  0.00     0.000 C
ATOM     63  O5  A00 X   4      13.452   8.572  46.4890  0.00  0.00     0.000 O
BRANCH 59 66
ATOM     64   N  A00 X   4      14.884   9.154  48.9790  0.00  0.00     0.000 N
ATOM     66  HD  A00 X   4      14.482   9.793  48.5560  0.00  0.00     0.000 HD
ATOM     66   O  A00 X   4      17.258   9.393  48.6530  0.00  0.00     0.000 OA
ATOM     67   S  A00 X   4      16.224   9.820  49.5430  0.00  0.00     0.000 S
ATOM     68   O  A00 X   4      15.876  11.209  49.4630  0.00  0.00     0.000 OA
ATOM     69   O  A00 X   4      16.228   9.291  50.8780  0.00  0.00     0.000 OA
ENDBRANCH 59 66
BRANCH 62 70
ATOM     70   C  A00 X   4      11.090   8.018  46.2940  0.00  0.00     0.000 C
ATOM     71   O  A00 X   4       9.970   7.872  42.8540  0.00  0.00     0.000 OA
ATOM     72   O  A00 X   4       9.885   9.626  44.4220  0.00  0.00     0.000 OA
ATOM     73   O  A00 X   4      10.996   7.556  44.9370  0.00  0.00     0.000 O
ATOM     74   O  A00 X   4      12.003   9.068  43.3540  0.00  0.00     0.000 OA
ATOM     75   S  A00 X   4      10.729   8.620  43.8160  0.00  0.00     0.000 S
ENDBRANCH 62 70
ENDBRANCH 57 61
ENDBRANCH 41 57
ENDBRANCH 40 44
ENDBRANCH 20 40
ENDBRANCH 19 23
ENDBRANCH 1 19
TORSDOF 14
ENDMDL
MODEL 17
REMARK VINA RESULT:      -0.6     12.361     17.587
ROOT
ATOM      1  C1  A00 X   1      27.981  15.786  40.6260  0.00  0.00     0.000 C
ATOM      2  C2  A00 X   1      29.244  16.119  39.7880  0.00  0.00     0.000 C
ATOM      3  C3  A00 X   1      30.357  16.940  40.5180  0.00  0.00     0.000 C
ATOM      4  C4  A00 X   1      29.923  17.628  41.8380  0.00  0.00     0.000 C
ATOM      5  C5  A00 X   1      28.411  17.840  41.9080  0.00  0.00     0.000 C
ATOM      6  O5  A00 X   1      27.852  16.508  41.8760  0.00  0.00     0.000 O
ATOM      7   O  A00 X   1      30.805  17.978  39.6490  0.00  0.00     0.000 O
ATOM      9  HD  A00 X   1      30.744  18.318  40.4430  0.00  0.00     0.000 HD
ATOM      9   O  A00 X   1      30.360  16.890  42.9790  0.00  0.00     0.000 O
ATOM     11  HD  A00 X   1      30.300  17.230  43.7730  0.00  0.00     0.000 HD
ENDROOT
BRANCH 2 11
ATOM     11   O  A00 X   1      29.804  14.875  39.3270  0.00  0.00     0.000 O
ATOM     12   O  A00 X   1      31.458  14.794  37.5870  0.00  0.00     0.000 OA
ATOM     13   O  A00 X   1      29.228  15.617  37.0720  0.00  0.00     0.000 OA
ATOM     14   O  A00 X   1      29.574  13.323  37.5970  0.00  0.00     0.000 OA
ATOM     15   S  A00 X   1      30.037  14.671  37.7900  0.00  0.00     0.000 S
ENDBRANCH 2 11
BRANCH 5 16
ATOM     16   C  A00 X   1      27.837  18.772  40.8360  0.00  0.00     0.000 C
ATOM     17   O  A00 X   1      28.596  19.510  40.2410  0.00  0.00     0.000 OA
ATOM     18   O  A00 X   1      26.655  18.794  40.5560  0.00  0.00     0.000 OA
ENDBRANCH 5 16
BRANCH 1 19
ATOM     19  O4  A00 X   2      26.759  15.850  39.8510  0.00  0.00     0.000 O
BRANCH 19 23
ATOM     20  C1  A00 X   2      23.024  13.792  40.2730  0.00  0.00     0.000 C
ATOM     21  C2  A00 X   2      23.300  14.976  41.2310  0.00  0.00     0.000 C
ATOM     22  C3  A00 X   2      24.440  15.865  40.6920  0.00  0.00     0.000 C
ATOM     23  C4  A00 X   2      25.701  15.018  40.4070  0.00  0.00     0.000 C
ATOM     24  C5  A00 X   2      25.290  13.861  39.4560  0.00  0.00     0.000 C
ATOM     25  O5  A00 X   2      24.268  13.061  40.1070  0.00  0.00     0.000 O
ATOM     26   O  A00 X   2      24.611  16.984  41.5780  0.00  0.00     0.000 O
ATOM     28  HD  A00 X   2      24.647  16.484  42.2840  0.00  0.00     0.000 HD
BRANCH 21 30
ATOM     28   N  A00 X   2      22.566  14.253  42.2740  0.00  0.00     0.000 N
ATOM     30  HD  A00 X   2      22.633  15.075  42.5390  0.00  0.00     0.000 HD
ATOM     30   O  A00 X   2      21.524  15.826  43.6530  0.00  0.00     0.000 OA
ATOM     31   S  A00 X   2      22.549  14.847  43.7390  0.00  0.00     0.000 S
ATOM     32   O  A00 X   2      22.237  13.717  44.5590  0.00  0.00     0.000 OA
ATOM     33   O  A00 X   2      23.873  15.316  44.0210  0.00  0.00     0.000 OA
ENDBRANCH 21 30
BRANCH 24 34
ATOM     34   C  A00 X   2      26.414  13.000  38.8320  0.00  0.00     0.000 C
ATOM     35   O  A00 X   2      28.570  10.768  40.7360  0.00  0.00     0.000 OA
ATOM     36   O  A00 X   2      27.314  12.503  39.8430  0.00  0.00     0.000 O
ATOM     37   O  A00 X   2      26.208  10.651  40.7470  0.00  0.00     0.000 OA
ATOM     38   S  A00 X   2      27.377  10.937  39.9730  0.00  0.00     0.000 S
ATOM     39   O  A00 X   2      27.433  10.422  38.6380  0.00  0.00     0.000 OA
ENDBRANCH 24 34
BRANCH 20 40
ATOM     40  O4  A00 X   3      22.645  14.385  39.0220  0.00  0.00     0.000 O
BRANCH 40 44
ATOM     41  C1  A00 X   3      23.405  13.296  35.6520  0.00  0.00     0.000 C
ATOM     42  C2  A00 X   3      22.858  14.691  36.0240  0.00  0.00     0.000 C
ATOM     43  C3  A00 X   3      21.602  14.572  36.9260  0.00  0.00     0.000 C
ATOM     44  C4  A00 X   3      21.773  13.657  38.1310  0.00  0.00     0.000 C
ATOM     45  C5  A00 X   3      22.321  12.275  37.6770  0.00  0.00     0.000 C
ATOM     46  O5  A00 X   3      23.498  12.435  36.8200  0.00  0.00     0.000 O
ATOM     47   O  A00 X   3      20.958  15.800  37.2620  0.00  0.00     0.000 O
ATOM     49  HD  A00 X   3      20.865  15.411  38.0290  0.00  0.00     0.000 HD
BRANCH 42 49
ATOM     49   O  A00 X   3      23.924  15.400  36.6930  0.00  0.00     0.000 O
ATOM     50   O  A00 X   3      24.209  17.553  37.6990  0.00  0.00     0.000 OA
ATOM     51   O  A00 X   3      23.030  17.395  35.6560  0.00  0.00     0.000 OA
ATOM     52   O  A00 X   3      25.351  16.949  35.6550  0.00  0.00     0.000 OA
ATOM     53   S  A00 X   3      24.153  16.915  36.4210  0.00  0.00     0.000 S
ENDBRANCH 42 49
BRANCH 45 54
ATOM     54   C  A00 X   3      21.225  11.411  37.0400  0.00  0.00     0.000 C
ATOM     55   O  A00 X   3      20.082  11.814  36.9720  0.00  0.00     0.000 OA
ATOM     56   O  A00 X   3      21.482  10.304  36.5930  0.00  0.00     0.000 OA
ENDBRANCH 45 54
BRANCH 41 57
ATOM     57  O4  A00 X   4      22.676  12.713  34.5490  0.00  0.00     0.000 O
BRANCH 57 61
ATOM     58  C1  A00 X   4      24.108  10.084  31.4390  0.00  0.00     0.000 C
ATOM     59  C2  A00 X   4      22.992   9.575  32.3840  0.00  0.00     0.000 C
ATOM     60  C3  A00 X   4      22.319  10.696  33.2010  0.00  0.00     0.000 C
ATOM     61  C4  A00 X   4      23.359  11.627  33.8610  0.00  0.00     0.000 C
ATOM     62  C5  A00 X   4      24.234  12.187  32.7120  0.00  0.00     0.000 C
ATOM     63  O5  A00 X   4      24.933  11.091  32.0680  0.00  0.00     0.000 O
BRANCH 59 66
ATOM     64   N  A00 X   4      21.837   8.694  32.1330  0.00  0.00     0.000 N
ATOM     66  HD  A00 X   4      21.348   8.471  32.8130  0.00  0.00     0.000 HD
ATOM     66   O  A00 X   4      23.409   6.921  31.7050  0.00  0.00     0.000 OA
ATOM     67   S  A00 X   4      22.086   7.324  31.3460  0.00  0.00     0.000 S
ATOM     68   O  A00 X   4      21.028   6.520  31.8850  0.00  0.00     0.000 OA
ATOM     69   O  A00 X   4      21.862   7.763  29.9980  0.00  0.00     0.000 OA
ENDBRANCH 59 66
BRANCH 62 70
ATOM     70   C  A00 X   4      25.277  13.236  33.1650  0.00  0.00     0.000 C
ATOM     71   O  A00 X   4      28.612  12.695  34.4670  0.00  0.00     0.000 OA
ATOM     72   O  A00 X   4      26.850  14.035  35.2700  0.00  0.00     0.000 OA
ATOM     73   O  A00 X   4      26.543  12.589  33.3730  0.00  0.00     0.000 O
ATOM     74   O  A00 X   4      26.756  11.618  35.5680  0.00  0.00     0.000 OA
ATOM     75   S  A00 X   4      27.212  12.721  34.7850  0.00  0.00     0.000 S
ENDBRANCH 62 70
ENDBRANCH 57 61
ENDBRANCH 41 57
ENDBRANCH 40 44
ENDBRANCH 20 40
ENDBRANCH 19 23
ENDBRANCH 1 19
TORSDOF 14
ENDMDL
MODEL 18
REMARK VINA RESULT:      -0.5     16.273     21.818
ROOT
ATOM      1  C1  A00 X   1       8.834  15.460  54.2480  0.00  0.00     0.000 C
ATOM      2  C2  A00 X   1       9.762  16.185  53.2370  0.00  0.00     0.000 C
ATOM      3  C3  A00 X   1      10.527  15.268  52.2270  0.00  0.00     0.000 C
ATOM      4  C4  A00 X   1      10.560  13.760  52.5850  0.00  0.00     0.000 C
ATOM      5  C5  A00 X   1      10.331  13.517  54.0770  0.00  0.00     0.000 C
ATOM      6  O5  A00 X   1       9.002  14.023  54.3320  0.00  0.00     0.000 O
ATOM      7   O  A00 X   1      11.885  15.698  52.1580  0.00  0.00     0.000 O
ATOM      9  HD  A00 X   1      11.891  14.832  52.1650  0.00  0.00     0.000 HD
ATOM      9   O  A00 X   1       9.604  13.022  51.8240  0.00  0.00     0.000 O
ATOM     11  HD  A00 X   1       9.610  12.156  51.8300  0.00  0.00     0.000 HD
ENDROOT
BRANCH 2 11
ATOM     11   O  A00 X   1       8.956  17.125  52.4990  0.00  0.00     0.000 O
ATOM     12   O  A00 X   1       6.658  16.680  51.9610  0.00  0.00     0.000 OA
ATOM     13   O  A00 X   1       8.397  15.264  51.0190  0.00  0.00     0.000 OA
ATOM     14   O  A00 X   1       8.187  17.532  50.3330  0.00  0.00     0.000 OA
ATOM     15   S  A00 X   1       7.981  16.587  51.3970  0.00  0.00     0.000 S
ENDBRANCH 2 11
BRANCH 5 16
ATOM     16   C  A00 X   1      11.400  14.108  55.0010  0.00  0.00     0.000 C
ATOM     17   O  A00 X   1      12.465  14.438  54.5220  0.00  0.00     0.000 OA
ATOM     18   O  A00 X   1      11.218  14.263  56.1930  0.00  0.00     0.000 OA
ENDBRANCH 5 16
BRANCH 1 19
ATOM     19  O4  A00 X   2       8.850  16.071  55.5620  0.00  0.00     0.000 O
BRANCH 19 23
ATOM     20  C1  A00 X   2       4.831  14.936  56.5220  0.00  0.00     0.000 C
ATOM     21  C2  A00 X   2       5.045  16.323  55.8670  0.00  0.00     0.000 C
ATOM     22  C3  A00 X   2       6.433  16.406  55.1990  0.00  0.00     0.000 C
ATOM     23  C4  A00 X   2       7.545  16.041  56.2080  0.00  0.00     0.000 C
ATOM     24  C5  A00 X   2       7.206  14.647  56.8030  0.00  0.00     0.000 C
ATOM     25  O5  A00 X   2       5.916  14.722  57.4630  0.00  0.00     0.000 O
ATOM     26   O  A00 X   2       6.556  17.683  54.5490  0.00  0.00     0.000 O
ATOM     28  HD  A00 X   2       6.304  18.121  55.2510  0.00  0.00     0.000 HD
BRANCH 21 30
ATOM     28   N  A00 X   2       3.926  16.827  56.6700  0.00  0.00     0.000 N
ATOM     30  HD  A00 X   2       4.071  17.411  56.0470  0.00  0.00     0.000 HD
ATOM     30   O  A00 X   2       2.858  18.511  55.4520  0.00  0.00     0.000 OA
ATOM     31   S  A00 X   2       3.614  18.377  56.6470  0.00  0.00     0.000 S
ATOM     32   O  A00 X   2       2.879  18.593  57.8550  0.00  0.00     0.000 OA
ATOM     33   O  A00 X   2       4.871  19.063  56.7000  0.00  0.00     0.000 OA
ENDBRANCH 21 30
BRANCH 24 34
ATOM     34   C  A00 X   2       8.280  13.947  57.6690  0.00  0.00     0.000 C
ATOM     35   O  A00 X   2       9.673  15.356  60.7240  0.00  0.00     0.000 OA
ATOM     36   O  A00 X   2       8.888  14.871  58.5940  0.00  0.00     0.000 O
ATOM     37   O  A00 X   2       7.361  15.017  60.3600  0.00  0.00     0.000 OA
ATOM     38   S  A00 X   2       8.684  14.529  60.1160  0.00  0.00     0.000 S
ATOM     39   O  A00 X   2       8.906  13.120  60.2470  0.00  0.00     0.000 OA
ENDBRANCH 24 34
BRANCH 20 40
ATOM     40  O4  A00 X   3       4.927  13.984  55.4530  0.00  0.00     0.000 O
BRANCH 40 44
ATOM     41  C1  A00 X   3       4.429  11.497  52.8660  0.00  0.00     0.000 C
ATOM     42  C2  A00 X   3       3.456  12.657  53.1710  0.00  0.00     0.000 C
ATOM     43  C3  A00 X   3       3.110  12.710  54.6810  0.00  0.00     0.000 C
ATOM     44  C4  A00 X   3       4.319  12.684  55.6090  0.00  0.00     0.000 C
ATOM     45  C5  A00 X   3       5.244  11.489  55.2440  0.00  0.00     0.000 C
ATOM     46  O5  A00 X   3       5.536  11.473  53.8090  0.00  0.00     0.000 O
ATOM     47   O  A00 X   3       2.150  13.691  55.0660  0.00  0.00     0.000 O
ATOM     49  HD  A00 X   3       2.675  13.773  55.7500  0.00  0.00     0.000 HD
BRANCH 42 49
ATOM     49   O  A00 X   3       4.100  13.875  52.7340  0.00  0.00     0.000 O
ATOM     50   O  A00 X   3       3.433  15.880  51.6090  0.00  0.00     0.000 OA
ATOM     51   O  A00 X   3       2.583  13.808  50.8500  0.00  0.00     0.000 OA
ATOM     52   O  A00 X   3       4.884  14.258  50.5540  0.00  0.00     0.000 OA
ATOM     53   S  A00 X   3       3.737  14.506  51.3580  0.00  0.00     0.000 S
ENDBRANCH 42 49
BRANCH 45 54
ATOM     54   C  A00 X   3       4.684  10.159  55.7600  0.00  0.00     0.000 C
ATOM     55   O  A00 X   3       5.339   9.140  55.6830  0.00  0.00     0.000 OA
ATOM     56   O  A00 X   3       3.569  10.100  56.2560  0.00  0.00     0.000 OA
ENDBRANCH 45 54
BRANCH 41 57
ATOM     57  O4  A00 X   4       3.734  10.236  52.7440  0.00  0.00     0.000 O
BRANCH 57 61
ATOM     58  C1  A00 X   4       4.216   6.836  50.1270  0.00  0.00     0.000 C
ATOM     59  C2  A00 X   4       5.174   6.983  51.3360  0.00  0.00     0.000 C
ATOM     60  C3  A00 X   4       4.690   8.008  52.3820  0.00  0.00     0.000 C
ATOM     61  C4  A00 X   4       4.258   9.337  51.7260  0.00  0.00     0.000 C
ATOM     62  C5  A00 X   4       3.150   8.979  50.7050  0.00  0.00     0.000 C
ATOM     63  O5  A00 X   4       3.706   8.114  49.6820  0.00  0.00     0.000 O
BRANCH 59 66
ATOM     64   N  A00 X   4       5.427   5.706  52.0260  0.00  0.00     0.000 N
ATOM     66  HD  A00 X   4       5.844   5.736  52.7850  0.00  0.00     0.000 HD
ATOM     66   O  A00 X   4       7.019   5.199  50.2930  0.00  0.00     0.000 OA
ATOM     67   S  A00 X   4       6.149   4.534  51.2110  0.00  0.00     0.000 S
ATOM     68   O  A00 X   4       6.798   3.836  52.2820  0.00  0.00     0.000 OA
ATOM     69   O  A00 X   4       5.003   3.855  50.6750  0.00  0.00     0.000 OA
ENDBRANCH 59 66
BRANCH 62 70
ATOM     70   C  A00 X   4       2.506  10.205  50.0150  0.00  0.00     0.000 C
ATOM     71   O  A00 X   4      -0.110  10.278  47.5140  0.00  0.00     0.000 OA
ATOM     72   O  A00 X   4       1.981  11.358  47.5780  0.00  0.00     0.000 OA
ATOM     73   O  A00 X   4       1.346   9.782  49.2810  0.00  0.00     0.000 O
ATOM     74   O  A00 X   4       1.871   8.977  47.0710  0.00  0.00     0.000 OA
ATOM     75   S  A00 X   4       1.295  10.096  47.7450  0.00  0.00     0.000 S
ENDBRANCH 62 70
ENDBRANCH 57 61
ENDBRANCH 41 57
ENDBRANCH 40 44
ENDBRANCH 20 40
ENDBRANCH 19 23
ENDBRANCH 1 19
TORSDOF 14
ENDMDL
MODEL 19
REMARK VINA RESULT:      -0.4     14.137     19.252
ROOT
ATOM      1  C1  A00 X   1       9.161   9.967  54.8330  0.00  0.00     0.000 C
ATOM      2  C2  A00 X   1       8.675  11.437  54.7320  0.00  0.00     0.000 C
ATOM      3  C3  A00 X   1       9.325  12.299  53.6000  0.00  0.00     0.000 C
ATOM      4  C4  A00 X   1      10.613  11.712  52.9680  0.00  0.00     0.000 C
ATOM      5  C5  A00 X   1      11.308  10.715  53.8960  0.00  0.00     0.000 C
ATOM      6  O5  A00 X   1      10.350   9.646  54.0690  0.00  0.00     0.000 O
ATOM      7   O  A00 X   1       9.682  13.569  54.1400  0.00  0.00     0.000 O
ATOM      9  HD  A00 X   1      10.331  13.320  53.6230  0.00  0.00     0.000 HD
ATOM      9   O  A00 X   1      10.343  11.093  51.7110  0.00  0.00     0.000 O
ATOM     11  HD  A00 X   1      10.991  10.844  51.1940  0.00  0.00     0.000 HD
ENDROOT
BRANCH 2 11
ATOM     11   O  A00 X   1       7.247  11.415  54.5430  0.00  0.00     0.000 O
ATOM     12   O  A00 X   1       6.174   9.776  53.1530  0.00  0.00     0.000 OA
ATOM     13   O  A00 X   1       7.710  11.371  52.1450  0.00  0.00     0.000 OA
ATOM     14   O  A00 X   1       5.618  12.097  53.0150  0.00  0.00     0.000 OA
ATOM     15   S  A00 X   1       6.675  11.127  53.1120  0.00  0.00     0.000 S
ENDBRANCH 2 11
BRANCH 5 16
ATOM     16   C  A00 X   1      11.816  11.303  55.2160  0.00  0.00     0.000 C
ATOM     17   O  A00 X   1      12.203  10.543  56.0800  0.00  0.00     0.000 OA
ATOM     18   O  A00 X   1      11.852  12.499  55.4250  0.00  0.00     0.000 OA
ENDBRANCH 5 16
BRANCH 1 19
ATOM     19  O4  A00 X   2       9.272   9.505  56.2020  0.00  0.00     0.000 O
BRANCH 19 23
ATOM     20  C1  A00 X   2       8.250   5.438  55.3190  0.00  0.00     0.000 C
ATOM     21  C2  A00 X   2       7.091   6.413  55.6390  0.00  0.00     0.000 C
ATOM     22  C3  A00 X   2       7.553   7.879  55.5050  0.00  0.00     0.000 C
ATOM     23  C4  A00 X   2       8.808   8.135  56.3690  0.00  0.00     0.000 C
ATOM     24  C5  A00 X   2       9.883   7.088  55.9670  0.00  0.00     0.000 C
ATOM     25  O5  A00 X   2       9.353   5.758  56.2080  0.00  0.00     0.000 O
ATOM     26   O  A00 X   2       6.427   8.741  55.7440  0.00  0.00     0.000 O
ATOM     28  HD  A00 X   2       6.214   8.342  56.4830  0.00  0.00     0.000 HD
BRANCH 21 30
ATOM     28   N  A00 X   2       6.377   5.398  56.4210  0.00  0.00     0.000 N
ATOM     30  HD  A00 X   2       5.789   5.984  56.1740  0.00  0.00     0.000 HD
ATOM     30   O  A00 X   2       4.090   5.636  56.0050  0.00  0.00     0.000 OA
ATOM     31   S  A00 X   2       4.997   5.786  57.0870  0.00  0.00     0.000 S
ATOM     32   O  A00 X   2       4.848   4.827  58.1380  0.00  0.00     0.000 OA
ATOM     33   O  A00 X   2       5.146   7.102  57.6320  0.00  0.00     0.000 OA
ENDBRANCH 21 30
BRANCH 24 34
ATOM     34   C  A00 X   2      11.316   7.269  56.5210  0.00  0.00     0.000 C
ATOM     35   O  A00 X   2      12.141   7.325  60.0660  0.00  0.00     0.000 OA
ATOM     36   O  A00 X   2      11.296   7.604  57.9230  0.00  0.00     0.000 O
ATOM     37   O  A00 X   2      10.988   5.554  59.0060  0.00  0.00     0.000 OA
ATOM     38   S  A00 X   2      11.994   6.562  58.8710  0.00  0.00     0.000 S
ATOM     39   O  A00 X   2      13.222   6.193  58.2320  0.00  0.00     0.000 OA
ENDBRANCH 24 34
BRANCH 20 40
ATOM     40  O4  A00 X   3       8.629   5.719  53.9640  0.00  0.00     0.000 O
BRANCH 40 44
ATOM     41  C1  A00 X   3       9.571   5.506  50.4720  0.00  0.00     0.000 C
ATOM     42  C2  A00 X   3       8.662   4.493  51.2020  0.00  0.00     0.000 C
ATOM     43  C3  A00 X   3       9.321   4.002  52.5170  0.00  0.00     0.000 C
ATOM     44  C4  A00 X   3       9.826   5.116  53.4260  0.00  0.00     0.000 C
ATOM     45  C5  A00 X   3      10.735   6.088  52.6230  0.00  0.00     0.000 C
ATOM     46  O5  A00 X   3      10.077   6.517  51.3860  0.00  0.00     0.000 O
ATOM     47   O  A00 X   3       8.608   2.996  53.2330  0.00  0.00     0.000 O
ATOM     49  HD  A00 X   3       8.878   3.452  53.9180  0.00  0.00     0.000 HD
BRANCH 42 49
ATOM     49   O  A00 X   3       7.406   5.160  51.4580  0.00  0.00     0.000 O
ATOM     50   O  A00 X   3       5.235   5.212  50.4500  0.00  0.00     0.000 OA
ATOM     51   O  A00 X   3       7.143   5.235  49.0530  0.00  0.00     0.000 OA
ATOM     52   O  A00 X   3       6.704   7.132  50.3930  0.00  0.00     0.000 OA
ATOM     53   S  A00 X   3       6.559   5.721  50.2790  0.00  0.00     0.000 S
ENDBRANCH 42 49
BRANCH 45 54
ATOM     54   C  A00 X   3      12.131   5.498  52.3900  0.00  0.00     0.000 C
ATOM     55   O  A00 X   3      12.457   4.455  52.9180  0.00  0.00     0.000 OA
ATOM     56   O  A00 X   3      12.939   6.068  51.6730  0.00  0.00     0.000 OA
ENDBRANCH 45 54
BRANCH 41 57
ATOM     57  O4  A00 X   4      10.598   4.842  49.7020  0.00  0.00     0.000 O
BRANCH 57 61
ATOM     58  C1  A00 X   4      12.786   6.376  46.3110  0.00  0.00     0.000 C
ATOM     59  C2  A00 X   4      12.194   7.383  47.3290  0.00  0.00     0.000 C
ATOM     60  C3  A00 X   4      11.760   6.732  48.6570  0.00  0.00     0.000 C
ATOM     61  C4  A00 X   4      10.911   5.464  48.4230  0.00  0.00     0.000 C
ATOM     62  C5  A00 X   4      11.777   4.512  47.5620  0.00  0.00     0.000 C
ATOM     63  O5  A00 X   4      12.042   5.137  46.2800  0.00  0.00     0.000 O
BRANCH 59 66
ATOM     64   N  A00 X   4      11.106   7.659  46.3730  0.00  0.00     0.000 N
ATOM     66  HD  A00 X   4      10.996   7.100  45.7210  0.00  0.00     0.000 HD
ATOM     66   O  A00 X   4      12.411   9.521  45.5790  0.00  0.00     0.000 OA
ATOM     67   S  A00 X   4      11.048   9.103  45.6880  0.00  0.00     0.000 S
ATOM     68   O  A00 X   4      10.402   8.776  44.4500  0.00  0.00     0.000 OA
ATOM     69   O  A00 X   4      10.209   9.794  46.6250  0.00  0.00     0.000 OA
ENDBRANCH 59 66
BRANCH 62 70
ATOM     70   C  A00 X   4      11.133   3.127  47.3090  0.00  0.00     0.000 C
ATOM     71   O  A00 X   4      12.077  -0.088  48.6800  0.00  0.00     0.000 OA
ATOM     72   O  A00 X   4      11.644   0.566  46.4600  0.00  0.00     0.000 OA
ATOM     73   O  A00 X   4      11.669   2.177  48.2450  0.00  0.00     0.000 O
ATOM     74   O  A00 X   4      13.747   1.202  47.5140  0.00  0.00     0.000 OA
ATOM     75   S  A00 X   4      12.362   0.893  47.6710  0.00  0.00     0.000 S
ENDBRANCH 62 70
ENDBRANCH 57 61
ENDBRANCH 41 57
ENDBRANCH 40 44
ENDBRANCH 20 40
ENDBRANCH 19 23
ENDBRANCH 1 19
TORSDOF 14
ENDMDL
MODEL 20
REMARK VINA RESULT:      -0.3     76.152     79.605
ROOT
ATOM      1  C1  A00 X   1      69.396  31.918  84.9530  0.00  0.00     0.000 C
ATOM      2  C2  A00 X   1      69.850  32.233  83.5020  0.00  0.00     0.000 C
ATOM      3  C3  A00 X   1      68.939  31.672  82.3600  0.00  0.00     0.000 C
ATOM      4  C4  A00 X   1      67.925  30.581  82.7890  0.00  0.00     0.000 C
ATOM      5  C5  A00 X   1      68.349  29.873  84.0760  0.00  0.00     0.000 C
ATOM      6  O5  A00 X   1      68.361  30.912  85.0800  0.00  0.00     0.000 O
ATOM      7   O  A00 X   1      69.769  31.084  81.3610  0.00  0.00     0.000 O
ATOM      9  HD  A00 X   1      69.087  30.560  81.4680  0.00  0.00     0.000 HD
ATOM      9   O  A00 X   1      66.613  31.120  82.9450  0.00  0.00     0.000 O
ATOM     11  HD  A00 X   1      65.931  30.596  83.0520  0.00  0.00     0.000 HD
ENDROOT
BRANCH 2 11
ATOM     11   O  A00 X   1      69.937  33.665  83.3720  0.00  0.00     0.000 O
ATOM     12   O  A00 X   1      70.318  34.727  81.2520  0.00  0.00     0.000 OA
ATOM     13   O  A00 X   1      72.039  33.284  82.1870  0.00  0.00     0.000 OA
ATOM     14   O  A00 X   1      71.526  35.369  83.2120  0.00  0.00     0.000 OA
ATOM     15   S  A00 X   1      71.025  34.275  82.4230  0.00  0.00     0.000 S
ENDBRANCH 2 11
BRANCH 5 16
ATOM     16   C  A00 X   1      69.666  29.094  83.9840  0.00  0.00     0.000 C
ATOM     17   O  A00 X   1      70.177  28.694  85.0090  0.00  0.00     0.000 OA
ATOM     18   O  A00 X   1      70.211  28.859  82.9240  0.00  0.00     0.000 OA
ENDBRANCH 5 16
BRANCH 1 19
ATOM     19  O4  A00 X   2      70.508  31.647  85.8410  0.00  0.00     0.000 O
BRANCH 19 23
ATOM     20  C1  A00 X   2      68.781  33.765  89.1420  0.00  0.00     0.000 C
ATOM     21  C2  A00 X   2      69.832  34.511  88.2860  0.00  0.00     0.000 C
ATOM     22  C3  A00 X   2      70.030  33.811  86.9250  0.00  0.00     0.000 C
ATOM     23  C4  A00 X   2      70.371  32.317  87.1270  0.00  0.00     0.000 C
ATOM     24  C5  A00 X   2      69.258  31.691  88.0110  0.00  0.00     0.000 C
ATOM     25  O5  A00 X   2      69.225  32.389  89.2840  0.00  0.00     0.000 O
ATOM     26   O  A00 X   2      70.961  34.578  86.1430  0.00  0.00     0.000 O
ATOM     28  HD  A00 X   2      71.543  34.618  86.7820  0.00  0.00     0.000 HD
BRANCH 21 30
ATOM     28   N  A00 X   2      70.283  35.190  89.5040  0.00  0.00     0.000 N
ATOM     30  HD  A00 X   2      70.610  35.632  88.8350  0.00  0.00     0.000 HD
ATOM     30   O  A00 X   2      71.048  37.317  88.9110  0.00  0.00     0.000 OA
ATOM     31   S  A00 X   2      71.571  36.104  89.4310  0.00  0.00     0.000 S
ATOM     32   O  A00 X   2      72.017  36.171  90.7890  0.00  0.00     0.000 OA
ATOM     33   O  A00 X   2      72.534  35.414  88.6260  0.00  0.00     0.000 OA
ENDBRANCH 21 30
BRANCH 24 34
ATOM     34   C  A00 X   2      69.239  30.153  88.1730  0.00  0.00     0.000 C
ATOM     35   O  A00 X   2      69.766  28.427  91.3360  0.00  0.00     0.000 OA
ATOM     36   O  A00 X   2      69.819  29.753  89.4310  0.00  0.00     0.000 O
ATOM     37   O  A00 X   2      68.106  30.076  90.9900  0.00  0.00     0.000 OA
ATOM     38   S  A00 X   2      68.845  28.998  90.4080  0.00  0.00     0.000 S
ATOM     39   O  A00 X   2      68.123  28.053  89.6100  0.00  0.00     0.000 OA
ENDBRANCH 24 34
BRANCH 20 40
ATOM     40  O4  A00 X   3      67.565  33.801  88.3820  0.00  0.00     0.000 O
BRANCH 40 44
ATOM     41  C1  A00 X   3      64.672  31.991  87.1670  0.00  0.00     0.000 C
ATOM     42  C2  A00 X   3      64.987  33.466  86.8400  0.00  0.00     0.000 C
ATOM     43  C3  A00 X   3      65.276  34.272  88.1330  0.00  0.00     0.000 C
ATOM     44  C4  A00 X   3      66.302  33.633  89.0610  0.00  0.00     0.000 C
ATOM     45  C5  A00 X   3      65.913  32.154  89.3460  0.00  0.00     0.000 C
ATOM     46  O5  A00 X   3      65.640  31.436  88.1000  0.00  0.00     0.000 O
ATOM     47   O  A00 X   3      65.496  35.670  87.9600  0.00  0.00     0.000 O
ATOM     49  HD  A00 X   3      66.096  35.537  88.5710  0.00  0.00     0.000 HD
BRANCH 42 49
ATOM     49   O  A00 X   3      66.126  33.469  85.9510  0.00  0.00     0.000 O
ATOM     50   O  A00 X   3      67.489  35.124  84.8870  0.00  0.00     0.000 OA
ATOM     51   O  A00 X   3      65.150  35.455  84.9710  0.00  0.00     0.000 OA
ATOM     52   O  A00 X   3      65.993  33.709  83.6190  0.00  0.00     0.000 OA
ATOM     53   S  A00 X   3      66.210  34.495  84.7840  0.00  0.00     0.000 S
ENDBRANCH 42 49
BRANCH 45 54
ATOM     54   C  A00 X   3      64.771  32.054  90.3640  0.00  0.00     0.000 C
ATOM     55   O  A00 X   3      64.405  30.973  90.7790  0.00  0.00     0.000 OA
ATOM     56   O  A00 X   3      64.208  33.057  90.7730  0.00  0.00     0.000 OA
ENDBRANCH 45 54
BRANCH 41 57
ATOM     57  O4  A00 X   4      63.296  31.817  87.5750  0.00  0.00     0.000 O
BRANCH 57 61
ATOM     58  C1  A00 X   4      60.456  28.609  87.0430  0.00  0.00     0.000 C
ATOM     59  C2  A00 X   4      61.756  28.324  87.8360  0.00  0.00     0.000 C
ATOM     60  C3  A00 X   4      62.506  29.602  88.2670  0.00  0.00     0.000 C
ATOM     61  C4  A00 X   4      62.659  30.598  87.0980  0.00  0.00     0.000 C
ATOM     62  C5  A00 X   4      61.226  30.904  86.5950  0.00  0.00     0.000 C
ATOM     63  O5  A00 X   4      60.627  29.683  86.0900  0.00  0.00     0.000 O
BRANCH 59 66
ATOM     64   N  A00 X   4      62.735  27.567  87.0350  0.00  0.00     0.000 N
ATOM     66  HD  A00 X   4      62.717  27.675  86.1760  0.00  0.00     0.000 HD
ATOM     66   O  A00 X   4      61.495  25.577  87.5860  0.00  0.00     0.000 OA
ATOM     67   S  A00 X   4      62.823  25.984  87.2460  0.00  0.00     0.000 S
ATOM     68   O  A00 X   4      63.281  25.576  85.9500  0.00  0.00     0.000 OA
ATOM     69   O  A00 X   4      63.826  25.920  88.2710  0.00  0.00     0.000 OA
ENDBRANCH 59 66
BRANCH 62 70
ATOM     70   C  A00 X   4      61.162  31.978  85.4830  0.00  0.00     0.000 C
ATOM     71   O  A00 X   4      62.289  31.752  82.0500  0.00  0.00     0.000 OA
ATOM     72   O  A00 X   4      62.673  33.402  83.6850  0.00  0.00     0.000 OA
ATOM     73   O  A00 X   4      61.492  31.377  84.2210  0.00  0.00     0.000 O
ATOM     74   O  A00 X   4      63.865  31.281  83.8140  0.00  0.00     0.000 OA
ATOM     75   S  A00 X   4      62.689  31.983  83.4100  0.00  0.00     0.000 S
ENDBRANCH 62 70
ENDBRANCH 57 61
ENDBRANCH 41 57
ENDBRANCH 40 44
ENDBRANCH 20 40
ENDBRANCH 19 23
ENDBRANCH 1 19
TORSDOF 14
ENDMDL
MODEL 21
REMARK VINA RESULT:      -0.3     48.678     54.365
ROOT
ATOM      1  C1  A00 X   1      61.776  19.349  26.8240  0.00  0.00     0.000 C
ATOM      2  C2  A00 X   1      61.878  17.879  27.3110  0.00  0.00     0.000 C
ATOM      3  C3  A00 X   1      63.164  17.511  28.1210  0.00  0.00     0.000 C
ATOM      4  C4  A00 X   1      64.329  18.529  28.0250  0.00  0.00     0.000 C
ATOM      5  C5  A00 X   1      64.234  19.398  26.7710  0.00  0.00     0.000 C
ATOM      6  O5  A00 X   1      62.995  20.127  26.9220  0.00  0.00     0.000 O
ATOM      7   O  A00 X   1      63.670  16.270  27.6360  0.00  0.00     0.000 O
ATOM      9  HD  A00 X   1      64.351  16.788  27.7690  0.00  0.00     0.000 HD
ATOM      9   O  A00 X   1      64.393  19.360  29.1840  0.00  0.00     0.000 O
ATOM     11  HD  A00 X   1      65.073  19.879  29.3160  0.00  0.00     0.000 HD
ENDROOT
BRANCH 2 11
ATOM     11   O  A00 X   1      60.718  17.605  28.1220  0.00  0.00     0.000 O
ATOM     12   O  A00 X   1      60.486  15.558  29.3550  0.00  0.00     0.000 OA
ATOM     13   O  A00 X   1      60.563  15.481  26.9250  0.00  0.00     0.000 OA
ATOM     14   O  A00 X   1      58.696  16.442  28.0420  0.00  0.00     0.000 OA
ATOM     15   S  A00 X   1      60.105  16.163  28.1040  0.00  0.00     0.000 S
ENDBRANCH 2 11
BRANCH 5 16
ATOM     16   C  A00 X   1      64.340  18.636  25.4460  0.00  0.00     0.000 C
ATOM     17   O  A00 X   1      64.056  19.216  24.4180  0.00  0.00     0.000 OA
ATOM     18   O  A00 X   1      64.703  17.478  25.3870  0.00  0.00     0.000 OA
ENDBRANCH 5 16
BRANCH 1 19
ATOM     19  O4  A00 X   2      61.180  19.465  25.5090  0.00  0.00     0.000 O
BRANCH 19 23
ATOM     20  C1  A00 X   2      58.939  22.981  26.4960  0.00  0.00     0.000 C
ATOM     21  C2  A00 X   2      58.201  21.622  26.5620  0.00  0.00     0.000 C
ATOM     22  C3  A00 X   2      59.207  20.453  26.6120  0.00  0.00     0.000 C
ATOM     23  C4  A00 X   2      60.201  20.540  25.4320  0.00  0.00     0.000 C
ATOM     24  C5  A00 X   2      60.856  21.948  25.4650  0.00  0.00     0.000 C
ATOM     25  O5  A00 X   2      59.815  22.951  25.3380  0.00  0.00     0.000 O
ATOM     26   O  A00 X   2      58.477  19.221  26.7420  0.00  0.00     0.000 O
ATOM     28  HD  A00 X   2      57.947  19.407  26.0820  0.00  0.00     0.000 HD
BRANCH 21 30
ATOM     28   N  A00 X   2      56.985  22.302  26.1060  0.00  0.00     0.000 N
ATOM     30  HD  A00 X   2      56.739  21.536  26.4240  0.00  0.00     0.000 HD
ATOM     30   O  A00 X   2      55.146  21.216  27.0520  0.00  0.00     0.000 OA
ATOM     31   S  A00 X   2      55.710  21.431  25.7670  0.00  0.00     0.000 S
ATOM     32   O  A00 X   2      54.943  22.275  24.9040  0.00  0.00     0.000 OA
ATOM     33   O  A00 X   2      56.165  20.274  25.0560  0.00  0.00     0.000 OA
ENDBRANCH 21 30
BRANCH 24 34
ATOM     34   C  A00 X   2      62.057  22.212  24.5270  0.00  0.00     0.000 C
ATOM     35   O  A00 X   2      62.034  24.641  21.8150  0.00  0.00     0.000 OA
ATOM     36   O  A00 X   2      61.653  22.945  23.3540  0.00  0.00     0.000 O
ATOM     37   O  A00 X   2      61.545  25.170  24.0680  0.00  0.00     0.000 OA
ATOM     38   S  A00 X   2      62.323  24.358  23.1830  0.00  0.00     0.000 S
ATOM     39   O  A00 X   2      63.712  24.187  23.4870  0.00  0.00     0.000 OA
ENDBRANCH 24 34
BRANCH 20 40
ATOM     40  O4  A00 X   3      59.727  23.053  27.6930  0.00  0.00     0.000 O
BRANCH 40 44
ATOM     41  C1  A00 X   3      62.916  23.864  29.2100  0.00  0.00     0.000 C
ATOM     42  C2  A00 X   3      61.698  23.297  29.9710  0.00  0.00     0.000 C
ATOM     43  C3  A00 X   3      60.420  24.122  29.6670  0.00  0.00     0.000 C
ATOM     44  C4  A00 X   3      60.148  24.344  28.1850  0.00  0.00     0.000 C
ATOM     45  C5  A00 X   3      61.415  24.918  27.4910  0.00  0.00     0.000 C
ATOM     46  O5  A00 X   3      62.597  24.116  27.8130  0.00  0.00     0.000 O
ATOM     47   O  A00 X   3      59.248  23.741  30.3840  0.00  0.00     0.000 O
ATOM     49  HD  A00 X   3      58.866  23.907  29.6250  0.00  0.00     0.000 HD
BRANCH 42 49
ATOM     49   O  A00 X   3      61.546  21.920  29.5620  0.00  0.00     0.000 O
ATOM     50   O  A00 X   3      60.013  20.137  30.0120  0.00  0.00     0.000 OA
ATOM     51   O  A00 X   3      60.714  21.518  31.7990  0.00  0.00     0.000 OA
ATOM     52   O  A00 X   3      62.297  20.073  30.8030  0.00  0.00     0.000 OA
ATOM     53   S  A00 X   3      61.116  20.836  30.5930  0.00  0.00     0.000 S
ENDBRANCH 42 49
BRANCH 45 54
ATOM     54   C  A00 X   3      61.599  26.411  27.7910  0.00  0.00     0.000 C
ATOM     55   O  A00 X   3      62.438  27.062  27.2020  0.00  0.00     0.000 OA
ATOM     56   O  A00 X   3      60.907  26.970  28.6270  0.00  0.00     0.000 OA
ENDBRANCH 45 54
BRANCH 41 57
ATOM     57  O4  A00 X   4      63.493  24.998  29.8950  0.00  0.00     0.000 O
BRANCH 57 61
ATOM     58  C1  A00 X   4      67.540  26.448  30.2880  0.00  0.00     0.000 C
ATOM     59  C2  A00 X   4      66.910  26.383  28.8740  0.00  0.00     0.000 C
ATOM     60  C3  A00 X   4      65.378  26.202  28.8920  0.00  0.00     0.000 C
ATOM     61  C4  A00 X   4      64.946  25.072  29.8510  0.00  0.00     0.000 C
ATOM     62  C5  A00 X   4      65.505  25.448  31.2460  0.00  0.00     0.000 C
ATOM     63  O5  A00 X   4      66.954  25.479  31.1870  0.00  0.00     0.000 O
BRANCH 59 66
ATOM     64   N  A00 X   4      67.436  25.220  28.1370  0.00  0.00     0.000 N
ATOM     66  HD  A00 X   4      67.695  24.537  28.6010  0.00  0.00     0.000 HD
ATOM     66   O  A00 X   4      69.364  26.560  27.5990  0.00  0.00     0.000 OA
ATOM     67   S  A00 X   4      68.609  25.463  27.0770  0.00  0.00     0.000 S
ATOM     68   O  A00 X   4      69.264  24.188  27.1210  0.00  0.00     0.000 OA
ATOM     69   O  A00 X   4      67.836  25.687  25.8890  0.00  0.00     0.000 OA
ENDBRANCH 59 66
BRANCH 62 70
ATOM     70   C  A00 X   4      65.080  24.483  32.3790  0.00  0.00     0.000 C
ATOM     71   O  A00 X   4      66.102  21.054  32.9300  0.00  0.00     0.000 OA
ATOM     72   O  A00 X   4      63.959  22.030  32.8980  0.00  0.00     0.000 OA
ATOM     73   O  A00 X   4      65.916  23.315  32.3460  0.00  0.00     0.000 O
ATOM     74   O  A00 X   4      65.135  21.640  30.8000  0.00  0.00     0.000 OA
ATOM     75   S  A00 X   4      65.219  21.918  32.1980  0.00  0.00     0.000 S
ENDBRANCH 62 70
ENDBRANCH 57 61
ENDBRANCH 41 57
ENDBRANCH 40 44
ENDBRANCH 20 40
ENDBRANCH 19 23
ENDBRANCH 1 19
TORSDOF 14
ENDMDL
MODEL 22
REMARK VINA RESULT:      -0.3     41.596     47.340
ROOT
ATOM      1  C1  A00 X   1      53.578  13.486  24.0350  0.00  0.00     0.000 C
ATOM      2  C2  A00 X   1      52.603  12.989  22.9350  0.00  0.00     0.000 C
ATOM      3  C3  A00 X   1      53.219  12.784  21.5120  0.00  0.00     0.000 C
ATOM      4  C4  A00 X   1      54.605  13.441  21.2830  0.00  0.00     0.000 C
ATOM      5  C5  A00 X   1      54.867  14.590  22.2550  0.00  0.00     0.000 C
ATOM      6  O5  A00 X   1      54.858  13.974  23.5630  0.00  0.00     0.000 O
ATOM      7   O  A00 X   1      52.338  13.353  20.5460  0.00  0.00     0.000 O
ATOM      9  HD  A00 X   1      53.144  13.560  20.3090  0.00  0.00     0.000 HD
ATOM      9   O  A00 X   1      55.658  12.481  21.3740  0.00  0.00     0.000 O
ATOM     11  HD  A00 X   1      56.465  12.689  21.1370  0.00  0.00     0.000 HD
ENDROOT
BRANCH 2 11
ATOM     11   O  A00 X   1      52.035  11.743  23.3830  0.00  0.00     0.000 O
ATOM     12   O  A00 X   1      50.660  10.387  21.9560  0.00  0.00     0.000 OA
ATOM     13   O  A00 X   1      49.889  12.604  22.5940  0.00  0.00     0.000 OA
ATOM     14   O  A00 X   1      50.035  10.867  24.2120  0.00  0.00     0.000 OA
ATOM     15   S  A00 X   1      50.560  11.394  22.9820  0.00  0.00     0.000 S
ENDBRANCH 2 11
BRANCH 5 16
ATOM     16   C  A00 X   1      53.906  15.777  22.1300  0.00  0.00     0.000 C
ATOM     17   O  A00 X   1      53.915  16.625  22.9980  0.00  0.00     0.000 OA
ATOM     18   O  A00 X   1      53.142  15.901  21.1940  0.00  0.00     0.000 OA
ENDBRANCH 5 16
BRANCH 1 19
ATOM     19  O4  A00 X   2      52.961  14.424  24.9500  0.00  0.00     0.000 O
BRANCH 19 23
ATOM     20  C1  A00 X   2      54.930  12.823  28.4040  0.00  0.00     0.000 C
ATOM     21  C2  A00 X   2      53.482  12.351  28.1230  0.00  0.00     0.000 C
ATOM     22  C3  A00 X   2      53.078  12.654  26.6660  0.00  0.00     0.000 C
ATOM     23  C4  A00 X   2      53.295  14.150  26.3410  0.00  0.00     0.000 C
ATOM     24  C5  A00 X   2      54.770  14.500  26.6800  0.00  0.00     0.000 C
ATOM     25  O5  A00 X   2      54.999  14.240  28.0900  0.00  0.00     0.000 O
ATOM     26   O  A00 X   2      51.756  12.137  26.4360  0.00  0.00     0.000 O
ATOM     28  HD  A00 X   2      51.430  12.517  27.1430  0.00  0.00     0.000 HD
BRANCH 21 30
ATOM     28   N  A00 X   2      53.263  12.289  29.5720  0.00  0.00     0.000 N
ATOM     30  HD  A00 X   2      52.620  11.842  29.2010  0.00  0.00     0.000 HD
ATOM     30   O  A00 X   2      51.739  10.571  30.0030  0.00  0.00     0.000 OA
ATOM     31   S  A00 X   2      51.806  11.986  30.1050  0.00  0.00     0.000 S
ATOM     32   O  A00 X   2      51.822  12.495  31.4420  0.00  0.00     0.000 OA
ATOM     33   O  A00 X   2      50.894  12.739  29.2980  0.00  0.00     0.000 OA
ENDBRANCH 21 30
BRANCH 24 34
ATOM     34   C  A00 X   2      55.310  15.878  26.2320  0.00  0.00     0.000 C
ATOM     35   O  A00 X   2      56.393  18.490  28.5270  0.00  0.00     0.000 OA
ATOM     36   O  A00 X   2      55.322  16.816  27.3270  0.00  0.00     0.000 O
ATOM     37   O  A00 X   2      57.262  16.291  28.5230  0.00  0.00     0.000 OA
ATOM     38   S  A00 X   2      56.741  17.361  27.7280  0.00  0.00     0.000 S
ATOM     39   O  A00 X   2      57.418  17.669  26.5040  0.00  0.00     0.000 OA
ENDBRANCH 24 34
BRANCH 20 40
ATOM     40  O4  A00 X   3      55.760  12.088  27.4930  0.00  0.00     0.000 O
BRANCH 40 44
ATOM     41  C1  A00 X   3      58.518  12.135  25.1440  0.00  0.00     0.000 C
ATOM     42  C2  A00 X   3      57.667  10.890  25.4790  0.00  0.00     0.000 C
ATOM     43  C3  A00 X   3      57.575  10.677  27.0110  0.00  0.00     0.000 C
ATOM     44  C4  A00 X   3      57.160  11.913  27.7990  0.00  0.00     0.000 C
ATOM     45  C5  A00 X   3      58.063  13.118  27.4120  0.00  0.00     0.000 C
ATOM     46  O5  A00 X   3      58.129  13.276  25.9580  0.00  0.00     0.000 O
ATOM     47   O  A00 X   3      56.885   9.504  27.4370  0.00  0.00     0.000 O
ATOM     49  HD  A00 X   3      56.589  10.037  28.0510  0.00  0.00     0.000 HD
BRANCH 42 49
ATOM     49   O  A00 X   3      56.363  11.100  24.8950  0.00  0.00     0.000 O
ATOM     50   O  A00 X   3      54.282   9.918  24.8360  0.00  0.00     0.000 OA
ATOM     51   O  A00 X   3      56.293   8.700  24.5920  0.00  0.00     0.000 OA
ATOM     52   O  A00 X   3      55.650  10.173  22.8590  0.00  0.00     0.000 OA
ATOM     53   S  A00 X   3      55.588   9.911  24.2550  0.00  0.00     0.000 S
ENDBRANCH 42 49
BRANCH 45 54
ATOM     54   C  A00 X   3      59.444  13.029  28.0730  0.00  0.00     0.000 C
ATOM     55   O  A00 X   3      60.214  13.966  28.0240  0.00  0.00     0.000 OA
ATOM     56   O  A00 X   3      59.793  12.015  28.6570  0.00  0.00     0.000 OA
ENDBRANCH 45 54
BRANCH 41 57
ATOM     57  O4  A00 X   4      59.932  11.841  25.1820  0.00  0.00     0.000 O
BRANCH 57 61
ATOM     58  C1  A00 X   4      63.303  13.324  22.9290  0.00  0.00     0.000 C
ATOM     59  C2  A00 X   4      62.492  14.322  23.7920  0.00  0.00     0.000 C
ATOM     60  C3  A00 X   4      61.560  13.637  24.8120  0.00  0.00     0.000 C
ATOM     61  C4  A00 X   4      60.730  12.509  24.1630  0.00  0.00     0.000 C
ATOM     62  C5  A00 X   4      61.747  11.519  23.5450  0.00  0.00     0.000 C
ATOM     63  O5  A00 X   4      62.503  12.196  22.5080  0.00  0.00     0.000 O
BRANCH 59 66
ATOM     64   N  A00 X   4      61.605  15.138  22.9430  0.00  0.00     0.000 N
ATOM     66  HD  A00 X   4      61.329  14.788  22.2000  0.00  0.00     0.000 HD
ATOM     66   O  A00 X   4      63.509  16.536  22.4710  0.00  0.00     0.000 OA
ATOM     67   S  A00 X   4      62.083  16.612  22.5450  0.00  0.00     0.000 S
ATOM     68   O  A00 X   4      61.408  16.773  21.2900  0.00  0.00     0.000 OA
ATOM     69   O  A00 X   4      61.508  17.364  23.6230  0.00  0.00     0.000 OA
ENDBRANCH 59 66
BRANCH 62 70
ATOM     70   C  A00 X   4      61.105  10.250  22.9350  0.00  0.00     0.000 C
ATOM     71   O  A00 X   4      59.045   9.959  19.9720  0.00  0.00     0.000 OA
ATOM     72   O  A00 X   4      58.724   9.127  22.1510  0.00  0.00     0.000 OA
ATOM     73   O  A00 X   4      60.585  10.560  21.6320  0.00  0.00     0.000 O
ATOM     74   O  A00 X   4      58.365  11.495  21.7020  0.00  0.00     0.000 OA
ATOM     75   S  A00 X   4      59.062  10.295  21.3680  0.00  0.00     0.000 S
ENDBRANCH 62 70
ENDBRANCH 57 61
ENDBRANCH 41 57
ENDBRANCH 40 44
ENDBRANCH 20 40
ENDBRANCH 19 23
ENDBRANCH 1 19
TORSDOF 14
ENDMDL
MODEL 23
REMARK VINA RESULT:      -0.3    110.108    114.084
ROOT
ATOM      1  C1  A00 X   1      96.423  54.811  89.9550  0.00  0.00     0.000 C
ATOM      2  C2  A00 X   1      94.911  55.159  89.9820  0.00  0.00     0.000 C
ATOM      3  C3  A00 X   1      94.556  56.663  90.2230  0.00  0.00     0.000 C
ATOM      4  C4  A00 X   1      95.711  57.544  90.7640  0.00  0.00     0.000 C
ATOM      5  C5  A00 X   1      96.788  56.717  91.4650  0.00  0.00     0.000 C
ATOM      6  O5  A00 X   1      97.313  55.849  90.4360  0.00  0.00     0.000 O
ATOM      7   O  A00 X   1      93.506  56.737  91.1850  0.00  0.00     0.000 O
ATOM      9  HD  A00 X   1      94.070  57.366  91.3740  0.00  0.00     0.000 HD
ATOM      9   O  A00 X   1      96.302  58.325  89.7250  0.00  0.00     0.000 O
ATOM     11  HD  A00 X   1      96.866  58.954  89.9130  0.00  0.00     0.000 HD
ENDROOT
BRANCH 2 11
ATOM     11   O  A00 X   1      94.341  54.737  88.7280  0.00  0.00     0.000 O
ATOM     12   O  A00 X   1      92.083  55.275  88.1130  0.00  0.00     0.000 OA
ATOM     13   O  A00 X   1      92.484  53.842  90.0380  0.00  0.00     0.000 OA
ATOM     14   O  A00 X   1      92.967  53.071  87.8400  0.00  0.00     0.000 OA
ATOM     15   S  A00 X   1      92.863  54.216  88.7030  0.00  0.00     0.000 S
ENDBRANCH 2 11
BRANCH 5 16
ATOM     16   C  A00 X   1      96.318  55.970  92.7170  0.00  0.00     0.000 C
ATOM     17   O  A00 X   1      97.050  55.131  93.2020  0.00  0.00     0.000 OA
ATOM     18   O  A00 X   1      95.246  56.190  93.2440  0.00  0.00     0.000 OA
ENDBRANCH 5 16
BRANCH 1 19
ATOM     19  O4  A00 X   2      96.717  53.535  90.5750  0.00  0.00     0.000 O
BRANCH 19 23
ATOM     20  C1  A00 X   2      99.663  52.448  87.6590  0.00  0.00     0.000 C
ATOM     21  C2  A00 X   2      98.234  51.881  87.4770  0.00  0.00     0.000 C
ATOM     22  C3  A00 X   2      97.215  52.681  88.3150  0.00  0.00     0.000 C
ATOM     23  C4  A00 X   2      97.654  52.737  89.7950  0.00  0.00     0.000 C
ATOM     24  C5  A00 X   2      99.100  53.302  89.8410  0.00  0.00     0.000 C
ATOM     25  O5  A00 X   2      99.969  52.423  89.0790  0.00  0.00     0.000 O
ATOM     26   O  A00 X   2      95.899  52.162  88.0590  0.00  0.00     0.000 O
ATOM     28  HD  A00 X   2      96.140  51.342  88.2000  0.00  0.00     0.000 HD
BRANCH 21 30
ATOM     28   N  A00 X   2      98.830  50.656  86.9350  0.00  0.00     0.000 N
ATOM     30  HD  A00 X   2      97.991  50.643  86.7190  0.00  0.00     0.000 HD
ATOM     30   O  A00 X   2      97.357  49.770  85.3520  0.00  0.00     0.000 OA
ATOM     31   S  A00 X   2      97.886  49.427  86.6250  0.00  0.00     0.000 S
ATOM     32   O  A00 X   2      98.776  48.307  86.6270  0.00  0.00     0.000 OA
ATOM     33   O  A00 X   2      96.955  49.324  87.7090  0.00  0.00     0.000 OA
ENDBRANCH 21 30
BRANCH 24 34
ATOM     34   C  A00 X   2      99.690  53.675  91.2210  0.00  0.00     0.000 C
ATOM     35   O  A00 X   2     102.563  52.020  92.7270  0.00  0.00     0.000 OA
ATOM     36   O  A00 X   2     100.573  52.644  91.7080  0.00  0.00     0.000 O
ATOM     37   O  A00 X   2     102.590  53.028  90.5870  0.00  0.00     0.000 OA
ATOM     38   S  A00 X   2     102.068  53.085  91.9190  0.00  0.00     0.000 S
ATOM     39   O  A00 X   2     102.026  54.365  92.5600  0.00  0.00     0.000 OA
ENDBRANCH 24 34
BRANCH 20 40
ATOM     40  O4  A00 X   3      99.602  53.808  87.2050  0.00  0.00     0.000 O
BRANCH 40 44
ATOM     41  C1  A00 X   3     100.500  57.268  87.7930  0.00  0.00     0.000 C
ATOM     42  C2  A00 X   3      99.649  56.769  86.6040  0.00  0.00     0.000 C
ATOM     43  C3  A00 X   3     100.350  55.594  85.8750  0.00  0.00     0.000 C
ATOM     44  C4  A00 X   3     100.817  54.469  86.7890  0.00  0.00     0.000 C
ATOM     45  C5  A00 X   3     101.668  55.048  87.9540  0.00  0.00     0.000 C
ATOM     46  O5  A00 X   3     100.974  56.160  88.6070  0.00  0.00     0.000 O
ATOM     47   O  A00 X   3      99.695  55.108  84.7050  0.00  0.00     0.000 O
ATOM     49  HD  A00 X   3      99.954  54.342  85.0150  0.00  0.00     0.000 HD
BRANCH 42 49
ATOM     49   O  A00 X   3      98.368  56.369  87.1390  0.00  0.00     0.000 O
ATOM     50   O  A00 X   3      96.355  55.405  86.2760  0.00  0.00     0.000 OA
ATOM     51   O  A00 X   3      97.443  57.088  85.0220  0.00  0.00     0.000 OA
ATOM     52   O  A00 X   3      96.427  57.688  87.0690  0.00  0.00     0.000 OA
ATOM     53   S  A00 X   3      97.062  56.645  86.3400  0.00  0.00     0.000 S
ENDBRANCH 42 49
BRANCH 45 54
ATOM     54   C  A00 X   3     103.086  55.408  87.4950  0.00  0.00     0.000 C
ATOM     55   O  A00 X   3     103.943  55.698  88.3050  0.00  0.00     0.000 OA
ATOM     56   O  A00 X   3     103.378  55.412  86.3090  0.00  0.00     0.000 OA
ENDBRANCH 45 54
BRANCH 41 57
ATOM     57  O4  A00 X   4     101.545  58.167  87.3600  0.00  0.00     0.000 O
BRANCH 57 61
ATOM     58  C1  A00 X   4     103.384  61.625  89.1770  0.00  0.00     0.000 C
ATOM     59  C2  A00 X   4     103.511  60.256  89.8920  0.00  0.00     0.000 C
ATOM     60  C3  A00 X   4     103.141  59.058  88.9950  0.00  0.00     0.000 C
ATOM     61  C4  A00 X   4     101.806  59.287  88.2540  0.00  0.00     0.000 C
ATOM     62  C5  A00 X   4     101.977  60.594  87.4400  0.00  0.00     0.000 C
ATOM     63  O5  A00 X   4     102.198  61.699  88.3540  0.00  0.00     0.000 O
BRANCH 59 66
ATOM     64   N  A00 X   4     102.628  60.109  91.0620  0.00  0.00     0.000 N
ATOM     66  HD  A00 X   4     101.874  60.535  91.0510  0.00  0.00     0.000 HD
ATOM     66   O  A00 X   4     104.228  61.407  92.3090  0.00  0.00     0.000 OA
ATOM     67   S  A00 X   4     103.238  60.396  92.5130  0.00  0.00     0.000 S
ATOM     68   O  A00 X   4     102.059  60.820  93.2100  0.00  0.00     0.000 OA
ATOM     69   O  A00 X   4     103.687  59.079  92.8640  0.00  0.00     0.000 OA
ENDBRANCH 59 66
BRANCH 62 70
ATOM     70   C  A00 X   4     100.770  60.938  86.5350  0.00  0.00     0.000 C
ATOM     71   O  A00 X   4      97.454  62.021  87.5030  0.00  0.00     0.000 OA
ATOM     72   O  A00 X   4      98.143  60.330  86.0160  0.00  0.00     0.000 OA
ATOM     73   O  A00 X   4      99.743  61.556  87.3280  0.00  0.00     0.000 O
ATOM     74   O  A00 X   4      98.306  59.959  88.4190  0.00  0.00     0.000 OA
ATOM     75   S  A00 X   4      98.323  60.890  87.3370  0.00  0.00     0.000 S
ENDBRANCH 62 70
ENDBRANCH 57 61
ENDBRANCH 41 57
ENDBRANCH 40 44
ENDBRANCH 20 40
ENDBRANCH 19 23
ENDBRANCH 1 19
TORSDOF 14
ENDMDL
MODEL 24
REMARK VINA RESULT:      -0.3    117.435    121.199
ROOT
ATOM      1  C1  A00 X   1      91.049  83.015  89.0020  0.00  0.00     0.000 C
ATOM      2  C2  A00 X   1      91.757  84.331  89.4220  0.00  0.00     0.000 C
ATOM      3  C3  A00 X   1      91.182  85.047  90.6890  0.00  0.00     0.000 C
ATOM      4  C4  A00 X   1      89.778  84.572  91.1450  0.00  0.00     0.000 C
ATOM      5  C5  A00 X   1      88.994  83.914  90.0090  0.00  0.00     0.000 C
ATOM      6  O5  A00 X   1      89.777  82.755  89.6460  0.00  0.00     0.000 O
ATOM      7   O  A00 X   1      91.068  86.441  90.4140  0.00  0.00     0.000 O
ATOM      9  HD  A00 X   1      90.356  86.208  90.8480  0.00  0.00     0.000 HD
ATOM      9   O  A00 X   1      89.864  83.677  92.2530  0.00  0.00     0.000 O
ATOM     11  HD  A00 X   1      89.152  83.443  92.6870  0.00  0.00     0.000 HD
ENDROOT
BRANCH 2 11
ATOM     11   O  A00 X   1      93.148  84.029  89.6450  0.00  0.00     0.000 O
ATOM     12   O  A00 X   1      94.669  85.647  90.5590  0.00  0.00     0.000 OA
ATOM     13   O  A00 X   1      93.642  86.069  88.3940  0.00  0.00     0.000 OA
ATOM     14   O  A00 X   1      95.240  84.326  88.6510  0.00  0.00     0.000 OA
ATOM     15   S  A00 X   1      94.225  85.114  89.2960  0.00  0.00     0.000 S
ENDBRANCH 2 11
BRANCH 5 16
ATOM     16   C  A00 X   1      88.673  84.833  88.8260  0.00  0.00     0.000 C
ATOM     17   O  A00 X   1      88.244  84.337  87.8050  0.00  0.00     0.000 OA
ATOM     18   O  A00 X   1      88.826  86.038  88.8760  0.00  0.00     0.000 OA
ENDBRANCH 5 16
BRANCH 1 19
ATOM     19  O4  A00 X   2      90.954  82.864  87.5640  0.00  0.00     0.000 O
BRANCH 19 23
ATOM     20  C1  A00 X   2      91.779  78.659  87.6470  0.00  0.00     0.000 C
ATOM     21  C2  A00 X   2      92.955  79.612  87.3230  0.00  0.00     0.000 C
ATOM     22  C3  A00 X   2      92.625  81.058  87.7490  0.00  0.00     0.000 C
ATOM     23  C4  A00 X   2      91.290  81.518  87.1210  0.00  0.00     0.000 C
ATOM     24  C5  A00 X   2      90.202  80.476  87.5010  0.00  0.00     0.000 C
ATOM     25  O5  A00 X   2      90.596  79.179  86.9820  0.00  0.00     0.000 O
ATOM     26   O  A00 X   2      93.770  81.888  87.4920  0.00  0.00     0.000 O
ATOM     28  HD  A00 X   2      93.855  81.606  86.6780  0.00  0.00     0.000 HD
BRANCH 21 30
ATOM     28   N  A00 X   2      93.486  78.588  86.4180  0.00  0.00     0.000 N
ATOM     30  HD  A00 X   2      94.127  79.152  86.5620  0.00  0.00     0.000 HD
ATOM     30   O  A00 X   2      95.817  78.751  86.4220  0.00  0.00     0.000 OA
ATOM     31   S  A00 X   2      94.737  78.945  85.5200  0.00  0.00     0.000 S
ATOM     32   O  A00 X   2      94.667  77.998  84.4500  0.00  0.00     0.000 OA
ATOM     33   O  A00 X   2      94.537  80.273  85.0230  0.00  0.00     0.000 OA
ENDBRANCH 21 30
BRANCH 24 34
ATOM     34   C  A00 X   2      88.727  80.820  87.1890  0.00  0.00     0.000 C
ATOM     35   O  A00 X   2      86.645  78.956  84.8550  0.00  0.00     0.000 OA
ATOM     36   O  A00 X   2      88.276  80.153  85.9940  0.00  0.00     0.000 O
ATOM     37   O  A00 X   2      87.764  77.981  86.6970  0.00  0.00     0.000 OA
ATOM     38   S  A00 X   2      87.090  79.140  86.1970  0.00  0.00     0.000 S
ATOM     39   O  A00 X   2      86.150  79.786  87.0640  0.00  0.00     0.000 OA
ENDBRANCH 24 34
BRANCH 20 40
ATOM     40  O4  A00 X   3      91.601  78.732  89.0690  0.00  0.00     0.000 O
BRANCH 40 44
ATOM     41  C1  A00 X   3      89.277  79.018  91.8330  0.00  0.00     0.000 C
ATOM     42  C2  A00 X   3      90.814  78.964  91.9770  0.00  0.00     0.000 C
ATOM     43  C3  A00 X   3      91.402  77.759  91.1980  0.00  0.00     0.000 C
ATOM     44  C4  A00 X   3      90.933  77.650  89.7530  0.00  0.00     0.000 C
ATOM     45  C5  A00 X   3      89.381  77.706  89.6910  0.00  0.00     0.000 C
ATOM     46  O5  A00 X   3      88.869  78.852  90.4470  0.00  0.00     0.000 O
ATOM     47   O  A00 X   3      92.808  77.559  91.3310  0.00  0.00     0.000 O
ATOM     49  HD  A00 X   3      92.745  77.362  90.4900  0.00  0.00     0.000 HD
BRANCH 42 49
ATOM     49   O  A00 X   3      91.330  80.218  91.4780  0.00  0.00     0.000 O
ATOM     50   O  A00 X   3      93.490  81.196  91.1550  0.00  0.00     0.000 OA
ATOM     51   O  A00 X   3      93.078  79.969  93.1330  0.00  0.00     0.000 OA
ATOM     52   O  A00 X   3      91.961  82.030  92.8320  0.00  0.00     0.000 OA
ATOM     53   S  A00 X   3      92.537  80.905  92.1790  0.00  0.00     0.000 S
ENDBRANCH 42 49
BRANCH 45 54
ATOM     54   C  A00 X   3      88.747  76.375  90.1110  0.00  0.00     0.000 C
ATOM     55   O  A00 X   3      87.558  76.182  89.9630  0.00  0.00     0.000 OA
ATOM     56   O  A00 X   3      89.426  75.486  90.6010  0.00  0.00     0.000 OA
ENDBRANCH 45 54
BRANCH 41 57
ATOM     57  O4  A00 X   4      88.623  78.113  92.7500  0.00  0.00     0.000 O
BRANCH 57 61
ATOM     58  C1  A00 X   4      84.871  78.293  94.8790  0.00  0.00     0.000 C
ATOM     59  C2  A00 X   4      84.846  78.313  93.3300  0.00  0.00     0.000 C
ATOM     60  C3  A00 X   4      86.183  77.886  92.6880  0.00  0.00     0.000 C
ATOM     61  C4  A00 X   4      87.384  78.611  93.3320  0.00  0.00     0.000 C
ATOM     62  C5  A00 X   4      87.332  78.283  94.8450  0.00  0.00     0.000 C
ATOM     63  O5  A00 X   4      86.109  78.821  95.4080  0.00  0.00     0.000 O
BRANCH 59 66
ATOM     64   N  A00 X   4      84.594  79.677  92.8320  0.00  0.00     0.000 N
ATOM     66  HD  A00 X   4      84.850  80.338  93.3300  0.00  0.00     0.000 HD
ATOM     66   O  A00 X   4      82.252  79.280  93.2260  0.00  0.00     0.000 OA
ATOM     67   S  A00 X   4      83.107  80.057  92.3840  0.00  0.00     0.000 S
ATOM     68   O  A00 X   4      83.111  81.467  92.6410  0.00  0.00     0.000 OA
ATOM     69   O  A00 X   4      83.167  79.713  90.9910  0.00  0.00     0.000 OA
ENDBRANCH 59 66
BRANCH 62 70
ATOM     70   C  A00 X   4      88.531  78.836  95.6530  0.00  0.00     0.000 C
ATOM     71   O  A00 X   4      89.325  82.276  96.4510  0.00  0.00     0.000 OA
ATOM     72   O  A00 X   4      90.665  80.561  95.5550  0.00  0.00     0.000 OA
ATOM     73   O  A00 X   4      88.313  80.228  95.9310  0.00  0.00     0.000 O
ATOM     74   O  A00 X   4      89.024  81.671  94.1370  0.00  0.00     0.000 OA
ATOM     75   S  A00 X   4      89.399  81.251  95.4490  0.00  0.00     0.000 S
ENDBRANCH 62 70
ENDBRANCH 57 61
ENDBRANCH 41 57
ENDBRANCH 40 44
ENDBRANCH 20 40
ENDBRANCH 19 23
ENDBRANCH 1 19
TORSDOF 14
ENDMDL
MODEL 25
REMARK VINA RESULT:      -0.3     72.779     77.180
ROOT
ATOM      1  C1  A00 X   1      31.239  77.273  61.3260  0.00  0.00     0.000 C
ATOM      2  C2  A00 X   1      29.747  77.319  61.7500  0.00  0.00     0.000 C
ATOM      3  C3  A00 X   1      28.755  76.495  60.8640  0.00  0.00     0.000 C
ATOM      4  C4  A00 X   1      29.306  76.044  59.4860  0.00  0.00     0.000 C
ATOM      5  C5  A00 X   1      30.472  76.915  59.0170  0.00  0.00     0.000 C
ATOM      6  O5  A00 X   1      31.500  76.718  60.0130  0.00  0.00     0.000 O
ATOM      7   O  A00 X   1      27.606  77.296  60.5970  0.00  0.00     0.000 O
ATOM      9  HD  A00 X   1      27.806  76.884  59.8620  0.00  0.00     0.000 HD
ATOM      9   O  A00 X   1      29.706  74.674  59.5070  0.00  0.00     0.000 O
ATOM     11  HD  A00 X   1      29.906  74.262  58.7720  0.00  0.00     0.000 HD
ENDROOT
BRANCH 2 11
ATOM     11   O  A00 X   1      29.662  76.850  63.1090  0.00  0.00     0.000 O
ATOM     12   O  A00 X   1      27.553  76.440  64.1820  0.00  0.00     0.000 OA
ATOM     13   O  A00 X   1      28.122  78.705  63.5000  0.00  0.00     0.000 OA
ATOM     14   O  A00 X   1      29.303  77.648  65.2740  0.00  0.00     0.000 OA
ATOM     15   S  A00 X   1      28.567  77.456  64.0530  0.00  0.00     0.000 S
ENDBRANCH 2 11
BRANCH 5 16
ATOM     16   C  A00 X   1      30.124  78.388  58.7780  0.00  0.00     0.000 C
ATOM     17   O  A00 X   1      31.030  79.181  58.6280  0.00  0.00     0.000 OA
ATOM     18   O  A00 X   1      28.978  78.787  58.7250  0.00  0.00     0.000 OA
ENDBRANCH 5 16
BRANCH 1 19
ATOM     19  O4  A00 X   2      31.913  78.542  61.5070  0.00  0.00     0.000 O
BRANCH 19 23
ATOM     20  C1  A00 X   2      35.553  76.759  62.9010  0.00  0.00     0.000 C
ATOM     21  C2  A00 X   2      34.563  77.290  63.9660  0.00  0.00     0.000 C
ATOM     22  C3  A00 X   2      33.159  77.492  63.3600  0.00  0.00     0.000 C
ATOM     23  C4  A00 X   2      33.232  78.393  62.1070  0.00  0.00     0.000 C
ATOM     24  C5  A00 X   2      34.265  77.766  61.1310  0.00  0.00     0.000 C
ATOM     25  O5  A00 X   2      35.554  77.699  61.7940  0.00  0.00     0.000 O
ATOM     26   O  A00 X   2      32.264  77.918  64.4010  0.00  0.00     0.000 O
ATOM     28  HD  A00 X   2      32.796  78.547  64.6700  0.00  0.00     0.000 HD
BRANCH 21 30
ATOM     28   N  A00 X   2      35.715  77.666  64.7920  0.00  0.00     0.000 N
ATOM     30  HD  A00 X   2      35.020  77.679  65.3090  0.00  0.00     0.000 HD
ATOM     30   O  A00 X   2      35.097  77.465  67.0360  0.00  0.00     0.000 OA
ATOM     31   S  A00 X   2      35.460  78.486  66.1190  0.00  0.00     0.000 S
ATOM     32   O  A00 X   2      36.721  79.110  66.3790  0.00  0.00     0.000 OA
ATOM     33   O  A00 X   2      34.467  79.475  65.8220  0.00  0.00     0.000 OA
ENDBRANCH 21 30
BRANCH 24 34
ATOM     34   C  A00 X   2      34.358  78.349  59.7010  0.00  0.00     0.000 C
ATOM     35   O  A00 X   2      37.298  80.038  58.3740  0.00  0.00     0.000 OA
ATOM     36   O  A00 X   2      35.475  79.252  59.5770  0.00  0.00     0.000 O
ATOM     37   O  A00 X   2      37.325  77.852  59.2750  0.00  0.00     0.000 OA
ATOM     38   S  A00 X   2      36.574  78.821  58.5370  0.00  0.00     0.000 S
ATOM     39   O  A00 X   2      35.874  78.370  57.3720  0.00  0.00     0.000 OA
ENDBRANCH 24 34
BRANCH 20 40
ATOM     40  O4  A00 X   3      35.014  75.503  62.4620  0.00  0.00     0.000 O
BRANCH 40 44
ATOM     41  C1  A00 X   3      34.221  73.331  59.6740  0.00  0.00     0.000 C
ATOM     42  C2  A00 X   3      33.919  73.009  61.1540  0.00  0.00     0.000 C
ATOM     43  C3  A00 X   3      35.183  73.200  62.0320  0.00  0.00     0.000 C
ATOM     44  C4  A00 X   3      35.889  74.536  61.8430  0.00  0.00     0.000 C
ATOM     45  C5  A00 X   3      36.162  74.785  60.3330  0.00  0.00     0.000 C
ATOM     46  O5  A00 X   3      34.946  74.584  59.5420  0.00  0.00     0.000 O
ATOM     47   O  A00 X   3      35.044  72.847  63.4070  0.00  0.00     0.000 O
ATOM     49  HD  A00 X   3      35.536  73.550  63.5200  0.00  0.00     0.000 HD
BRANCH 42 49
ATOM     49   O  A00 X   3      32.850  73.888  61.5680  0.00  0.00     0.000 O
ATOM     50   O  A00 X   3      31.646  74.316  63.5920  0.00  0.00     0.000 OA
ATOM     51   O  A00 X   3      32.142  72.078  63.0110  0.00  0.00     0.000 OA
ATOM     52   O  A00 X   3      30.588  73.268  61.6870  0.00  0.00     0.000 OA
ATOM     53   S  A00 X   3      31.734  73.372  62.5230  0.00  0.00     0.000 S
ENDBRANCH 42 49
BRANCH 45 54
ATOM     54   C  A00 X   3      37.353  73.962  59.8280  0.00  0.00     0.000 C
ATOM     55   O  A00 X   3      37.838  73.089  60.5180  0.00  0.00     0.000 OA
ATOM     56   O  A00 X   3      37.836  74.171  58.7260  0.00  0.00     0.000 OA
ENDBRANCH 45 54
BRANCH 41 57
ATOM     57  O4  A00 X   4      34.849  72.216  59.0020  0.00  0.00     0.000 O
BRANCH 57 61
ATOM     58  C1  A00 X   4      34.666  70.747  54.9460  0.00  0.00     0.000 C
ATOM     59  C2  A00 X   4      35.211  72.176  55.1940  0.00  0.00     0.000 C
ATOM     60  C3  A00 X   4      35.564  72.452  56.6690  0.00  0.00     0.000 C
ATOM     61  C4  A00 X   4      34.433  72.011  57.6220  0.00  0.00     0.000 C
ATOM     62  C5  A00 X   4      34.197  70.504  57.3510  0.00  0.00     0.000 C
ATOM     63  O5  A00 X   4      33.747  70.331  55.9830  0.00  0.00     0.000 O
BRANCH 59 66
ATOM     64   N  A00 X   4      34.202  73.192  54.8420  0.00  0.00     0.000 N
ATOM     66  HD  A00 X   4      33.369  72.969  54.9110  0.00  0.00     0.000 HD
ATOM     66   O  A00 X   4      34.883  72.929  52.5470  0.00  0.00     0.000 OA
ATOM     67   S  A00 X   4      34.316  73.911  53.4180  0.00  0.00     0.000 S
ATOM     68   O  A00 X   4      32.939  74.228  53.1770  0.00  0.00     0.000 OA
ATOM     69   O  A00 X   4      35.127  75.043  53.7700  0.00  0.00     0.000 OA
ENDBRANCH 59 66
BRANCH 62 70
ATOM     70   C  A00 X   4      33.163  69.846  58.2950  0.00  0.00     0.000 C
ATOM     71   O  A00 X   4      29.579  70.343  58.4240  0.00  0.00     0.000 OA
ATOM     72   O  A00 X   4      31.194  70.368  60.1380  0.00  0.00     0.000 OA
ATOM     73   O  A00 X   4      31.837  70.146  57.8310  0.00  0.00     0.000 O
ATOM     74   O  A00 X   4      31.018  72.268  58.6230  0.00  0.00     0.000 OA
ATOM     75   S  A00 X   4      30.857  70.864  58.8220  0.00  0.00     0.000 S
ENDBRANCH 62 70
ENDBRANCH 57 61
ENDBRANCH 41 57
ENDBRANCH 40 44
ENDBRANCH 20 40
ENDBRANCH 19 23
ENDBRANCH 1 19
TORSDOF 14
ENDMDL
MODEL 26
REMARK VINA RESULT:      -0.3    100.685    105.025
ROOT
ATOM      1  C1  A00 X   1      41.534 101.612   8.9030  0.00  0.00     0.000 C
ATOM      2  C2  A00 X   1      42.977 101.390   8.3750  0.00  0.00     0.000 C
ATOM      3  C3  A00 X   1      43.583 102.553   7.5210  0.00  0.00     0.000 C
ATOM      4  C4  A00 X   1      42.566 103.602   7.0030  0.00  0.00     0.000 C
ATOM      5  C5  A00 X   1      41.143 103.046   6.9430  0.00  0.00     0.000 C
ATOM      6  O5  A00 X   1      40.817 102.726   8.3140  0.00  0.00     0.000 O
ATOM      7   O  A00 X   1      44.212 101.995   6.3700  0.00  0.00     0.000 O
ATOM      9  HD  A00 X   1      43.791 102.706   6.1120  0.00  0.00     0.000 HD
ATOM      9   O  A00 X   1      42.588 104.788   7.7970  0.00  0.00     0.000 O
ATOM     11  HD  A00 X   1      42.167 105.499   7.5380  0.00  0.00     0.000 HD
ENDROOT
BRANCH 2 11
ATOM     11   O  A00 X   1      43.828 101.150   9.5120  0.00  0.00     0.000 O
ATOM     12   O  A00 X   1      46.214 100.989   9.3010  0.00  0.00     0.000 OA
ATOM     13   O  A00 X   1      44.808  99.330   8.2110  0.00  0.00     0.000 OA
ATOM     14   O  A00 X   1      44.958  99.411  10.5840  0.00  0.00     0.000 OA
ATOM     15   S  A00 X   1      45.035 100.162   9.3600  0.00  0.00     0.000 S
ENDBRANCH 2 11
BRANCH 5 16
ATOM     16   C  A00 X   1      40.945 101.875   5.9760  0.00  0.00     0.000 C
ATOM     17   O  A00 X   1      39.907 101.247   6.0290  0.00  0.00     0.000 OA
ATOM     18   O  A00 X   1      41.783 101.557   5.1560  0.00  0.00     0.000 OA
ENDBRANCH 5 16
BRANCH 1 19
ATOM     19  O4  A00 X   2      40.738 100.403   8.8850  0.00  0.00     0.000 O
BRANCH 19 23
ATOM     20  C1  A00 X   2      38.824 101.244  12.6260  0.00  0.00     0.000 C
ATOM     21  C2  A00 X   2      40.033 100.278  12.6440  0.00  0.00     0.000 C
ATOM     22  C3  A00 X   2      40.862 100.412  11.3490  0.00  0.00     0.000 C
ATOM     23  C4  A00 X   2      39.963 100.226  10.1060  0.00  0.00     0.000 C
ATOM     24  C5  A00 X   2      38.786 101.233  10.2170  0.00  0.00     0.000 C
ATOM     25  O5  A00 X   2      38.046 100.955  11.4340  0.00  0.00     0.000 O
ATOM     26   O  A00 X   2      42.007  99.547  11.4430  0.00  0.00     0.000 O
ATOM     28  HD  A00 X   2      41.532  98.860  11.6730  0.00  0.00     0.000 HD
BRANCH 21 30
ATOM     28   N  A00 X   2      39.375  99.533  13.7220  0.00  0.00     0.000 N
ATOM     30  HD  A00 X   2      40.203  99.282  13.7130  0.00  0.00     0.000 HD
ATOM     30   O  A00 X   2      41.032  98.635  15.1030  0.00  0.00     0.000 OA
ATOM     31   S  A00 X   2      40.023  98.178  14.2140  0.00  0.00     0.000 S
ATOM     32   O  A00 X   2      38.936  97.489  14.8370  0.00  0.00     0.000 OA
ATOM     33   O  A00 X   2      40.459  97.469  13.0470  0.00  0.00     0.000 OA
ENDBRANCH 21 30
BRANCH 24 34
ATOM     34   C  A00 X   2      37.865 101.412   8.9870  0.00  0.00     0.000 C
ATOM     35   O  A00 X   2      35.997  98.704   7.4260  0.00  0.00     0.000 OA
ATOM     36   O  A00 X   2      37.548 100.142   8.3830  0.00  0.00     0.000 O
ATOM     37   O  A00 X   2      35.831  99.277   9.7150  0.00  0.00     0.000 OA
ATOM     38   S  A00 X   2      36.022  99.762   8.3820  0.00  0.00     0.000 S
ATOM     39   O  A00 X   2      35.311 100.944   7.9980  0.00  0.00     0.000 OA
ENDBRANCH 24 34
BRANCH 20 40
ATOM     40  O4  A00 X   3      39.383 102.562  12.5270  0.00  0.00     0.000 O
BRANCH 40 44
ATOM     41  C1  A00 X   3      39.239 105.818  10.9430  0.00  0.00     0.000 C
ATOM     42  C2  A00 X   3      40.295 105.392  11.9870  0.00  0.00     0.000 C
ATOM     43  C3  A00 X   3      39.620 104.787  13.2440  0.00  0.00     0.000 C
ATOM     44  C4  A00 X   3      38.597 103.697  12.9510  0.00  0.00     0.000 C
ATOM     45  C5  A00 X   3      37.569 104.201  11.8990  0.00  0.00     0.000 C
ATOM     46  O5  A00 X   3      38.249 104.773  10.7360  0.00  0.00     0.000 O
ATOM     47   O  A00 X   3      40.496 104.437  14.3140  0.00  0.00     0.000 O
ATOM     49  HD  A00 X   3      39.961 103.759  14.3810  0.00  0.00     0.000 HD
BRANCH 42 49
ATOM     49   O  A00 X   3      41.165 104.436  11.3430  0.00  0.00     0.000 O
ATOM     50   O  A00 X   3      43.045 103.099  11.9820  0.00  0.00     0.000 OA
ATOM     51   O  A00 X   3      42.920 105.332  12.7480  0.00  0.00     0.000 OA
ATOM     52   O  A00 X   3      43.272 104.949  10.4420  0.00  0.00     0.000 OA
ATOM     53   S  A00 X   3      42.694 104.441  11.6380  0.00  0.00     0.000 S
ENDBRANCH 42 49
BRANCH 45 54
ATOM     54   C  A00 X   3      36.538 105.150  12.5230  0.00  0.00     0.000 C
ATOM     55   O  A00 X   3      36.687 105.569  13.6520  0.00  0.00     0.000 OA
ATOM     56   O  A00 X   3      35.550 105.499  11.8950  0.00  0.00     0.000 OA
ENDBRANCH 45 54
BRANCH 41 57
ATOM     57  O4  A00 X   4      38.672 107.110  11.2540  0.00  0.00     0.000 O
BRANCH 57 61
ATOM     58  C1  A00 X   4      37.203 110.342   8.7970  0.00  0.00     0.000 C
ATOM     59  C2  A00 X   4      36.501 108.964   8.7070  0.00  0.00     0.000 C
ATOM     60  C3  A00 X   4      36.865 108.012   9.8650  0.00  0.00     0.000 C
ATOM     61  C4  A00 X   4      38.389 107.954  10.1020  0.00  0.00     0.000 C
ATOM     62  C5  A00 X   4      38.842 109.409  10.3790  0.00  0.00     0.000 C
ATOM     63  O5  A00 X   4      38.585 110.221   9.2040  0.00  0.00     0.000 O
BRANCH 59 66
ATOM     64   N  A00 X   4      36.922 108.272   7.4750  0.00  0.00     0.000 N
ATOM     66  HD  A00 X   4      37.703 108.465   7.1560  0.00  0.00     0.000 HD
ATOM     66   O  A00 X   4      35.269 109.572   6.3010  0.00  0.00     0.000 OA
ATOM     67   S  A00 X   4      35.943 108.314   6.2110  0.00  0.00     0.000 S
ATOM     68   O  A00 X   4      36.893 108.197   5.1440  0.00  0.00     0.000 OA
ATOM     69   O  A00 X   4      35.174 107.125   6.4470  0.00  0.00     0.000 OA
ENDBRANCH 59 66
BRANCH 62 70
ATOM     70   C  A00 X   4      40.338 109.545  10.7520  0.00  0.00     0.000 C
ATOM     71   O  A00 X   4      43.246 109.054   8.6530  0.00  0.00     0.000 OA
ATOM     72   O  A00 X   4      42.743 108.219  10.7960  0.00  0.00     0.000 OA
ATOM     73   O  A00 X   4      41.132 109.504   9.5550  0.00  0.00     0.000 O
ATOM     74   O  A00 X   4      41.646 107.260   8.8420  0.00  0.00     0.000 OA
ATOM     75   S  A00 X   4      42.245 108.404   9.4510  0.00  0.00     0.000 S
ENDBRANCH 62 70
ENDBRANCH 57 61
ENDBRANCH 41 57
ENDBRANCH 40 44
ENDBRANCH 20 40
ENDBRANCH 19 23
ENDBRANCH 1 19
TORSDOF 14
ENDMDL
MODEL 27
REMARK VINA RESULT:      -0.3     80.779     84.162
ROOT
ATOM      1  C1  A00 X   1      53.128  51.393  90.5760  0.00  0.00     0.000 C
ATOM      2  C2  A00 X   1      53.660  52.492  89.6180  0.00  0.00     0.000 C
ATOM      3  C3  A00 X   1      53.525  53.967  90.1220  0.00  0.00     0.000 C
ATOM      4  C4  A00 X   1      52.565  54.179  91.3210  0.00  0.00     0.000 C
ATOM      5  C5  A00 X   1      51.535  53.055  91.4410  0.00  0.00     0.000 C
ATOM      6  O5  A00 X   1      52.318  51.864  91.6820  0.00  0.00     0.000 O
ATOM      7   O  A00 X   1      53.025  54.771  89.0560  0.00  0.00     0.000 O
ATOM      9  HD  A00 X   1      52.620  55.024  89.7780  0.00  0.00     0.000 HD
ATOM      9   O  A00 X   1      53.282  54.309  92.5480  0.00  0.00     0.000 O
ATOM     11  HD  A00 X   1      52.877  54.562  93.2700  0.00  0.00     0.000 HD
ENDROOT
BRANCH 2 11
ATOM     11   O  A00 X   1      55.048  52.211  89.3560  0.00  0.00     0.000 O
ATOM     12   O  A00 X   1      56.445  53.738  88.1370  0.00  0.00     0.000 OA
ATOM     13   O  A00 X   1      54.554  52.698  87.0140  0.00  0.00     0.000 OA
ATOM     14   O  A00 X   1      56.435  51.395  87.6640  0.00  0.00     0.000 OA
ATOM     15   S  A00 X   1      55.639  52.559  87.9460  0.00  0.00     0.000 S
ENDBRANCH 2 11
BRANCH 5 16
ATOM     16   C  A00 X   1      50.574  52.927  90.2550  0.00  0.00     0.000 C
ATOM     17   O  A00 X   1      49.874  51.939  90.1790  0.00  0.00     0.000 OA
ATOM     18   O  A00 X   1      50.483  53.781  89.3950  0.00  0.00     0.000 OA
ENDBRANCH 5 16
BRANCH 1 19
ATOM     19  O4  A00 X   2      52.482  50.302  89.8760  0.00  0.00     0.000 O
BRANCH 19 23
ATOM     20  C1  A00 X   2      54.093  47.283  92.4550  0.00  0.00     0.000 C
ATOM     21  C2  A00 X   2      54.819  47.537  91.1120  0.00  0.00     0.000 C
ATOM     22  C3  A00 X   2      54.408  48.899  90.5140  0.00  0.00     0.000 C
ATOM     23  C4  A00 X   2      52.870  48.997  90.3930  0.00  0.00     0.000 C
ATOM     24  C5  A00 X   2      52.265  48.706  91.7930  0.00  0.00     0.000 C
ATOM     25  O5  A00 X   2      52.665  47.374  92.2080  0.00  0.00     0.000 O
ATOM     26   O  A00 X   2      55.158  49.118  89.3070  0.00  0.00     0.000 O
ATOM     28  HD  A00 X   2      54.958  48.340  88.9820  0.00  0.00     0.000 HD
BRANCH 21 30
ATOM     28   N  A00 X   2      55.129  46.105  91.0520  0.00  0.00     0.000 N
ATOM     30  HD  A00 X   2      55.646  46.498  90.4790  0.00  0.00     0.000 HD
ATOM     30   O  A00 X   2      57.175  45.849  89.9540  0.00  0.00     0.000 OA
ATOM     31   S  A00 X   2      55.807  45.530  89.7460  0.00  0.00     0.000 S
ATOM     32   O  A00 X   2      55.499  44.134  89.7910  0.00  0.00     0.000 OA
ATOM     33   O  A00 X   2      55.160  46.146  88.6260  0.00  0.00     0.000 OA
ENDBRANCH 21 30
BRANCH 24 34
ATOM     34   C  A00 X   2      50.754  48.967  91.9990  0.00  0.00     0.000 C
ATOM     35   O  A00 X   2      48.338  46.386  92.8690  0.00  0.00     0.000 OA
ATOM     36   O  A00 X   2      50.004  47.736  91.9810  0.00  0.00     0.000 O
ATOM     37   O  A00 X   2      50.284  46.852  94.1280  0.00  0.00     0.000 OA
ATOM     38   S  A00 X   2      49.241  47.396  93.3130  0.00  0.00     0.000 S
ATOM     39   O  A00 X   2      48.625  48.613  93.7490  0.00  0.00     0.000 OA
ENDBRANCH 24 34
BRANCH 20 40
ATOM     40  O4  A00 X   3      54.499  48.352  93.3230  0.00  0.00     0.000 O
BRANCH 40 44
ATOM     41  C1  A00 X   3      53.565  50.840  95.7840  0.00  0.00     0.000 C
ATOM     42  C2  A00 X   3      54.992  50.645  95.2280  0.00  0.00     0.000 C
ATOM     43  C3  A00 X   3      55.427  49.160  95.3240  0.00  0.00     0.000 C
ATOM     44  C4  A00 X   3      54.423  48.167  94.7530  0.00  0.00     0.000 C
ATOM     45  C5  A00 X   3      53.016  48.424  95.3630  0.00  0.00     0.000 C
ATOM     46  O5  A00 X   3      52.651  49.838  95.2600  0.00  0.00     0.000 O
ATOM     47   O  A00 X   3      56.764  48.875  94.9170  0.00  0.00     0.000 O
ATOM     49  HD  A00 X   3      56.392  48.168  94.5830  0.00  0.00     0.000 HD
BRANCH 42 49
ATOM     49   O  A00 X   3      54.978  51.103  93.8580  0.00  0.00     0.000 O
ATOM     50   O  A00 X   3      56.547  51.217  92.0530  0.00  0.00     0.000 OA
ATOM     51   O  A00 X   3      57.272  51.778  94.2320  0.00  0.00     0.000 OA
ATOM     52   O  A00 X   3      55.735  53.211  93.1520  0.00  0.00     0.000 OA
ATOM     53   S  A00 X   3      56.199  51.873  93.2740  0.00  0.00     0.000 S
ENDBRANCH 42 49
BRANCH 45 54
ATOM     54   C  A00 X   3      52.908  47.876  96.7910  0.00  0.00     0.000 C
ATOM     55   O  A00 X   3      51.838  47.844  97.3630  0.00  0.00     0.000 OA
ATOM     56   O  A00 X   3      53.896  47.463  97.3790  0.00  0.00     0.000 OA
ENDBRANCH 45 54
BRANCH 41 57
ATOM     57  O4  A00 X   4      53.564  50.940  97.2260  0.00  0.00     0.000 O
BRANCH 57 61
ATOM     58  C1  A00 X   4      51.131  53.162 100.0160  0.00  0.00     0.000 C
ATOM     59  C2  A00 X   4      50.445  52.111  99.1080  0.00  0.00     0.000 C
ATOM     60  C3  A00 X   4      51.437  51.145  98.4280  0.00  0.00     0.000 C
ATOM     61  C4  A00 X   4      52.617  51.898  97.7790  0.00  0.00     0.000 C
ATOM     62  C5  A00 X   4      53.285  52.720  98.9090  0.00  0.00     0.000 C
ATOM     63  O5  A00 X   4      52.336  53.692  99.4170  0.00  0.00     0.000 O
BRANCH 59 66
ATOM     64   N  A00 X   4      49.723  52.762  98.0000  0.00  0.00     0.000 N
ATOM     66  HD  A00 X   4      50.020  53.527  97.7240  0.00  0.00     0.000 HD
ATOM     66   O  A00 X   4      47.915  53.154  99.5430  0.00  0.00     0.000 OA
ATOM     67   S  A00 X   4      48.143  52.968  98.1440  0.00  0.00     0.000 S
ATOM     68   O  A00 X   4      47.959  54.133  97.3290  0.00  0.00     0.000 OA
ATOM     69   O  A00 X   4      47.674  51.750  97.5450  0.00  0.00     0.000 OA
ENDBRANCH 59 66
BRANCH 62 70
ATOM     70   C  A00 X   4      54.569  53.467  98.4750  0.00  0.00     0.000 C
ATOM     71   O  A00 X   4      54.889  56.310  96.2560  0.00  0.00     0.000 OA
ATOM     72   O  A00 X   4      56.045  54.259  96.2980  0.00  0.00     0.000 OA
ATOM     73   O  A00 X   4      54.205  54.677  97.7900  0.00  0.00     0.000 O
ATOM     74   O  A00 X   4      53.763  54.337  95.4460  0.00  0.00     0.000 OA
ATOM     75   S  A00 X   4      54.741  54.883  96.3310  0.00  0.00     0.000 S
ENDBRANCH 62 70
ENDBRANCH 57 61
ENDBRANCH 41 57
ENDBRANCH 40 44
ENDBRANCH 20 40
ENDBRANCH 19 23
ENDBRANCH 1 19
TORSDOF 14
ENDMDL
MODEL 28
REMARK VINA RESULT:      -0.3    117.150    120.958
ROOT
ATOM      1  C1  A00 X   1      93.456  83.811  84.7620  0.00  0.00     0.000 C
ATOM      2  C2  A00 X   1      94.448  84.851  85.3470  0.00  0.00     0.000 C
ATOM      3  C3  A00 X   1      93.827  85.947  86.2750  0.00  0.00     0.000 C
ATOM      4  C4  A00 X   1      92.284  86.086  86.2050  0.00  0.00     0.000 C
ATOM      5  C5  A00 X   1      91.715  85.542  84.8950  0.00  0.00     0.000 C
ATOM      6  O5  A00 X   1      92.051  84.137  84.9040  0.00  0.00     0.000 O
ATOM      7   O  A00 X   1      94.365  87.215  85.9100  0.00  0.00     0.000 O
ATOM      9  HD  A00 X   1      93.520  87.330  86.0620  0.00  0.00     0.000 HD
ATOM      9   O  A00 X   1      91.651  85.442  87.3100  0.00  0.00     0.000 O
ATOM     11  HD  A00 X   1      90.806  85.557  87.4620  0.00  0.00     0.000 HD
ENDROOT
BRANCH 2 11
ATOM     11   O  A00 X   1      95.457  84.131  86.0820  0.00  0.00     0.000 O
ATOM     12   O  A00 X   1      97.117  85.258  87.4010  0.00  0.00     0.000 OA
ATOM     13   O  A00 X   1      97.086  85.587  84.9910  0.00  0.00     0.000 OA
ATOM     14   O  A00 X   1      97.692  83.479  85.9120  0.00  0.00     0.000 OA
ATOM     15   S  A00 X   1      96.924  84.681  86.0940  0.00  0.00     0.000 S
ENDBRANCH 2 11
BRANCH 5 16
ATOM     16   C  A00 X   1      92.179  86.276  83.6320  0.00  0.00     0.000 C
ATOM     17   O  A00 X   1      91.939  85.781  82.5510  0.00  0.00     0.000 OA
ATOM     18   O  A00 X   1      92.772  87.336  83.6750  0.00  0.00     0.000 OA
ENDBRANCH 5 16
BRANCH 1 19
ATOM     19  O4  A00 X   2      93.777  83.435  83.4000  0.00  0.00     0.000 O
BRANCH 19 23
ATOM     20  C1  A00 X   2      92.788  79.306  83.9820  0.00  0.00     0.000 C
ATOM     21  C2  A00 X   2      94.281  79.704  84.0770  0.00  0.00     0.000 C
ATOM     22  C3  A00 X   2      94.432  81.226  84.2800  0.00  0.00     0.000 C
ATOM     23  C4  A00 X   2      93.675  81.999  83.1780  0.00  0.00     0.000 C
ATOM     24  C5  A00 X   2      92.204  81.499  83.1720  0.00  0.00     0.000 C
ATOM     25  O5  A00 X   2      92.196  80.074  82.9000  0.00  0.00     0.000 O
ATOM     26   O  A00 X   2      95.828  81.534  84.4320  0.00  0.00     0.000 O
ATOM     28  HD  A00 X   2      96.054  81.092  83.7230  0.00  0.00     0.000 HD
BRANCH 21 30
ATOM     28   N  A00 X   2      94.624  78.407  83.4860  0.00  0.00     0.000 N
ATOM     30  HD  A00 X   2      95.352  78.725  83.8320  0.00  0.00     0.000 HD
ATOM     30   O  A00 X   2      96.687  77.736  84.3540  0.00  0.00     0.000 OA
ATOM     31   S  A00 X   2      96.132  78.123  83.1050  0.00  0.00     0.000 S
ATOM     32   O  A00 X   2      96.044  77.077  82.1330  0.00  0.00     0.000 OA
ATOM     33   O  A00 X   2      96.650  79.316  82.5060  0.00  0.00     0.000 OA
ENDBRANCH 21 30
BRANCH 24 34
ATOM     34   C  A00 X   2      91.177  82.276  82.3150  0.00  0.00     0.000 C
ATOM     35   O  A00 X   2      89.352  80.837  79.5130  0.00  0.00     0.000 OA
ATOM     36   O  A00 X   2      90.888  81.580  81.0870  0.00  0.00     0.000 O
ATOM     37   O  A00 X   2      89.340  79.937  81.7000  0.00  0.00     0.000 OA
ATOM     38   S  A00 X   2      89.392  81.128  80.9080  0.00  0.00     0.000 S
ATOM     39   O  A00 X   2      88.582  82.234  81.3200  0.00  0.00     0.000 OA
ENDBRANCH 24 34
BRANCH 20 40
ATOM     40  O4  A00 X   3      92.200  79.703  85.2290  0.00  0.00     0.000 O
BRANCH 40 44
ATOM     41  C1  A00 X   3      89.424  81.272  86.9490  0.00  0.00     0.000 C
ATOM     42  C2  A00 X   3      90.686  80.713  87.6420  0.00  0.00     0.000 C
ATOM     43  C3  A00 X   3      90.973  79.260  87.1830  0.00  0.00     0.000 C
ATOM     44  C4  A00 X   3      90.984  79.063  85.6720  0.00  0.00     0.000 C
ATOM     45  C5  A00 X   3      89.683  79.645  85.0500  0.00  0.00     0.000 C
ATOM     46  O5  A00 X   3      89.446  81.012  85.5180  0.00  0.00     0.000 O
ATOM     47   O  A00 X   3      92.069  78.609  87.8240  0.00  0.00     0.000 O
ATOM     49  HD  A00 X   3      92.205  78.299  87.0270  0.00  0.00     0.000 HD
BRANCH 42 49
ATOM     49   O  A00 X   3      91.778  81.597  87.3090  0.00  0.00     0.000 O
ATOM     50   O  A00 X   3      94.130  81.689  87.7490  0.00  0.00     0.000 OA
ATOM     51   O  A00 X   3      92.665  81.060  89.4950  0.00  0.00     0.000 OA
ATOM     52   O  A00 X   3      92.597  83.290  88.7150  0.00  0.00     0.000 OA
ATOM     53   S  A00 X   3      92.866  81.937  88.3690  0.00  0.00     0.000 S
ENDBRANCH 42 49
BRANCH 45 54
ATOM     54   C  A00 X   3      88.484  78.716  85.2710  0.00  0.00     0.000 C
ATOM     55   O  A00 X   3      88.567  77.766  86.0230  0.00  0.00     0.000 OA
ATOM     56   O  A00 X   3      87.426  78.913  84.6940  0.00  0.00     0.000 OA
ENDBRANCH 45 54
BRANCH 41 57
ATOM     57  O4  A00 X   4      88.215  80.831  87.6070  0.00  0.00     0.000 O
BRANCH 57 61
ATOM     58  C1  A00 X   4      84.345  82.659  88.1730  0.00  0.00     0.000 C
ATOM     59  C2  A00 X   4      84.828  82.378  86.7280  0.00  0.00     0.000 C
ATOM     60  C3  A00 X   4      86.031  81.416  86.6580  0.00  0.00     0.000 C
ATOM     61  C4  A00 X   4      87.143  81.815  87.6530  0.00  0.00     0.000 C
ATOM     62  C5  A00 X   4      86.488  81.829  89.0560  0.00  0.00     0.000 C
ATOM     63  O5  A00 X   4      85.450  82.842  89.0880  0.00  0.00     0.000 O
BRANCH 59 66
ATOM     64   N  A00 X   4      85.287  83.622  86.0840  0.00  0.00     0.000 N
ATOM     66  HD  A00 X   4      85.600  84.246  86.5970  0.00  0.00     0.000 HD
ATOM     66   O  A00 X   4      82.977  84.108  85.6050  0.00  0.00     0.000 OA
ATOM     67   S  A00 X   4      84.284  84.375  85.0910  0.00  0.00     0.000 S
ATOM     68   O  A00 X   4      84.741  85.727  85.2390  0.00  0.00     0.000 OA
ATOM     69   O  A00 X   4      84.653  83.763  83.8470  0.00  0.00     0.000 OA
ENDBRANCH 59 66
BRANCH 62 70
ATOM     70   C  A00 X   4      87.478  82.104  90.2130  0.00  0.00     0.000 C
ATOM     71   O  A00 X   4      89.226  85.171  91.0140  0.00  0.00     0.000 OA
ATOM     72   O  A00 X   4      90.019  82.964  90.8010  0.00  0.00     0.000 OA
ATOM     73   O  A00 X   4      87.733  83.515  90.2950  0.00  0.00     0.000 O
ATOM     74   O  A00 X   4      89.476  84.246  88.8010  0.00  0.00     0.000 OA
ATOM     75   S  A00 X   4      89.220  83.999  90.1840  0.00  0.00     0.000 S
ENDBRANCH 62 70
ENDBRANCH 57 61
ENDBRANCH 41 57
ENDBRANCH 40 44
ENDBRANCH 20 40
ENDBRANCH 19 23
ENDBRANCH 1 19
TORSDOF 14
ENDMDL
MODEL 29
REMARK VINA RESULT:      -0.3     68.508     73.312
ROOT
ATOM      1  C1  A00 X   1      10.569  65.298  82.9690  0.00  0.00     0.000 C
ATOM      2  C2  A00 X   1       9.659  65.893  84.0760  0.00  0.00     0.000 C
ATOM      3  C3  A00 X   1       8.137  65.999  83.7300  0.00  0.00     0.000 C
ATOM      4  C4  A00 X   1       7.780  65.850  82.2290  0.00  0.00     0.000 C
ATOM      5  C5  A00 X   1       8.967  66.168  81.3190  0.00  0.00     0.000 C
ATOM      6  O5  A00 X   1       9.964  65.179  81.6580  0.00  0.00     0.000 O
ATOM      7   O  A00 X   1       7.665  67.283  84.1330  0.00  0.00     0.000 O
ATOM      9  HD  A00 X   1       7.307  67.109  83.3630  0.00  0.00     0.000 HD
ATOM      9   O  A00 X   1       7.286  64.543  81.9370  0.00  0.00     0.000 O
ATOM     11  HD  A00 X   1       6.928  64.369  81.1680  0.00  0.00     0.000 HD
ENDROOT
BRANCH 2 11
ATOM     11   O  A00 X   1       9.816  65.083  85.2570  0.00  0.00     0.000 O
ATOM     12   O  A00 X   1       8.436  65.384  87.1980  0.00  0.00     0.000 OA
ATOM     13   O  A00 X   1       9.924  67.179  86.5060  0.00  0.00     0.000 OA
ATOM     14   O  A00 X   1      10.808  65.147  87.3700  0.00  0.00     0.000 OA
ATOM     15   S  A00 X   1       9.718  65.766  86.6640  0.00  0.00     0.000 S
ENDBRANCH 2 11
BRANCH 5 16
ATOM     16   C  A00 X   1       9.480  67.610  81.4040  0.00  0.00     0.000 C
ATOM     17   O  A00 X   1      10.539  67.882  80.8770  0.00  0.00     0.000 OA
ATOM     18   O  A00 X   1       8.862  68.489  81.9720  0.00  0.00     0.000 OA
ENDBRANCH 5 16
BRANCH 1 19
ATOM     19  O4  A00 X   2      11.863  65.947  82.8970  0.00  0.00     0.000 O
BRANCH 19 23
ATOM     20  C1  A00 X   2      13.994  62.302  82.1640  0.00  0.00     0.000 C
ATOM     21  C2  A00 X   2      13.960  62.829  83.6180  0.00  0.00     0.000 C
ATOM     22  C3  A00 X   2      12.832  63.866  83.8010  0.00  0.00     0.000 C
ATOM     23  C4  A00 X   2      12.957  64.996  82.7550  0.00  0.00     0.000 C
ATOM     24  C5  A00 X   2      12.999  64.339  81.3490  0.00  0.00     0.000 C
ATOM     25  O5  A00 X   2      14.142  63.447  81.2830  0.00  0.00     0.000 O
ATOM     26   O  A00 X   2      12.798  64.273  85.1800  0.00  0.00     0.000 O
ATOM     28  HD  A00 X   2      13.648  64.438  85.2040  0.00  0.00     0.000 HD
BRANCH 21 30
ATOM     28   N  A00 X   2      15.320  62.312  83.8010  0.00  0.00     0.000 N
ATOM     30  HD  A00 X   2      15.002  62.467  84.5920  0.00  0.00     0.000 HD
ATOM     30   O  A00 X   2      15.555  61.656  86.0310  0.00  0.00     0.000 OA
ATOM     31   S  A00 X   2      16.080  62.636  85.1480  0.00  0.00     0.000 S
ATOM     32   O  A00 X   2      17.459  62.467  84.8090  0.00  0.00     0.000 OA
ATOM     33   O  A00 X   2      15.811  64.007  85.4670  0.00  0.00     0.000 OA
ENDBRANCH 21 30
BRANCH 24 34
ATOM     34   C  A00 X   2      12.891  65.264  80.1130  0.00  0.00     0.000 C
ATOM     35   O  A00 X   2      15.529  65.676  77.6370  0.00  0.00     0.000 OA
ATOM     36   O  A00 X   2      14.185  65.498  79.5210  0.00  0.00     0.000 O
ATOM     37   O  A00 X   2      14.589  63.589  78.2310  0.00  0.00     0.000 OA
ATOM     38   S  A00 X   2      14.348  64.987  78.0430  0.00  0.00     0.000 S
ATOM     39   O  A00 X   2      13.155  65.368  77.3480  0.00  0.00     0.000 OA
ENDBRANCH 24 34
BRANCH 20 40
ATOM     40  O4  A00 X   3      12.714  61.690  81.9440  0.00  0.00     0.000 O
BRANCH 40 44
ATOM     41  C1  A00 X   3       9.875  61.243  79.7380  0.00  0.00     0.000 C
ATOM     42  C2  A00 X   3      10.002  60.623  81.1470  0.00  0.00     0.000 C
ATOM     43  C3  A00 X   3      11.354  59.882  81.3080  0.00  0.00     0.000 C
ATOM     44  C4  A00 X   3      12.575  60.699  80.9030  0.00  0.00     0.000 C
ATOM     45  C5  A00 X   3      12.375  61.284  79.4760  0.00  0.00     0.000 C
ATOM     46  O5  A00 X   3      11.083  61.964  79.3670  0.00  0.00     0.000 O
ATOM     47   O  A00 X   3      11.545  59.195  82.5430  0.00  0.00     0.000 O
ATOM     49  HD  A00 X   3      12.353  59.496  82.4560  0.00  0.00     0.000 HD
BRANCH 42 49
ATOM     49   O  A00 X   3       9.874  61.703  82.0980  0.00  0.00     0.000 O
ATOM     50   O  A00 X   3       9.978  61.937  84.4780  0.00  0.00     0.000 OA
ATOM     51   O  A00 X   3       8.845  60.074  83.5620  0.00  0.00     0.000 OA
ATOM     52   O  A00 X   3       7.905  62.223  83.2660  0.00  0.00     0.000 OA
ATOM     53   S  A00 X   3       9.110  61.486  83.4360  0.00  0.00     0.000 S
ENDBRANCH 42 49
BRANCH 45 54
ATOM     54   C  A00 X   3      12.592  60.221  78.3920  0.00  0.00     0.000 C
ATOM     55   O  A00 X   3      12.772  59.059  78.6910  0.00  0.00     0.000 OA
ATOM     56   O  A00 X   3      12.588  60.526  77.2090  0.00  0.00     0.000 OA
ENDBRANCH 45 54
BRANCH 41 57
ATOM     57  O4  A00 X   4       9.450  60.266  78.7610  0.00  0.00     0.000 O
BRANCH 57 61
ATOM     58  C1  A00 X   4       6.981  60.525  75.2290  0.00  0.00     0.000 C
ATOM     59  C2  A00 X   4       8.293  61.347  75.2780  0.00  0.00     0.000 C
ATOM     60  C3  A00 X   4       9.252  60.907  76.4030  0.00  0.00     0.000 C
ATOM     61  C4  A00 X   4       8.522  60.762  77.7550  0.00  0.00     0.000 C
ATOM     62  C5  A00 X   4       7.382  59.738  77.5270  0.00  0.00     0.000 C
ATOM     63  O5  A00 X   4       6.451  60.270  76.5500  0.00  0.00     0.000 O
BRANCH 59 66
ATOM     64   N  A00 X   4       8.000  62.766  75.5470  0.00  0.00     0.000 N
ATOM     66  HD  A00 X   4       7.283  62.948  75.9970  0.00  0.00     0.000 HD
ATOM     66   O  A00 X   4       7.516  63.007  73.2000  0.00  0.00     0.000 OA
ATOM     67   S  A00 X   4       7.974  63.781  74.3110  0.00  0.00     0.000 S
ATOM     68   O  A00 X   4       7.051  64.763  74.8020  0.00  0.00     0.000 OA
ATOM     69   O  A00 X   4       9.344  64.211  74.3080  0.00  0.00     0.000 OA
ENDBRANCH 59 66
BRANCH 62 70
ATOM     70   C  A00 X   4       6.595  59.373  78.8080  0.00  0.00     0.000 C
ATOM     71   O  A00 X   4       4.315  61.430  80.7260  0.00  0.00     0.000 OA
ATOM     72   O  A00 X   4       6.136  60.106  81.4150  0.00  0.00     0.000 OA
ATOM     73   O  A00 X   4       5.630  60.401  79.0820  0.00  0.00     0.000 O
ATOM     74   O  A00 X   4       6.548  62.248  80.3280  0.00  0.00     0.000 OA
ATOM     75   S  A00 X   4       5.693  61.114  80.4780  0.00  0.00     0.000 S
ENDBRANCH 62 70
ENDBRANCH 57 61
ENDBRANCH 41 57
ENDBRANCH 40 44
ENDBRANCH 20 40
ENDBRANCH 19 23
ENDBRANCH 1 19
TORSDOF 14
ENDMDL
MODEL 30
REMARK VINA RESULT:      -0.3    106.364    110.152
ROOT
ATOM      1  C1  A00 X   1      50.489 110.336  35.9810  0.00  0.00     0.000 C
ATOM      2  C2  A00 X   1      52.003 110.203  36.2920  0.00  0.00     0.000 C
ATOM      3  C3  A00 X   1      52.456 110.662  37.7170  0.00  0.00     0.000 C
ATOM      4  C4  A00 X   1      51.429 111.521  38.5000  0.00  0.00     0.000 C
ATOM      5  C5  A00 X   1      50.427 112.209  37.5740  0.00  0.00     0.000 C
ATOM      6  O5  A00 X   1      49.723 111.126  36.9250  0.00  0.00     0.000 O
ATOM      7   O  A00 X   1      53.634 111.454  37.5900  0.00  0.00     0.000 O
ATOM      9  HD  A00 X   1      53.131 111.838  38.1820  0.00  0.00     0.000 HD
ATOM      9   O  A00 X   1      50.732 110.743  39.4730  0.00  0.00     0.000 O
ATOM     11  HD  A00 X   1      50.229 111.126  40.0640  0.00  0.00     0.000 HD
ENDROOT
BRANCH 2 11
ATOM     11   O  A00 X   1      52.369 108.822  36.1050  0.00  0.00     0.000 O
ATOM     12   O  A00 X   1      54.546 107.994  36.6930  0.00  0.00     0.000 OA
ATOM     13   O  A00 X   1      54.340 109.653  34.9270  0.00  0.00     0.000 OA
ATOM     14   O  A00 X   1      53.515 107.445  34.6070  0.00  0.00     0.000 OA
ATOM     15   S  A00 X   1      53.800 108.483  35.5610  0.00  0.00     0.000 S
ENDBRANCH 2 11
BRANCH 5 16
ATOM     16   C  A00 X   1      51.037 113.218  36.5950  0.00  0.00     0.000 C
ATOM     17   O  A00 X   1      50.344 113.644  35.6930  0.00  0.00     0.000 OA
ATOM     18   O  A00 X   1      52.182 113.610  36.6920  0.00  0.00     0.000 OA
ENDBRANCH 5 16
BRANCH 1 19
ATOM     19  O4  A00 X   2      50.229 110.746  34.6160  0.00  0.00     0.000 O
BRANCH 19 23
ATOM     20  C1  A00 X   2      46.873 108.124  34.1420  0.00  0.00     0.000 C
ATOM     21  C2  A00 X   2      48.238 107.645  33.5890  0.00  0.00     0.000 C
ATOM     22  C3  A00 X   2      49.395 108.462  34.2010  0.00  0.00     0.000 C
ATOM     23  C4  A00 X   2      49.161 109.975  33.9950  0.00  0.00     0.000 C
ATOM     24  C5  A00 X   2      47.761 110.322  34.5710  0.00  0.00     0.000 C
ATOM     25  O5  A00 X   2      46.760 109.545  33.8650  0.00  0.00     0.000 O
ATOM     26   O  A00 X   2      50.640 107.936  33.7110  0.00  0.00     0.000 O
ATOM     28  HD  A00 X   2      50.383 107.961  32.8840  0.00  0.00     0.000 HD
BRANCH 21 30
ATOM     28   N  A00 X   2      47.519 106.981  32.4970  0.00  0.00     0.000 N
ATOM     30  HD  A00 X   2      48.320 106.653  32.5070  0.00  0.00     0.000 HD
ATOM     30   O  A00 X   2      48.725 105.077  31.8850  0.00  0.00     0.000 OA
ATOM     31   S  A00 X   2      48.355 106.328  31.3260  0.00  0.00     0.000 S
ATOM     32   O  A00 X   2      47.423 106.254  30.2440  0.00  0.00     0.000 OA
ATOM     33   O  A00 X   2      49.417 107.236  31.0060  0.00  0.00     0.000 OA
ENDBRANCH 21 30
BRANCH 24 34
ATOM     34   C  A00 X   2      47.379 111.816  34.6970  0.00  0.00     0.000 C
ATOM     35   O  A00 X   2      44.604 113.368  32.9220  0.00  0.00     0.000 OA
ATOM     36   O  A00 X   2      46.491 112.219  33.6350  0.00  0.00     0.000 O
ATOM     37   O  A00 X   2      44.383 111.478  34.3270  0.00  0.00     0.000 OA
ATOM     38   S  A00 X   2      45.071 112.712  34.0990  0.00  0.00     0.000 S
ATOM     39   O  A00 X   2      45.288 113.568  35.2260  0.00  0.00     0.000 OA
ENDBRANCH 24 34
BRANCH 20 40
ATOM     40  O4  A00 X   3      46.935 107.915  35.5610  0.00  0.00     0.000 O
BRANCH 40 44
ATOM     41  C1  A00 X   3      46.282 109.191  38.8880  0.00  0.00     0.000 C
ATOM     42  C2  A00 X   3      46.943 107.830  38.5810  0.00  0.00     0.000 C
ATOM     43  C3  A00 X   3      46.099 107.019  37.5650  0.00  0.00     0.000 C
ATOM     44  C4  A00 X   3      45.707 107.788  36.3100  0.00  0.00     0.000 C
ATOM     45  C5  A00 X   3      45.045 109.140  36.7000  0.00  0.00     0.000 C
ATOM     46  O5  A00 X   3      45.870 109.866  37.6670  0.00  0.00     0.000 O
ATOM     47   O  A00 X   3      46.571 105.705  37.2730  0.00  0.00     0.000 O
ATOM     49  HD  A00 X   3      46.320 105.915  36.4710  0.00  0.00     0.000 HD
BRANCH 42 49
ATOM     49   O  A00 X   3      48.264 108.108  38.0680  0.00  0.00     0.000 O
ATOM     50   O  A00 X   3      50.105 106.824  37.2350  0.00  0.00     0.000 OA
ATOM     51   O  A00 X   3      48.937 106.044  39.1370  0.00  0.00     0.000 OA
ATOM     52   O  A00 X   3      50.236 108.008  39.3400  0.00  0.00     0.000 OA
ATOM     53   S  A00 X   3      49.467 107.200  38.4570  0.00  0.00     0.000 S
ENDBRANCH 42 49
BRANCH 45 54
ATOM     54   C  A00 X   3      43.597 108.949  37.1650  0.00  0.00     0.000 C
ATOM     55   O  A00 X   3      42.863 109.905  37.3110  0.00  0.00     0.000 OA
ATOM     56   O  A00 X   3      43.157 107.834  37.3980  0.00  0.00     0.000 OA
ENDBRANCH 45 54
BRANCH 41 57
ATOM     57  O4  A00 X   4      45.230 109.064  39.8710  0.00  0.00     0.000 O
BRANCH 57 61
ATOM     58  C1  A00 X   4      43.794 111.679  42.9920  0.00  0.00     0.000 C
ATOM     59  C2  A00 X   4      43.702 112.159  41.5220  0.00  0.00     0.000 C
ATOM     60  C3  A00 X   4      43.900 111.028  40.4930  0.00  0.00     0.000 C
ATOM     61  C4  A00 X   4      45.136 110.164  40.8210  0.00  0.00     0.000 C
ATOM     62  C5  A00 X   4      44.918 109.617  42.2540  0.00  0.00     0.000 C
ATOM     63  O5  A00 X   4      44.866 110.728  43.1860  0.00  0.00     0.000 O
BRANCH 59 66
ATOM     64   N  A00 X   4      44.759 113.142  41.2240  0.00  0.00     0.000 N
ATOM     66  HD  A00 X   4      45.496 113.086  41.6760  0.00  0.00     0.000 HD
ATOM     66   O  A00 X   4      43.356 114.812  42.2440  0.00  0.00     0.000 OA
ATOM     67   S  A00 X   4      44.379 114.695  41.2530  0.00  0.00     0.000 S
ATOM     68   O  A00 X   4      45.647 115.265  41.6060  0.00  0.00     0.000 OA
ATOM     69   O  A00 X   4      44.008 114.891  39.8800  0.00  0.00     0.000 OA
ENDBRANCH 59 66
BRANCH 62 70
ATOM     70   C  A00 X   4      46.011 108.629  42.7270  0.00  0.00     0.000 C
ATOM     71   O  A00 X   4      49.470 109.309  43.5520  0.00  0.00     0.000 OA
ATOM     72   O  A00 X   4      48.518 107.660  42.1660  0.00  0.00     0.000 OA
ATOM     73   O  A00 X   4      47.158 109.369  43.1730  0.00  0.00     0.000 O
ATOM     74   O  A00 X   4      48.653 109.962  41.3790  0.00  0.00     0.000 OA
ATOM     75   S  A00 X   4      48.536 109.070  42.4870  0.00  0.00     0.000 S
ENDBRANCH 62 70
ENDBRANCH 57 61
ENDBRANCH 41 57
ENDBRANCH 40 44
ENDBRANCH 20 40
ENDBRANCH 19 23
ENDBRANCH 1 19
TORSDOF 14
ENDMDL
MODEL 31
REMARK VINA RESULT:      -0.3     99.208    103.078
ROOT
ATOM      1  C1  A00 X   1      62.444  86.599  71.5180  0.00  0.00     0.000 C
ATOM      2  C2  A00 X   1      62.520  85.439  70.4900  0.00  0.00     0.000 C
ATOM      3  C3  A00 X   1      63.064  84.076  71.0310  0.00  0.00     0.000 C
ATOM      4  C4  A00 X   1      63.795  84.142  72.3960  0.00  0.00     0.000 C
ATOM      5  C5  A00 X   1      64.324  85.543  72.7000  0.00  0.00     0.000 C
ATOM      6  O5  A00 X   1      63.144  86.375  72.7670  0.00  0.00     0.000 O
ATOM      7   O  A00 X   1      64.004  83.554  70.0940  0.00  0.00     0.000 O
ATOM      9  HD  A00 X   1      64.329  83.417  70.8840  0.00  0.00     0.000 HD
ATOM      9   O  A00 X   1      62.952  83.704  73.4610  0.00  0.00     0.000 O
ATOM     11  HD  A00 X   1      63.277  83.566  74.2520  0.00  0.00     0.000 HD
ENDROOT
BRANCH 2 11
ATOM     11   O  A00 X   1      61.196  85.237  69.9580  0.00  0.00     0.000 O
ATOM     12   O  A00 X   1      60.676  83.391  68.5120  0.00  0.00     0.000 OA
ATOM     13   O  A00 X   1      62.259  85.079  67.7640  0.00  0.00     0.000 OA
ATOM     14   O  A00 X   1      59.956  85.616  68.0160  0.00  0.00     0.000 OA
ATOM     15   S  A00 X   1      61.040  84.785  68.4650  0.00  0.00     0.000 S
ENDBRANCH 2 11
BRANCH 5 16
ATOM     16   C  A00 X   1      65.385  86.061  71.7230  0.00  0.00     0.000 C
ATOM     17   O  A00 X   1      65.684  87.237  71.7600  0.00  0.00     0.000 OA
ATOM     18   O  A00 X   1      65.940  85.338  70.9210  0.00  0.00     0.000 OA
ENDBRANCH 5 16
BRANCH 1 19
ATOM     19  O4  A00 X   2      62.787  87.883  70.9430  0.00  0.00     0.000 O
BRANCH 19 23
ATOM     20  C1  A00 X   2      59.748  90.004  73.0950  0.00  0.00     0.000 C
ATOM     21  C2  A00 X   2      59.437  89.596  71.6350  0.00  0.00     0.000 C
ATOM     22  C3  A00 X   2      60.407  88.497  71.1520  0.00  0.00     0.000 C
ATOM     23  C4  A00 X   2      61.874  88.941  71.3520  0.00  0.00     0.000 C
ATOM     24  C5  A00 X   2      62.051  89.338  72.8430  0.00  0.00     0.000 C
ATOM     25  O5  A00 X   2      61.137  90.424  73.1480  0.00  0.00     0.000 O
ATOM     26   O  A00 X   2      60.035  88.106  69.8200  0.00  0.00     0.000 O
ATOM     28  HD  A00 X   2      60.010  88.923  69.5330  0.00  0.00     0.000 HD
BRANCH 21 30
ATOM     28   N  A00 X   2      58.668  90.836  71.4900  0.00  0.00     0.000 N
ATOM     30  HD  A00 X   2      58.442  90.323  70.8300  0.00  0.00     0.000 HD
ATOM     30   O  A00 X   2      56.918  90.436  69.9950  0.00  0.00     0.000 OA
ATOM     31   S  A00 X   2      58.103  91.216  70.0640  0.00  0.00     0.000 S
ATOM     32   O  A00 X   2      57.892  92.628  70.1490  0.00  0.00     0.000 OA
ATOM     33   O  A00 X   2      59.130  90.923  69.1090  0.00  0.00     0.000 OA
ENDBRANCH 21 30
BRANCH 24 34
ATOM     34   C  A00 X   2      63.485  89.602  73.3580  0.00  0.00     0.000 C
ATOM     35   O  A00 X   2      64.651  92.823  74.5910  0.00  0.00     0.000 OA
ATOM     36   O  A00 X   2      63.759  91.015  73.4410  0.00  0.00     0.000 O
ATOM     37   O  A00 X   2      62.767  91.683  75.4510  0.00  0.00     0.000 OA
ATOM     38   S  A00 X   2      64.074  91.553  74.8850  0.00  0.00     0.000 S
ATOM     39   O  A00 X   2      64.966  90.606  75.4850  0.00  0.00     0.000 OA
ENDBRANCH 24 34
BRANCH 20 40
ATOM     40  O4  A00 X   3      59.578  88.811  73.8750  0.00  0.00     0.000 O
BRANCH 40 44
ATOM     41  C1  A00 X   3      60.837  86.653  76.4980  0.00  0.00     0.000 C
ATOM     42  C2  A00 X   3      59.565  86.378  75.6680  0.00  0.00     0.000 C
ATOM     43  C3  A00 X   3      58.629  87.615  75.6600  0.00  0.00     0.000 C
ATOM     44  C4  A00 X   3      59.313  88.924  75.2900  0.00  0.00     0.000 C
ATOM     45  C5  A00 X   3      60.578  89.132  76.1700  0.00  0.00     0.000 C
ATOM     46  O5  A00 X   3      61.426  87.938  76.1550  0.00  0.00     0.000 O
ATOM     47   O  A00 X   3      57.380  87.446  74.9940  0.00  0.00     0.000 O
ATOM     49  HD  A00 X   3      57.538  88.256  74.7320  0.00  0.00     0.000 HD
BRANCH 42 49
ATOM     49   O  A00 X   3      59.997  86.035  74.3330  0.00  0.00     0.000 O
ATOM     50   O  A00 X   3      58.939  85.486  72.2570  0.00  0.00     0.000 OA
ATOM     51   O  A00 X   3      58.066  84.578  74.2580  0.00  0.00     0.000 OA
ATOM     52   O  A00 X   3      60.186  83.842  73.5170  0.00  0.00     0.000 OA
ATOM     53   S  A00 X   3      59.262  84.923  73.5300  0.00  0.00     0.000 S
ENDBRANCH 42 49
BRANCH 45 54
ATOM     54   C  A00 X   3      60.215  89.597  77.5850  0.00  0.00     0.000 C
ATOM     55   O  A00 X   3      59.058  89.615  77.9530  0.00  0.00     0.000 OA
ATOM     56   O  A00 X   3      61.082  89.959  78.3660  0.00  0.00     0.000 OA
ENDBRANCH 45 54
BRANCH 41 57
ATOM     57  O4  A00 X   4      60.600  86.474  77.9130  0.00  0.00     0.000 O
BRANCH 57 61
ATOM     58  C1  A00 X   4      63.082  85.067  81.1530  0.00  0.00     0.000 C
ATOM     59  C2  A00 X   4      63.517  86.340  80.3840  0.00  0.00     0.000 C
ATOM     60  C3  A00 X   4      62.398  86.944  79.5120  0.00  0.00     0.000 C
ATOM     61  C4  A00 X   4      61.699  85.869  78.6520  0.00  0.00     0.000 C
ATOM     62  C5  A00 X   4      61.158  84.805  79.6390  0.00  0.00     0.000 C
ATOM     63  O5  A00 X   4      62.273  84.191  80.3360  0.00  0.00     0.000 O
BRANCH 59 66
ATOM     64   N  A00 X   4      64.619  86.070  79.4440  0.00  0.00     0.000 N
ATOM     66  HD  A00 X   4      64.671  85.275  79.1050  0.00  0.00     0.000 HD
ATOM     66   O  A00 X   4      66.122  86.206  81.3210  0.00  0.00     0.000 OA
ATOM     67   S  A00 X   4      66.111  86.414  79.9070  0.00  0.00     0.000 S
ATOM     68   O  A00 X   4      66.848  85.454  79.1370  0.00  0.00     0.000 OA
ATOM     69   O  A00 X   4      66.221  87.762  79.4270  0.00  0.00     0.000 OA
ENDBRANCH 59 66
BRANCH 62 70
ATOM     70   C  A00 X   4      60.321  83.689  78.9700  0.00  0.00     0.000 C
ATOM     71   O  A00 X   4      61.434  81.042  76.7640  0.00  0.00     0.000 OA
ATOM     72   O  A00 X   4      59.650  82.565  76.5560  0.00  0.00     0.000 OA
ATOM     73   O  A00 X   4      61.205  82.719  78.3840  0.00  0.00     0.000 O
ATOM     74   O  A00 X   4      61.933  83.325  76.1680  0.00  0.00     0.000 OA
ATOM     75   S  A00 X   4      61.059  82.426  76.8510  0.00  0.00     0.000 S
ENDBRANCH 62 70
ENDBRANCH 57 61
ENDBRANCH 41 57
ENDBRANCH 40 44
ENDBRANCH 20 40
ENDBRANCH 19 23
ENDBRANCH 1 19
TORSDOF 14
ENDMDL
MODEL 32
REMARK VINA RESULT:      -0.3     75.017     79.860
ROOT
ATOM      1  C1  A00 X   1       9.973  64.339  90.6350  0.00  0.00     0.000 C
ATOM      2  C2  A00 X   1       9.271  64.857  91.9180  0.00  0.00     0.000 C
ATOM      3  C3  A00 X   1       9.943  66.081  92.6230  0.00  0.00     0.000 C
ATOM      4  C4  A00 X   1      11.396  66.391  92.1820  0.00  0.00     0.000 C
ATOM      5  C5  A00 X   1      12.088  65.171  91.5740  0.00  0.00     0.000 C
ATOM      6  O5  A00 X   1      11.307  64.854  90.4000  0.00  0.00     0.000 O
ATOM      7   O  A00 X   1       9.989  65.833  94.0260  0.00  0.00     0.000 O
ATOM      9  HD  A00 X   1      10.746  66.192  93.8050  0.00  0.00     0.000 HD
ATOM      9   O  A00 X   1      11.441  67.480  91.2600  0.00  0.00     0.000 O
ATOM     11  HD  A00 X   1      12.198  67.839  91.0390  0.00  0.00     0.000 HD
ENDROOT
BRANCH 2 11
ATOM     11   O  A00 X   1       7.916  65.202  91.5680  0.00  0.00     0.000 O
ATOM     12   O  A00 X   1       6.444  66.298  93.1170  0.00  0.00     0.000 OA
ATOM     13   O  A00 X   1       7.248  64.058  93.6200  0.00  0.00     0.000 OA
ATOM     14   O  A00 X   1       5.732  64.418  91.8230  0.00  0.00     0.000 OA
ATOM     15   S  A00 X   1       6.781  64.985  92.6270  0.00  0.00     0.000 S
ENDBRANCH 2 11
BRANCH 5 16
ATOM     16   C  A00 X   1      12.269  63.986  92.5290  0.00  0.00     0.000 C
ATOM     17   O  A00 X   1      12.608  62.916  92.0690  0.00  0.00     0.000 OA
ATOM     18   O  A00 X   1      12.091  64.082  93.7270  0.00  0.00     0.000 OA
ENDBRANCH 5 16
BRANCH 1 19
ATOM     19  O4  A00 X   2       9.936  62.895  90.5190  0.00  0.00     0.000 O
BRANCH 19 23
ATOM     20  C1  A00 X   2       9.217  62.951  86.2940  0.00  0.00     0.000 C
ATOM     21  C2  A00 X   2       7.995  62.757  87.2240  0.00  0.00     0.000 C
ATOM     22  C3  A00 X   2       8.330  63.186  88.6680  0.00  0.00     0.000 C
ATOM     23  C4  A00 X   2       9.592  62.452  89.1750  0.00  0.00     0.000 C
ATOM     24  C5  A00 X   2      10.733  62.707  88.1520  0.00  0.00     0.000 C
ATOM     25  O5  A00 X   2      10.323  62.195  86.8570  0.00  0.00     0.000 O
ATOM     26   O  A00 X   2       7.148  63.053  89.4750  0.00  0.00     0.000 O
ATOM     28  HD  A00 X   2       6.996  62.243  89.2090  0.00  0.00     0.000 HD
BRANCH 21 30
ATOM     28   N  A00 X   2       7.408  61.877  86.2090  0.00  0.00     0.000 N
ATOM     30  HD  A00 X   2       6.769  62.093  86.7530  0.00  0.00     0.000 HD
ATOM     30   O  A00 X   2       5.084  62.097  86.3130  0.00  0.00     0.000 OA
ATOM     31   S  A00 X   2       6.072  61.106  86.5550  0.00  0.00     0.000 S
ATOM     32   O  A00 X   2       6.066  60.009  85.6370  0.00  0.00     0.000 OA
ATOM     33   O  A00 X   2       6.195  60.628  87.9000  0.00  0.00     0.000 OA
ENDBRANCH 21 30
BRANCH 24 34
ATOM     34   C  A00 X   2      12.166  62.273  88.5390  0.00  0.00     0.000 C
ATOM     35   O  A00 X   2      13.096  58.865  89.4220  0.00  0.00     0.000 OA
ATOM     36   O  A00 X   2      12.166  60.977  89.1710  0.00  0.00     0.000 O
ATOM     37   O  A00 X   2      12.039  59.463  87.3930  0.00  0.00     0.000 OA
ATOM     38   S  A00 X   2      12.967  59.859  88.4080  0.00  0.00     0.000 S
ATOM     39   O  A00 X   2      14.197  60.459  87.9850  0.00  0.00     0.000 OA
ENDBRANCH 24 34
BRANCH 20 40
ATOM     40  O4  A00 X   3       9.521  64.352  86.3400  0.00  0.00     0.000 O
BRANCH 40 44
ATOM     41  C1  A00 X   3      12.096  66.882  86.6480  0.00  0.00     0.000 C
ATOM     42  C2  A00 X   3      10.583  67.174  86.5430  0.00  0.00     0.000 C
ATOM     43  C3  A00 X   3       9.957  66.431  85.3350  0.00  0.00     0.000 C
ATOM     44  C4  A00 X   3      10.284  64.944  85.2670  0.00  0.00     0.000 C
ATOM     45  C5  A00 X   3      11.821  64.733  85.3730  0.00  0.00     0.000 C
ATOM     46  O5  A00 X   3      12.371  65.459  86.5200  0.00  0.00     0.000 O
ATOM     47   O  A00 X   3       8.577  66.696  85.0880  0.00  0.00     0.000 O
ATOM     49  HD  A00 X   3       8.563  65.849  84.9080  0.00  0.00     0.000 HD
BRANCH 42 49
ATOM     49   O  A00 X   3       9.984  66.755  87.7890  0.00  0.00     0.000 O
ATOM     50   O  A00 X   3       7.773  66.655  88.7010  0.00  0.00     0.000 OA
ATOM     51   O  A00 X   3       8.405  68.557  87.4470  0.00  0.00     0.000 OA
ATOM     52   O  A00 X   3       9.424  68.204  89.5500  0.00  0.00     0.000 OA
ATOM     53   S  A00 X   3       8.826  67.581  88.4200  0.00  0.00     0.000 S
ENDBRANCH 42 49
BRANCH 45 54
ATOM     54   C  A00 X   3      12.532  65.060  84.0550  0.00  0.00     0.000 C
ATOM     55   O  A00 X   3      13.700  64.771  83.8930  0.00  0.00     0.000 OA
ATOM     56   O  A00 X   3      11.937  65.617  83.1450  0.00  0.00     0.000 OA
ENDBRANCH 45 54
BRANCH 41 57
ATOM     57  O4  A00 X   4      12.864  67.711  85.7470  0.00  0.00     0.000 O
BRANCH 57 61
ATOM     58  C1  A00 X   4      16.796  69.474  86.0080  0.00  0.00     0.000 C
ATOM     59  C2  A00 X   4      16.671  67.930  86.0560  0.00  0.00     0.000 C
ATOM     60  C3  A00 X   4      15.292  67.411  85.5990  0.00  0.00     0.000 C
ATOM     61  C4  A00 X   4      14.137  68.182  86.2730  0.00  0.00     0.000 C
ATOM     62  C5  A00 X   4      14.344  69.675  85.9200  0.00  0.00     0.000 C
ATOM     63  O5  A00 X   4      15.600  70.130  86.4870  0.00  0.00     0.000 O
BRANCH 59 66
ATOM     64   N  A00 X   4      16.832  67.464  87.4450  0.00  0.00     0.000 N
ATOM     66  HD  A00 X   4      16.612  68.012  88.0790  0.00  0.00     0.000 HD
ATOM     66   O  A00 X   4      19.213  67.599  87.1080  0.00  0.00     0.000 OA
ATOM     67   S  A00 X   4      18.254  66.880  87.8880  0.00  0.00     0.000 S
ATOM     68   O  A00 X   4      18.238  67.193  89.2870  0.00  0.00     0.000 OA
ATOM     69   O  A00 X   4      18.059  65.489  87.5940  0.00  0.00     0.000 OA
ENDBRANCH 59 66
BRANCH 62 70
ATOM     70   C  A00 X   4      13.214  70.606  86.4190  0.00  0.00     0.000 C
ATOM     71   O  A00 X   4      12.384  71.533  89.8200  0.00  0.00     0.000 OA
ATOM     72   O  A00 X   4      11.022  70.746  88.0680  0.00  0.00     0.000 OA
ATOM     73   O  A00 X   4      13.410  70.884  87.8150  0.00  0.00     0.000 O
ATOM     74   O  A00 X   4      12.476  69.191  89.2530  0.00  0.00     0.000 OA
ATOM     75   S  A00 X   4      12.246  70.526  88.8050  0.00  0.00     0.000 S
ENDBRANCH 62 70
ENDBRANCH 57 61
ENDBRANCH 41 57
ENDBRANCH 40 44
ENDBRANCH 20 40
ENDBRANCH 19 23
ENDBRANCH 1 19
TORSDOF 14
ENDMDL
MODEL 33
REMARK VINA RESULT:      -0.3     98.575    102.890
ROOT
ATOM      1  C1  A00 X   1      53.737  98.337  24.4530  0.00  0.00     0.000 C
ATOM      2  C2  A00 X   1      54.845  98.390  25.5390  0.00  0.00     0.000 C
ATOM      3  C3  A00 X   1      55.440  99.804  25.8450  0.00  0.00     0.000 C
ATOM      4  C4  A00 X   1      55.129 100.901  24.7950  0.00  0.00     0.000 C
ATOM      5  C5  A00 X   1      54.785 100.311  23.4280  0.00  0.00     0.000 C
ATOM      6  O5  A00 X   1      53.586  99.536  23.6540  0.00  0.00     0.000 O
ATOM      7   O  A00 X   1      56.860  99.698  25.9120  0.00  0.00     0.000 O
ATOM      9  HD  A00 X   1      56.678 100.427  25.4830  0.00  0.00     0.000 HD
ATOM      9   O  A00 X   1      54.073 101.757  25.2310  0.00  0.00     0.000 O
ATOM     11  HD  A00 X   1      53.891 102.486  24.8020  0.00  0.00     0.000 HD
ENDROOT
BRANCH 2 11
ATOM     11   O  A00 X   1      54.296  97.839  26.7520  0.00  0.00     0.000 O
ATOM     12   O  A00 X   1      55.485  97.921  28.8370  0.00  0.00     0.000 OA
ATOM     13   O  A00 X   1      56.408  96.635  26.9900  0.00  0.00     0.000 OA
ATOM     14   O  A00 X   1      54.417  95.922  28.0790  0.00  0.00     0.000 OA
ATOM     15   S  A00 X   1      55.240  97.045  27.7190  0.00  0.00     0.000 S
ENDBRANCH 2 11
BRANCH 5 16
ATOM     16   C  A00 X   1      55.913  99.516  22.7630  0.00  0.00     0.000 C
ATOM     17   O  A00 X   1      55.654  98.846  21.7850  0.00  0.00     0.000 OA
ATOM     18   O  A00 X   1      57.056  99.538  23.1750  0.00  0.00     0.000 OA
ENDBRANCH 5 16
BRANCH 1 19
ATOM     19  O4  A00 X   2      53.824  97.155  23.6200  0.00  0.00     0.000 O
BRANCH 19 23
ATOM     20  C1  A00 X   2      49.580  96.594  23.4370  0.00  0.00     0.000 C
ATOM     21  C2  A00 X   2      50.367  95.759  24.4760  0.00  0.00     0.000 C
ATOM     22  C3  A00 X   2      51.764  96.365  24.7240  0.00  0.00     0.000 C
ATOM     23  C4  A00 X   2      52.526  96.536  23.3900  0.00  0.00     0.000 C
ATOM     24  C5  A00 X   2      51.629  97.370  22.4350  0.00  0.00     0.000 C
ATOM     25  O5  A00 X   2      50.381  96.659  22.2270  0.00  0.00     0.000 O
ATOM     26   O  A00 X   2      52.426  95.597  25.7430  0.00  0.00     0.000 O
ATOM     28  HD  A00 X   2      52.262  94.842  25.3510  0.00  0.00     0.000 HD
BRANCH 21 30
ATOM     28   N  A00 X   2      49.421  94.661  24.2530  0.00  0.00     0.000 N
ATOM     30  HD  A00 X   2      49.844  94.482  24.9870  0.00  0.00     0.000 HD
ATOM     30   O  A00 X   2      49.200  93.474  26.2530  0.00  0.00     0.000 OA
ATOM     31   S  A00 X   2      49.703  93.266  24.9420  0.00  0.00     0.000 S
ATOM     32   O  A00 X   2      48.956  92.340  24.1480  0.00  0.00     0.000 OA
ATOM     33   O  A00 X   2      51.107  93.008  24.8180  0.00  0.00     0.000 OA
ENDBRANCH 21 30
BRANCH 24 34
ATOM     34   C  A00 X   2      52.253  97.879  21.1140  0.00  0.00     0.000 C
ATOM     35   O  A00 X   2      51.135  96.857  17.8020  0.00  0.00     0.000 OA
ATOM     36   O  A00 X   2      51.861  97.053  19.9990  0.00  0.00     0.000 O
ATOM     37   O  A00 X   2      49.719  97.810  19.4390  0.00  0.00     0.000 OA
ATOM     38   S  A00 X   2      51.035  97.787  18.8790  0.00  0.00     0.000 S
ATOM     39   O  A00 X   2      51.684  99.044  18.6560  0.00  0.00     0.000 OA
ENDBRANCH 24 34
BRANCH 20 40
ATOM     40  O4  A00 X   3      49.460  97.907  24.0050  0.00  0.00     0.000 O
BRANCH 40 44
ATOM     41  C1  A00 X   3      49.659 101.490  23.5070  0.00  0.00     0.000 C
ATOM     42  C2  A00 X   3      49.344 100.805  24.8540  0.00  0.00     0.000 C
ATOM     43  C3  A00 X   3      48.203  99.767  24.6960  0.00  0.00     0.000 C
ATOM     44  C4  A00 X   3      48.400  98.777  23.5540  0.00  0.00     0.000 C
ATOM     45  C5  A00 X   3      48.708  99.541  22.2350  0.00  0.00     0.000 C
ATOM     46  O5  A00 X   3      49.783 100.516  22.4340  0.00  0.00     0.000 O
ATOM     47   O  A00 X   3      47.767  99.132  25.8960  0.00  0.00     0.000 O
ATOM     49  HD  A00 X   3      47.719  98.439  25.3790  0.00  0.00     0.000 HD
BRANCH 42 49
ATOM     49   O  A00 X   3      50.565 100.181  25.3080  0.00  0.00     0.000 O
ATOM     50   O  A00 X   3      51.231  98.823  27.1630  0.00  0.00     0.000 OA
ATOM     51   O  A00 X   3      49.779 100.648  27.5490  0.00  0.00     0.000 OA
ATOM     52   O  A00 X   3      52.011 101.098  26.9150  0.00  0.00     0.000 OA
ATOM     53   S  A00 X   3      50.931 100.177  26.8210  0.00  0.00     0.000 S
ENDBRANCH 42 49
BRANCH 45 54
ATOM     54   C  A00 X   3      47.441 100.155  21.6270  0.00  0.00     0.000 C
ATOM     55   O  A00 X   3      47.461 100.637  20.5130  0.00  0.00     0.000 OA
ATOM     56   O  A00 X   3      46.392 100.171  22.2510  0.00  0.00     0.000 OA
ENDBRANCH 45 54
BRANCH 41 57
ATOM     57  O4  A00 X   4      48.732 102.561  23.2230  0.00  0.00     0.000 O
BRANCH 57 61
ATOM     58  C1  A00 X   4      49.152 106.354  21.2030  0.00  0.00     0.000 C
ATOM     59  C2  A00 X   4      49.412 105.054  20.4010  0.00  0.00     0.000 C
ATOM     60  C3  A00 X   4      48.891 103.784  21.1040  0.00  0.00     0.000 C
ATOM     61  C4  A00 X   4      49.317 103.733  22.5860  0.00  0.00     0.000 C
ATOM     62  C5  A00 X   4      48.773 105.027  23.2410  0.00  0.00     0.000 C
ATOM     63  O5  A00 X   4      49.399 106.177  22.6160  0.00  0.00     0.000 O
BRANCH 59 66
ATOM     64   N  A00 X   4      50.861 104.843  20.2310  0.00  0.00     0.000 N
ATOM     66  HD  A00 X   4      51.387 105.170  20.8370  0.00  0.00     0.000 HD
ATOM     66   O  A00 X   4      50.767 106.382  18.3820  0.00  0.00     0.000 OA
ATOM     67   S  A00 X   4      51.530 105.264  18.8410  0.00  0.00     0.000 S
ATOM     68   O  A00 X   4      52.863 105.562  19.2750  0.00  0.00     0.000 OA
ATOM     69   O  A00 X   4      51.409 104.029  18.1180  0.00  0.00     0.000 OA
ENDBRANCH 59 66
BRANCH 62 70
ATOM     70   C  A00 X   4      49.007 105.109  24.7680  0.00  0.00     0.000 C
ATOM     71   O  A00 X   4      52.124 105.544  26.5580  0.00  0.00     0.000 OA
ATOM     72   O  A00 X   4      50.382 103.989  26.8650  0.00  0.00     0.000 OA
ATOM     73   O  A00 X   4      50.357 105.531  25.0200  0.00  0.00     0.000 O
ATOM     74   O  A00 X   4      51.933 103.708  25.0060  0.00  0.00     0.000 OA
ATOM     75   S  A00 X   4      51.265 104.601  25.8980  0.00  0.00     0.000 S
ENDBRANCH 62 70
ENDBRANCH 57 61
ENDBRANCH 41 57
ENDBRANCH 40 44
ENDBRANCH 20 40
ENDBRANCH 19 23
ENDBRANCH 1 19
TORSDOF 14
ENDMDL
MODEL 34
REMARK VINA RESULT:      -0.3    104.704    109.011
ROOT
ATOM      1  C1  A00 X   1      65.936  99.632  14.9650  0.00  0.00     0.000 C
ATOM      2  C2  A00 X   1      66.387 101.118  14.9650  0.00  0.00     0.000 C
ATOM      3  C3  A00 X   1      67.726 101.430  14.2180  0.00  0.00     0.000 C
ATOM      4  C4  A00 X   1      68.613 100.200  13.8950  0.00  0.00     0.000 C
ATOM      5  C5  A00 X   1      68.312  99.014  14.8110  0.00  0.00     0.000 C
ATOM      6  O5  A00 X   1      66.935  98.675  14.5310  0.00  0.00     0.000 O
ATOM      7   O  A00 X   1      68.513 102.295  15.0320  0.00  0.00     0.000 O
ATOM      9  HD  A00 X   1      69.050 101.708  14.6890  0.00  0.00     0.000 HD
ATOM      9   O  A00 X   1      68.478  99.803  12.5300  0.00  0.00     0.000 O
ATOM     11  HD  A00 X   1      69.015  99.216  12.1870  0.00  0.00     0.000 HD
ENDROOT
BRANCH 2 11
ATOM     11   O  A00 X   1      65.328 101.897  14.3750  0.00  0.00     0.000 O
ATOM     12   O  A00 X   1      65.596 104.230  13.8730  0.00  0.00     0.000 OA
ATOM     13   O  A00 X   1      65.689 103.493  16.1890  0.00  0.00     0.000 OA
ATOM     14   O  A00 X   1      63.645 103.400  14.9760  0.00  0.00     0.000 OA
ATOM     15   S  A00 X   1      65.080 103.355  14.8950  0.00  0.00     0.000 S
ENDBRANCH 2 11
BRANCH 5 16
ATOM     16   C  A00 X   1      68.594  99.255  16.2970  0.00  0.00     0.000 C
ATOM     17   O  A00 X   1      68.185  98.447  17.1050  0.00  0.00     0.000 OA
ATOM     18   O  A00 X   1      69.218 100.219  16.6940  0.00  0.00     0.000 OA
ENDBRANCH 5 16
BRANCH 1 19
ATOM     19  O4  A00 X   2      65.328  99.231  16.2170  0.00  0.00     0.000 O
BRANCH 19 23
ATOM     20  C1  A00 X   2      62.311  96.839  14.3350  0.00  0.00     0.000 C
ATOM     21  C2  A00 X   2      61.918  98.271  14.7710  0.00  0.00     0.000 C
ATOM     22  C3  A00 X   2      63.174  99.134  15.0190  0.00  0.00     0.000 C
ATOM     23  C4  A00 X   2      64.121  98.439  16.0230  0.00  0.00     0.000 C
ATOM     24  C5  A00 X   2      64.422  97.014  15.4830  0.00  0.00     0.000 C
ATOM     25  O5  A00 X   2      63.173  96.285  15.3650  0.00  0.00     0.000 O
ATOM     26   O  A00 X   2      62.757 100.468  15.3530  0.00  0.00     0.000 O
ATOM     28  HD  A00 X   2      62.200 100.197  15.9590  0.00  0.00     0.000 HD
BRANCH 21 30
ATOM     28   N  A00 X   2      60.577  97.768  15.0810  0.00  0.00     0.000 N
ATOM     30  HD  A00 X   2      60.519  98.631  15.0480  0.00  0.00     0.000 HD
ATOM     30   O  A00 X   2      59.046  99.489  14.6900  0.00  0.00     0.000 OA
ATOM     31   S  A00 X   2      59.547  98.738  15.7860  0.00  0.00     0.000 S
ATOM     32   O  A00 X   2      58.604  97.849  16.3910  0.00  0.00     0.000 OA
ATOM     33   O  A00 X   2      60.266  99.460  16.7930  0.00  0.00     0.000 OA
ENDBRANCH 21 30
BRANCH 24 34
ATOM     34   C  A00 X   2      65.529  96.192  16.1840  0.00  0.00     0.000 C
ATOM     35   O  A00 X   2      65.505  95.338  19.7240  0.00  0.00     0.000 OA
ATOM     36   O  A00 X   2      65.441  96.313  17.6180  0.00  0.00     0.000 O
ATOM     37   O  A00 X   2      63.751  94.815  18.2260  0.00  0.00     0.000 OA
ATOM     38   S  A00 X   2      65.164  94.970  18.3890  0.00  0.00     0.000 S
ATOM     39   O  A00 X   2      66.013  93.980  17.7960  0.00  0.00     0.000 OA
ENDBRANCH 24 34
BRANCH 20 40
ATOM     40  O4  A00 X   3      63.057  96.995  13.1180  0.00  0.00     0.000 O
BRANCH 40 44
ATOM     41  C1  A00 X   3      65.962  96.039  11.1770  0.00  0.00     0.000 C
ATOM     42  C2  A00 X   3      64.915  97.085  10.7370  0.00  0.00     0.000 C
ATOM     43  C3  A00 X   3      63.478  96.516  10.8570  0.00  0.00     0.000 C
ATOM     44  C4  A00 X   3      63.158  95.881  12.2050  0.00  0.00     0.000 C
ATOM     45  C5  A00 X   3      64.252  94.840  12.5750  0.00  0.00     0.000 C
ATOM     46  O5  A00 X   3      65.591  95.416  12.4370  0.00  0.00     0.000 O
ATOM     47   O  A00 X   3      62.430  97.367  10.3950  0.00  0.00     0.000 O
ATOM     49  HD  A00 X   3      62.019  97.048  11.0870  0.00  0.00     0.000 HD
BRANCH 42 49
ATOM     49   O  A00 X   3      65.096  98.245  11.5790  0.00  0.00     0.000 O
ATOM     50   O  A00 X   3      64.035 100.374  11.8460  0.00  0.00     0.000 OA
ATOM     51   O  A00 X   3      64.394  99.544   9.6620  0.00  0.00     0.000 OA
ATOM     52   O  A00 X   3      66.272 100.177  10.9500  0.00  0.00     0.000 OA
ATOM     53   S  A00 X   3      64.942  99.677  10.9890  0.00  0.00     0.000 S
ENDBRANCH 42 49
BRANCH 45 54
ATOM     54   C  A00 X   3      64.075  93.531  11.7950  0.00  0.00     0.000 C
ATOM     55   O  A00 X   3      64.685  92.532  12.1180  0.00  0.00     0.000 OA
ATOM     56   O  A00 X   3      63.321  93.471  10.8370  0.00  0.00     0.000 OA
ENDBRANCH 45 54
BRANCH 41 57
ATOM     57  O4  A00 X   4      66.253  95.098  10.1200  0.00  0.00     0.000 O
BRANCH 57 61
ATOM     58  C1  A00 X   4      69.818  92.925   9.0200  0.00  0.00     0.000 C
ATOM     59  C2  A00 X   4      69.199  92.675  10.4180  0.00  0.00     0.000 C
ATOM     60  C3  A00 X   4      67.762  93.216  10.5600  0.00  0.00     0.000 C
ATOM     61  C4  A00 X   4      67.641  94.666  10.0420  0.00  0.00     0.000 C
ATOM     62  C5  A00 X   4      68.113  94.642   8.5660  0.00  0.00     0.000 C
ATOM     63  O5  A00 X   4      69.507  94.245   8.5180  0.00  0.00     0.000 O
BRANCH 59 66
ATOM     64   N  A00 X   4      69.986  93.372  11.4520  0.00  0.00     0.000 N
ATOM     66  HD  A00 X   4      70.415  94.086  11.2140  0.00  0.00     0.000 HD
ATOM     66   O  A00 X   4      71.510  91.508  11.4060  0.00  0.00     0.000 OA
ATOM     67   S  A00 X   4      71.044  92.523  12.2990  0.00  0.00     0.000 S
ATOM     68   O  A00 X   4      71.996  93.544  12.6220  0.00  0.00     0.000 OA
ATOM     69   O  A00 X   4      70.219  92.118  13.4010  0.00  0.00     0.000 OA
ENDBRANCH 59 66
BRANCH 62 70
ATOM     70   C  A00 X   4      67.961  95.995   7.8320  0.00  0.00     0.000 C
ATOM     71   O  A00 X   4      69.772  99.082   8.3820  0.00  0.00     0.000 OA
ATOM     72   O  A00 X   4      67.461  98.671   8.1950  0.00  0.00     0.000 OA
ATOM     73   O  A00 X   4      69.045  96.862   8.2050  0.00  0.00     0.000 O
ATOM     74   O  A00 X   4      68.627  98.069  10.2480  0.00  0.00     0.000 OA
ATOM     75   S  A00 X   4      68.689  98.254   8.8330  0.00  0.00     0.000 S
ENDBRANCH 62 70
ENDBRANCH 57 61
ENDBRANCH 41 57
ENDBRANCH 40 44
ENDBRANCH 20 40
ENDBRANCH 19 23
ENDBRANCH 1 19
TORSDOF 14
ENDMDL
MODEL 35
REMARK VINA RESULT:      -0.3     61.476     65.400
ROOT
ATOM      1  C1  A00 X   1      38.205  24.291  89.0850  0.00  0.00     0.000 C
ATOM      2  C2  A00 X   1      37.669  22.835  89.1300  0.00  0.00     0.000 C
ATOM      3  C3  A00 X   1      38.379  21.872  90.1380  0.00  0.00     0.000 C
ATOM      4  C4  A00 X   1      39.741  22.367  90.6890  0.00  0.00     0.000 C
ATOM      5  C5  A00 X   1      40.393  23.402  89.7730  0.00  0.00     0.000 C
ATOM      6  O5  A00 X   1      39.469  24.513  89.7590  0.00  0.00     0.000 O
ATOM      7   O  A00 X   1      38.634  20.632  89.4830  0.00  0.00     0.000 O
ATOM      9  HD  A00 X   1      39.335  20.820  89.9550  0.00  0.00     0.000 HD
ATOM      9   O  A00 X   1      39.607  22.904  92.0050  0.00  0.00     0.000 O
ATOM     11  HD  A00 X   1      40.309  23.093  92.4770  0.00  0.00     0.000 HD
ENDROOT
BRANCH 2 11
ATOM     11   O  A00 X   1      36.265  22.895  89.4480  0.00  0.00     0.000 O
ATOM     12   O  A00 X   1      34.986  20.919  89.9270  0.00  0.00     0.000 OA
ATOM     13   O  A00 X   1      35.948  21.206  87.7110  0.00  0.00     0.000 OA
ATOM     14   O  A00 X   1      34.175  22.611  88.4460  0.00  0.00     0.000 OA
ATOM     15   S  A00 X   1      35.304  21.814  88.8430  0.00  0.00     0.000 S
ENDBRANCH 2 11
BRANCH 5 16
ATOM     16   C  A00 X   1      40.758  22.891  88.3750  0.00  0.00     0.000 C
ATOM     17   O  A00 X   1      41.103  23.695  87.5340  0.00  0.00     0.000 OA
ATOM     18   O  A00 X   1      40.722  21.712  88.0820  0.00  0.00     0.000 OA
ENDBRANCH 5 16
BRANCH 1 19
ATOM     19  O4  A00 X   2      38.216  24.844  87.7460  0.00  0.00     0.000 O
BRANCH 19 23
ATOM     20  C1  A00 X   2      36.933  28.732  89.0100  0.00  0.00     0.000 C
ATOM     21  C2  A00 X   2      35.854  27.767  88.4620  0.00  0.00     0.000 C
ATOM     22  C3  A00 X   2      36.367  26.312  88.4630  0.00  0.00     0.000 C
ATOM     23  C4  A00 X   2      37.708  26.208  87.7010  0.00  0.00     0.000 C
ATOM     24  C5  A00 X   2      38.692  27.232  88.3310  0.00  0.00     0.000 C
ATOM     25  O5  A00 X   2      38.127  28.563  88.2010  0.00  0.00     0.000 O
ATOM     26   O  A00 X   2      35.309  25.450  88.0110  0.00  0.00     0.000 O
ATOM     28  HD  A00 X   2      35.148  25.931  87.3100  0.00  0.00     0.000 HD
BRANCH 21 30
ATOM     28   N  A00 X   2      35.163  28.926  87.8880  0.00  0.00     0.000 N
ATOM     30  HD  A00 X   2      34.597  28.270  87.8850  0.00  0.00     0.000 HD
ATOM     30   O  A00 X   2      32.869  28.484  87.9000  0.00  0.00     0.000 OA
ATOM     31   S  A00 X   2      33.911  28.677  86.9550  0.00  0.00     0.000 S
ATOM     32   O  A00 X   2      33.816  29.880  86.1880  0.00  0.00     0.000 OA
ATOM     33   O  A00 X   2      34.230  27.568  86.1050  0.00  0.00     0.000 OA
ENDBRANCH 21 30
BRANCH 24 34
ATOM     34   C  A00 X   2      40.177  27.169  87.9030  0.00  0.00     0.000 C
ATOM     35   O  A00 X   2      41.325  27.509  84.4640  0.00  0.00     0.000 OA
ATOM     36   O  A00 X   2      40.303  26.978  86.4790  0.00  0.00     0.000 O
ATOM     37   O  A00 X   2      39.989  29.113  85.5760  0.00  0.00     0.000 OA
ATOM     38   S  A00 X   2      41.030  28.140  85.7090  0.00  0.00     0.000 S
ATOM     39   O  A00 X   2      42.173  28.494  86.4950  0.00  0.00     0.000 OA
ENDBRANCH 24 34
BRANCH 20 40
ATOM     40  O4  A00 X   3      37.196  28.298  90.3520  0.00  0.00     0.000 O
BRANCH 40 44
ATOM     41  C1  A00 X   3      39.685  27.526  92.8690  0.00  0.00     0.000 C
ATOM     42  C2  A00 X   3      38.161  27.374  93.0630  0.00  0.00     0.000 C
ATOM     43  C3  A00 X   3      37.417  28.674  92.6600  0.00  0.00     0.000 C
ATOM     44  C4  A00 X   3      37.793  29.220  91.2890  0.00  0.00     0.000 C
ATOM     45  C5  A00 X   3      39.338  29.349  91.1730  0.00  0.00     0.000 C
ATOM     46  O5  A00 X   3      39.998  28.104  91.5720  0.00  0.00     0.000 O
ATOM     47   O  A00 X   3      36.008  28.679  92.8800  0.00  0.00     0.000 O
ATOM     49  HD  A00 X   3      36.005  29.102  92.1240  0.00  0.00     0.000 HD
BRANCH 42 49
ATOM     49   O  A00 X   3      37.741  26.254  92.2540  0.00  0.00     0.000 O
ATOM     50   O  A00 X   3      35.666  25.190  91.7100  0.00  0.00     0.000 OA
ATOM     51   O  A00 X   3      36.045  25.881  93.9390  0.00  0.00     0.000 OA
ATOM     52   O  A00 X   3      37.331  24.094  93.0800  0.00  0.00     0.000 OA
ATOM     53   S  A00 X   3      36.629  25.290  92.7610  0.00  0.00     0.000 S
ENDBRANCH 42 49
BRANCH 45 54
ATOM     54   C  A00 X   3      39.863  30.578  91.9250  0.00  0.00     0.000 C
ATOM     55   O  A00 X   3      39.118  31.251  92.6070  0.00  0.00     0.000 OA
ATOM     56   O  A00 X   3      41.039  30.902  91.8500  0.00  0.00     0.000 OA
ENDBRANCH 45 54
BRANCH 41 57
ATOM     57  O4  A00 X   4      40.298  28.215  93.9820  0.00  0.00     0.000 O
BRANCH 57 61
ATOM     58  C1  A00 X   4      44.163  27.880  95.8780  0.00  0.00     0.000 C
ATOM     59  C2  A00 X   4      44.101  28.311  94.3910  0.00  0.00     0.000 C
ATOM     60  C3  A00 X   4      42.692  28.741  93.9330  0.00  0.00     0.000 C
ATOM     61  C4  A00 X   4      41.614  27.723  94.3640  0.00  0.00     0.000 C
ATOM     62  C5  A00 X   4      41.717  27.605  95.9050  0.00  0.00     0.000 C
ATOM     63  O5  A00 X   4      43.021  27.078  96.2570  0.00  0.00     0.000 O
BRANCH 59 66
ATOM     64   N  A00 X   4      44.470  27.179  93.5220  0.00  0.00     0.000 N
ATOM     66  HD  A00 X   4      44.318  26.380  93.8200  0.00  0.00     0.000 HD
ATOM     66   O  A00 X   4      46.775  27.733  93.9480  0.00  0.00     0.000 OA
ATOM     67   S  A00 X   4      45.961  27.122  92.9440  0.00  0.00     0.000 S
ATOM     68   O  A00 X   4      46.125  25.706  92.7940  0.00  0.00     0.000 OA
ATOM     69   O  A00 X   4      45.780  27.828  91.7080  0.00  0.00     0.000 OA
ENDBRANCH 59 66
BRANCH 62 70
ATOM     70   C  A00 X   4      40.633  26.703  96.5430  0.00  0.00     0.000 C
ATOM     71   O  A00 X   4      40.281  23.106  96.3440  0.00  0.00     0.000 OA
ATOM     72   O  A00 X   4      38.708  24.823  95.9960  0.00  0.00     0.000 OA
ATOM     73   O  A00 X   4      41.023  25.327  96.4100  0.00  0.00     0.000 O
ATOM     74   O  A00 X   4      40.390  24.368  94.2920  0.00  0.00     0.000 OA
ATOM     75   S  A00 X   4      40.037  24.353  95.6760  0.00  0.00     0.000 S
ENDBRANCH 62 70
ENDBRANCH 57 61
ENDBRANCH 41 57
ENDBRANCH 40 44
ENDBRANCH 20 40
ENDBRANCH 19 23
ENDBRANCH 1 19
TORSDOF 14
ENDMDL
MODEL 36
REMARK VINA RESULT:      -0.3    106.524    110.175
ROOT
ATOM      1  C1  A00 X   1      62.191  80.036  95.6790  0.00  0.00     0.000 C
ATOM      2  C2  A00 X   1      61.187  78.929  96.0980  0.00  0.00     0.000 C
ATOM      3  C3  A00 X   1      60.392  79.187  97.4200  0.00  0.00     0.000 C
ATOM      4  C4  A00 X   1      60.954  80.310  98.3300  0.00  0.00     0.000 C
ATOM      5  C5  A00 X   1      62.435  80.581  98.0640  0.00  0.00     0.000 C
ATOM      6  O5  A00 X   1      62.486  81.030  96.6910  0.00  0.00     0.000 O
ATOM      7   O  A00 X   1      60.401  77.993  98.1990  0.00  0.00     0.000 O
ATOM      9  HD  A00 X   1      60.526  78.655  98.7440  0.00  0.00     0.000 HD
ATOM      9   O  A00 X   1      60.210  81.520  98.1860  0.00  0.00     0.000 O
ATOM     11  HD  A00 X   1      60.334  82.181  98.7310  0.00  0.00     0.000 HD
ENDROOT
BRANCH 2 11
ATOM     11   O  A00 X   1      60.252  78.753  95.0150  0.00  0.00     0.000 O
ATOM     12   O  A00 X   1      58.317  77.347  95.2260  0.00  0.00     0.000 OA
ATOM     13   O  A00 X   1      60.532  76.350  95.3590  0.00  0.00     0.000 OA
ATOM     14   O  A00 X   1      59.736  77.249  93.3050  0.00  0.00     0.000 OA
ATOM     15   S  A00 X   1      59.673  77.322  94.7400  0.00  0.00     0.000 S
ENDBRANCH 2 11
BRANCH 5 16
ATOM     16   C  A00 X   1      63.372  79.405  98.3600  0.00  0.00     0.000 C
ATOM     17   O  A00 X   1      64.520  79.465  97.9710  0.00  0.00     0.000 OA
ATOM     18   O  A00 X   1      63.009  78.422  98.9730  0.00  0.00     0.000 OA
ENDBRANCH 5 16
BRANCH 1 19
ATOM     19  O4  A00 X   2      63.404  79.502  95.0940  0.00  0.00     0.000 O
BRANCH 19 23
ATOM     20  C1  A00 X   2      63.695  82.577  92.1240  0.00  0.00     0.000 C
ATOM     21  C2  A00 X   2      63.056  81.233  91.7000  0.00  0.00     0.000 C
ATOM     22  C3  A00 X   2      62.630  80.413  92.9360  0.00  0.00     0.000 C
ATOM     23  C4  A00 X   2      63.820  80.232  93.9050  0.00  0.00     0.000 C
ATOM     24  C5  A00 X   2      64.381  81.642  94.2370  0.00  0.00     0.000 C
ATOM     25  O5  A00 X   2      64.811  82.276  93.0040  0.00  0.00     0.000 O
ATOM     26   O  A00 X   2      61.982  79.209  92.4910  0.00  0.00     0.000 O
ATOM     28  HD  A00 X   2      62.622  79.007  91.9430  0.00  0.00     0.000 HD
BRANCH 21 30
ATOM     28   N  A00 X   2      63.652  81.410  90.3720  0.00  0.00     0.000 N
ATOM     30  HD  A00 X   2      63.044  80.798  90.2950  0.00  0.00     0.000 HD
ATOM     30   O  A00 X   2      62.229  80.430  88.8000  0.00  0.00     0.000 OA
ATOM     31   S  A00 X   2      63.533  80.233  89.3240  0.00  0.00     0.000 S
ATOM     32   O  A00 X   2      64.599  80.489  88.4050  0.00  0.00     0.000 OA
ATOM     33   O  A00 X   2      63.771  79.010  90.0320  0.00  0.00     0.000 OA
ENDBRANCH 21 30
BRANCH 24 34
ATOM     34   C  A00 X   2      65.432  81.759  95.3660  0.00  0.00     0.000 C
ATOM     35   O  A00 X   2      68.619  79.998  95.3770  0.00  0.00     0.000 OA
ATOM     36   O  A00 X   2      66.409  80.702  95.2810  0.00  0.00     0.000 O
ATOM     37   O  A00 X   2      67.901  81.422  93.6300  0.00  0.00     0.000 OA
ATOM     38   S  A00 X   2      67.889  81.176  95.0400  0.00  0.00     0.000 S
ATOM     39   O  A00 X   2      68.104  82.293  95.9100  0.00  0.00     0.000 OA
ENDBRANCH 24 34
BRANCH 20 40
ATOM     40  O4  A00 X   3      62.679  83.275  92.8590  0.00  0.00     0.000 O
BRANCH 40 44
ATOM     41  C1  A00 X   3      61.831  85.263  95.7660  0.00  0.00     0.000 C
ATOM     42  C2  A00 X   3      60.823  84.797  94.6940  0.00  0.00     0.000 C
ATOM     43  C3  A00 X   3      61.324  85.150  93.2700  0.00  0.00     0.000 C
ATOM     44  C4  A00 X   3      62.754  84.712  92.9760  0.00  0.00     0.000 C
ATOM     45  C5  A00 X   3      63.707  85.222  94.0930  0.00  0.00     0.000 C
ATOM     46  O5  A00 X   3      63.189  84.876  95.4190  0.00  0.00     0.000 O
ATOM     47   O  A00 X   3      60.431  84.843  92.2010  0.00  0.00     0.000 O
ATOM     49  HD  A00 X   3      61.165  84.615  91.8020  0.00  0.00     0.000 HD
BRANCH 42 49
ATOM     49   O  A00 X   3      60.659  83.371  94.8580  0.00  0.00     0.000 O
ATOM     50   O  A00 X   3      59.441  81.629  93.7560  0.00  0.00     0.000 OA
ATOM     51   O  A00 X   3      58.381  83.712  94.1130  0.00  0.00     0.000 OA
ATOM     52   O  A00 X   3      58.867  82.359  95.9890  0.00  0.00     0.000 OA
ATOM     53   S  A00 X   3      59.260  82.714  94.6690  0.00  0.00     0.000 S
ENDBRANCH 42 49
BRANCH 45 54
ATOM     54   C  A00 X   3      64.017  86.715  93.9370  0.00  0.00     0.000 C
ATOM     55   O  A00 X   3      64.858  87.248  94.6320  0.00  0.00     0.000 OA
ATOM     56   O  A00 X   3      63.424  87.394  93.1140  0.00  0.00     0.000 OA
ENDBRANCH 45 54
BRANCH 41 57
ATOM     57  O4  A00 X   4      61.679  86.668  96.0670  0.00  0.00     0.000 O
BRANCH 57 61
ATOM     58  C1  A00 X   4      62.220  88.977  99.6750  0.00  0.00     0.000 C
ATOM     59  C2  A00 X   4      63.442  88.233  99.0810  0.00  0.00     0.000 C
ATOM     60  C3  A00 X   4      63.224  87.753  97.6310  0.00  0.00     0.000 C
ATOM     61  C4  A00 X   4      61.873  87.026  97.4650  0.00  0.00     0.000 C
ATOM     62  C5  A00 X   4      60.781  88.026  97.9190  0.00  0.00     0.000 C
ATOM     63  O5  A00 X   4      60.972  88.337  99.3230  0.00  0.00     0.000 O
BRANCH 59 66
ATOM     64   N  A00 X   4      63.735  87.012  99.8530  0.00  0.00     0.000 N
ATOM     66  HD  A00 X   4      63.074  86.627 100.2580  0.00  0.00     0.000 HD
ATOM     66   O  A00 X   4      64.895  88.411 101.4340  0.00  0.00     0.000 OA
ATOM     67   S  A00 X   4      64.904  87.068 100.9440  0.00  0.00     0.000 S
ATOM     68   O  A00 X   4      64.445  86.071 101.8660  0.00  0.00     0.000 OA
ATOM     69   O  A00 X   4      66.020  86.656 100.1400  0.00  0.00     0.000 OA
ENDBRANCH 59 66
BRANCH 62 70
ATOM     70   C  A00 X   4      59.334  87.514  97.7220  0.00  0.00     0.000 C
ATOM     71   O  A00 X   4      57.613  84.860  99.4840  0.00  0.00     0.000 OA
ATOM     72   O  A00 X   4      57.823  85.286  97.1770  0.00  0.00     0.000 OA
ATOM     73   O  A00 X   4      58.994  86.624  98.7970  0.00  0.00     0.000 O
ATOM     74   O  A00 X   4      59.711  84.358  98.4070  0.00  0.00     0.000 OA
ATOM     75   S  A00 X   4      58.538  85.170  98.4290  0.00  0.00     0.000 S
ENDBRANCH 62 70
ENDBRANCH 57 61
ENDBRANCH 41 57
ENDBRANCH 40 44
ENDBRANCH 20 40
ENDBRANCH 19 23
ENDBRANCH 1 19
TORSDOF 14
ENDMDL
MODEL 37
REMARK VINA RESULT:      -0.3     79.257     83.836
ROOT
ATOM      1  C1  A00 X   1      26.053  84.915  61.0580  0.00  0.00     0.000 C
ATOM      2  C2  A00 X   1      24.843  85.342  61.9310  0.00  0.00     0.000 C
ATOM      3  C3  A00 X   1      24.128  86.669  61.5120  0.00  0.00     0.000 C
ATOM      4  C4  A00 X   1      24.917  87.573  60.5300  0.00  0.00     0.000 C
ATOM      5  C5  A00 X   1      26.420  87.298  60.5740  0.00  0.00     0.000 C
ATOM      6  O5  A00 X   1      26.555  85.923  60.1470  0.00  0.00     0.000 O
ATOM      7   O  A00 X   1      23.892  87.451  62.6810  0.00  0.00     0.000 O
ATOM      9  HD  A00 X   1      24.156  87.994  62.0600  0.00  0.00     0.000 HD
ATOM      9   O  A00 X   1      24.440  87.431  59.1920  0.00  0.00     0.000 O
ATOM     11  HD  A00 X   1      24.704  87.974  58.5710  0.00  0.00     0.000 HD
ENDROOT
BRANCH 2 11
ATOM     11   O  A00 X   1      23.885  84.266  61.9100  0.00  0.00     0.000 O
ATOM     12   O  A00 X   1      21.700  84.492  62.8800  0.00  0.00     0.000 OA
ATOM     13   O  A00 X   1      23.658  84.614  64.3170  0.00  0.00     0.000 OA
ATOM     14   O  A00 X   1      23.055  82.563  63.2750  0.00  0.00     0.000 OA
ATOM     15   S  A00 X   1      23.018  83.998  63.1880  0.00  0.00     0.000 S
ENDBRANCH 2 11
BRANCH 5 16
ATOM     16   C  A00 X   1      27.093  87.590  61.9190  0.00  0.00     0.000 C
ATOM     17   O  A00 X   1      28.226  87.193  62.1010  0.00  0.00     0.000 OA
ATOM     18   O  A00 X   1      26.538  88.209  62.8050  0.00  0.00     0.000 OA
ENDBRANCH 5 16
BRANCH 1 19
ATOM     19  O4  A00 X   2      27.124  84.324  61.8350  0.00  0.00     0.000 O
BRANCH 19 23
ATOM     20  C1  A00 X   2      28.016  81.332  58.8990  0.00  0.00     0.000 C
ATOM     21  C2  A00 X   2      27.111  80.921  60.0860  0.00  0.00     0.000 C
ATOM     22  C3  A00 X   2      26.536  82.165  60.7950  0.00  0.00     0.000 C
ATOM     23  C4  A00 X   2      27.671  83.127  61.2110  0.00  0.00     0.000 C
ATOM     24  C5  A00 X   2      28.512  83.446  59.9440  0.00  0.00     0.000 C
ATOM     25  O5  A00 X   2      29.053  82.206  59.4190  0.00  0.00     0.000 O
ATOM     26   O  A00 X   2      25.651  81.732  61.8420  0.00  0.00     0.000 O
ATOM     28  HD  A00 X   2      26.232  81.182  62.1740  0.00  0.00     0.000 HD
BRANCH 21 30
ATOM     28   N  A00 X   2      27.719  79.588  60.0400  0.00  0.00     0.000 N
ATOM     30  HD  A00 X   2      26.999  79.519  60.5150  0.00  0.00     0.000 HD
ATOM     30   O  A00 X   2      26.114  78.032  60.7160  0.00  0.00     0.000 OA
ATOM     31   S  A00 X   2      27.355  78.548  61.1730  0.00  0.00     0.000 S
ATOM     32   O  A00 X   2      28.443  77.620  61.1440  0.00  0.00     0.000 OA
ATOM     33   O  A00 X   2      27.343  79.262  62.4150  0.00  0.00     0.000 OA
ENDBRANCH 21 30
BRANCH 24 34
ATOM     34   C  A00 X   2      29.573  84.567  60.0410  0.00  0.00     0.000 C
ATOM     35   O  A00 X   2      33.153  84.027  59.6540  0.00  0.00     0.000 OA
ATOM     36   O  A00 X   2      30.898  84.021  60.2010  0.00  0.00     0.000 O
ATOM     37   O  A00 X   2      31.541  83.408  58.0380  0.00  0.00     0.000 OA
ATOM     38   S  A00 X   2      31.907  84.358  59.0440  0.00  0.00     0.000 S
ATOM     39   O  A00 X   2      31.728  85.746  58.7420  0.00  0.00     0.000 OA
ENDBRANCH 24 34
BRANCH 20 40
ATOM     40  O4  A00 X   3      27.171  82.070  58.0040  0.00  0.00     0.000 O
BRANCH 40 44
ATOM     41  C1  A00 X   3      26.759  84.967  55.8690  0.00  0.00     0.000 C
ATOM     42  C2  A00 X   3      25.673  83.899  56.1220  0.00  0.00     0.000 C
ATOM     43  C3  A00 X   3      26.233  82.472  55.8880  0.00  0.00     0.000 C
ATOM     44  C4  A00 X   3      27.540  82.178  56.6130  0.00  0.00     0.000 C
ATOM     45  C5  A00 X   3      28.581  83.291  56.3050  0.00  0.00     0.000 C
ATOM     46  O5  A00 X   3      28.008  84.619  56.5290  0.00  0.00     0.000 O
ATOM     47   O  A00 X   3      25.292  81.407  56.0090  0.00  0.00     0.000 O
ATOM     49  HD  A00 X   3      25.962  81.008  56.3860  0.00  0.00     0.000 HD
BRANCH 42 49
ATOM     49   O  A00 X   3      25.219  84.072  57.4830  0.00  0.00     0.000 O
ATOM     50   O  A00 X   3      23.670  82.979  58.9440  0.00  0.00     0.000 OA
ATOM     51   O  A00 X   3      23.061  83.321  56.6850  0.00  0.00     0.000 OA
ATOM     52   O  A00 X   3      23.257  85.206  58.0980  0.00  0.00     0.000 OA
ATOM     53   S  A00 X   3      23.716  83.885  57.8400  0.00  0.00     0.000 S
ENDBRANCH 42 49
BRANCH 45 54
ATOM     54   C  A00 X   3      29.193  83.125  54.9090  0.00  0.00     0.000 C
ATOM     55   O  A00 X   3      30.139  83.802  54.5640  0.00  0.00     0.000 OA
ATOM     56   O  A00 X   3      28.738  82.312  54.1190  0.00  0.00     0.000 OA
ENDBRANCH 45 54
BRANCH 41 57
ATOM     57  O4  A00 X   4      26.902  85.260  54.4610  0.00  0.00     0.000 O
BRANCH 57 61
ATOM     58  C1  A00 X   4      27.873  88.865  52.2930  0.00  0.00     0.000 C
ATOM     59  C2  A00 X   4      28.919  88.288  53.2780  0.00  0.00     0.000 C
ATOM     60  C3  A00 X   4      28.622  86.838  53.7120  0.00  0.00     0.000 C
ATOM     61  C4  A00 X   4      27.150  86.659  54.1430  0.00  0.00     0.000 C
ATOM     62  C5  A00 X   4      26.286  87.096  52.9340  0.00  0.00     0.000 C
ATOM     63  O5  A00 X   4      26.523  88.501  52.6610  0.00  0.00     0.000 O
BRANCH 59 66
ATOM     64   N  A00 X   4      28.938  89.072  54.5260  0.00  0.00     0.000 N
ATOM     66  HD  A00 X   4      28.206  89.472  54.7590  0.00  0.00     0.000 HD
ATOM     66   O  A00 X   4      30.352  90.657  53.3910  0.00  0.00     0.000 OA
ATOM     67   S  A00 X   4      30.081  90.176  54.7100  0.00  0.00     0.000 S
ATOM     68   O  A00 X   4      29.411  91.100  55.5780  0.00  0.00     0.000 OA
ATOM     69   O  A00 X   4      31.092  89.389  55.3560  0.00  0.00     0.000 OA
ENDBRANCH 59 66
BRANCH 62 70
ATOM     70   C  A00 X   4      24.766  86.884  53.1350  0.00  0.00     0.000 C
ATOM     71   O  A00 X   4      22.510  88.645  55.3510  0.00  0.00     0.000 OA
ATOM     72   O  A00 X   4      22.830  86.338  55.0050  0.00  0.00     0.000 OA
ATOM     73   O  A00 X   4      24.236  87.962  53.9220  0.00  0.00     0.000 O
ATOM     74   O  A00 X   4      24.468  87.601  56.2930  0.00  0.00     0.000 OA
ATOM     75   S  A00 X   4      23.490  87.601  55.2530  0.00  0.00     0.000 S
ENDBRANCH 62 70
ENDBRANCH 57 61
ENDBRANCH 41 57
ENDBRANCH 40 44
ENDBRANCH 20 40
ENDBRANCH 19 23
ENDBRANCH 1 19
TORSDOF 14
ENDMDL
MODEL 38
REMARK VINA RESULT:      -0.3     79.822     83.732
ROOT
ATOM      1  C1  A00 X   1      26.053  84.915  61.0580  0.00  0.00     0.000 C
ATOM      2  C2  A00 X   1      24.883  84.869  62.0770  0.00  0.00     0.000 C
ATOM      3  C3  A00 X   1      23.607  85.691  61.6970  0.00  0.00     0.000 C
ATOM      4  C4  A00 X   1      23.795  86.727  60.5590  0.00  0.00     0.000 C
ATOM      5  C5  A00 X   1      25.256  87.144  60.3930  0.00  0.00     0.000 C
ATOM      6  O5  A00 X   1      25.946  85.928  60.0280  0.00  0.00     0.000 O
ATOM      7   O  A00 X   1      23.175  86.421  62.8420  0.00  0.00     0.000 O
ATOM      9  HD  A00 X   1      23.098  86.948  62.1600  0.00  0.00     0.000 HD
ATOM      9   O  A00 X   1      23.289  86.236  59.3180  0.00  0.00     0.000 O
ATOM     11  HD  A00 X   1      23.211  86.763  58.6350  0.00  0.00     0.000 HD
ENDROOT
BRANCH 2 11
ATOM     11   O  A00 X   1      24.514  83.488  62.2600  0.00  0.00     0.000 O
ATOM     12   O  A00 X   1      22.581  82.847  63.5320  0.00  0.00     0.000 OA
ATOM     13   O  A00 X   1      24.420  83.980  64.6510  0.00  0.00     0.000 OA
ATOM     14   O  A00 X   1      24.692  81.766  63.8260  0.00  0.00     0.000 OA
ATOM     15   S  A00 X   1      24.005  83.019  63.6660  0.00  0.00     0.000 S
ENDBRANCH 2 11
BRANCH 5 16
ATOM     16   C  A00 X   1      25.868  87.856  61.6040  0.00  0.00     0.000 C
ATOM     17   O  A00 X   1      27.071  88.018  61.6350  0.00  0.00     0.000 OA
ATOM     18   O  A00 X   1      25.195  88.268  62.5270  0.00  0.00     0.000 OA
ENDBRANCH 5 16
BRANCH 1 19
ATOM     19  O4  A00 X   2      27.352  84.947  61.6970  0.00  0.00     0.000 O
BRANCH 19 23
ATOM     20  C1  A00 X   2      29.166  82.326  58.8320  0.00  0.00     0.000 C
ATOM     21  C2  A00 X   2      28.678  81.702  60.1620  0.00  0.00     0.000 C
ATOM     22  C3  A00 X   2      27.687  82.643  60.8790  0.00  0.00     0.000 C
ATOM     23  C4  A00 X   2      28.307  84.046  61.0660  0.00  0.00     0.000 C
ATOM     24  C5  A00 X   2      28.771  84.550  59.6720  0.00  0.00     0.000 C
ATOM     25  O5  A00 X   2      29.751  83.619  59.1410  0.00  0.00     0.000 O
ATOM     26   O  A00 X   2      27.211  81.992  62.0690  0.00  0.00     0.000 O
ATOM     28  HD  A00 X   2      28.009  81.794  62.3400  0.00  0.00     0.000 HD
BRANCH 21 30
ATOM     28   N  A00 X   2      29.811  80.774  60.1000  0.00  0.00     0.000 N
ATOM     30  HD  A00 X   2      29.255  80.452  60.6810  0.00  0.00     0.000 HD
ATOM     30   O  A00 X   2      29.159  78.763  61.0940  0.00  0.00     0.000 OA
ATOM     31   S  A00 X   2      30.078  79.820  61.3310  0.00  0.00     0.000 S
ATOM     32   O  A00 X   2      31.456  79.464  61.1910  0.00  0.00     0.000 OA
ATOM     33   O  A00 X   2      29.883  80.596  62.5190  0.00  0.00     0.000 OA
ENDBRANCH 21 30
BRANCH 24 34
ATOM     34   C  A00 X   2      29.220  86.025  59.5460  0.00  0.00     0.000 C
ATOM     35   O  A00 X   2      32.595  87.063  58.6580  0.00  0.00     0.000 OA
ATOM     36   O  A00 X   2      30.657  86.135  59.5370  0.00  0.00     0.000 O
ATOM     37   O  A00 X   2      31.266  85.618  57.3380  0.00  0.00     0.000 OA
ATOM     38   S  A00 X   2      31.275  86.742  58.2240  0.00  0.00     0.000 S
ATOM     39   O  A00 X   2      30.460  87.867  57.8750  0.00  0.00     0.000 OA
ENDBRANCH 24 34
BRANCH 20 40
ATOM     40  O4  A00 X   3      27.988  82.510  58.0340  0.00  0.00     0.000 O
BRANCH 40 44
ATOM     41  C1  A00 X   3      26.089  84.665  55.8270  0.00  0.00     0.000 C
ATOM     42  C2  A00 X   3      25.633  83.268  56.2990  0.00  0.00     0.000 C
ATOM     43  C3  A00 X   3      26.744  82.212  56.0640  0.00  0.00     0.000 C
ATOM     44  C4  A00 X   3      28.115  82.606  56.5990  0.00  0.00     0.000 C
ATOM     45  C5  A00 X   3      28.505  84.017  56.0780  0.00  0.00     0.000 C
ATOM     46  O5  A00 X   3      27.424  84.978  56.3110  0.00  0.00     0.000 O
ATOM     47   O  A00 X   3      26.401  80.865  56.3830  0.00  0.00     0.000 O
ATOM     49  HD  A00 X   3      27.216  80.846  56.6770  0.00  0.00     0.000 HD
BRANCH 42 49
ATOM     49   O  A00 X   3      25.301  83.382  57.7000  0.00  0.00     0.000 O
ATOM     50   O  A00 X   3      24.578  81.900  59.4360  0.00  0.00     0.000 OA
ATOM     51   O  A00 X   3      23.637  81.676  57.2780  0.00  0.00     0.000 OA
ATOM     52   O  A00 X   3      23.119  83.607  58.5380  0.00  0.00     0.000 OA
ATOM     53   S  A00 X   3      24.091  82.599  58.2880  0.00  0.00     0.000 S
ENDBRANCH 42 49
BRANCH 45 54
ATOM     54   C  A00 X   3      28.969  83.974  54.6170  0.00  0.00     0.000 C
ATOM     55   O  A00 X   3      29.467  84.952  54.0970  0.00  0.00     0.000 OA
ATOM     56   O  A00 X   3      28.845  82.958  53.9510  0.00  0.00     0.000 OA
ENDBRANCH 45 54
BRANCH 41 57
ATOM     57  O4  A00 X   4      25.930  84.825  54.3990  0.00  0.00     0.000 O
BRANCH 57 61
ATOM     58  C1  A00 X   4      24.936  88.211  51.9130  0.00  0.00     0.000 C
ATOM     59  C2  A00 X   4      26.231  88.269  52.7610  0.00  0.00     0.000 C
ATOM     60  C3  A00 X   4      26.665  86.896  53.3140  0.00  0.00     0.000 C
ATOM     61  C4  A00 X   4      25.488  86.144  53.9700  0.00  0.00     0.000 C
ATOM     62  C5  A00 X   4      24.393  86.015  52.8820  0.00  0.00     0.000 C
ATOM     63  O5  A00 X   4      23.942  87.339  52.4990  0.00  0.00     0.000 O
BRANCH 59 66
ATOM     64   N  A00 X   4      26.032  89.122  53.9470  0.00  0.00     0.000 N
ATOM     66  HD  A00 X   4      25.228  89.185  54.2630  0.00  0.00     0.000 HD
ATOM     66   O  A00 X   4      26.450  91.021  52.5260  0.00  0.00     0.000 OA
ATOM     67   S  A00 X   4      26.569  90.628  53.8950  0.00  0.00     0.000 S
ATOM     68   O  A00 X   4      25.655  91.260  54.8010  0.00  0.00     0.000 OA
ATOM     69   O  A00 X   4      27.890  90.443  54.4260  0.00  0.00     0.000 OA
ENDBRANCH 59 66
BRANCH 62 70
ATOM     70   C  A00 X   4      23.162  85.184  53.3200  0.00  0.00     0.000 C
ATOM     71   O  A00 X   4      20.612  86.027  55.7470  0.00  0.00     0.000 OA
ATOM     72   O  A00 X   4      21.894  84.070  55.4860  0.00  0.00     0.000 OA
ATOM     73   O  A00 X   4      22.294  86.006  54.1160  0.00  0.00     0.000 O
ATOM     74   O  A00 X   4      22.921  86.062  56.4420  0.00  0.00     0.000 OA
ATOM     75   S  A00 X   4      21.940  85.513  55.5620  0.00  0.00     0.000 S
ENDBRANCH 62 70
ENDBRANCH 57 61
ENDBRANCH 41 57
ENDBRANCH 40 44
ENDBRANCH 20 40
ENDBRANCH 19 23
ENDBRANCH 1 19
TORSDOF 14
ENDMDL
MODEL 39
REMARK VINA RESULT:      -0.3     90.185     93.789
ROOT
ATOM      1  C1  A00 X   1      79.348  35.454  89.6460  0.00  0.00     0.000 C
ATOM      2  C2  A00 X   1      79.142  34.049  89.0200  0.00  0.00     0.000 C
ATOM      3  C3  A00 X   1      79.515  33.909  87.5080  0.00  0.00     0.000 C
ATOM      4  C4  A00 X   1      79.687  35.243  86.7360  0.00  0.00     0.000 C
ATOM      5  C5  A00 X   1      78.951  36.400  87.4110  0.00  0.00     0.000 C
ATOM      6  O5  A00 X   1      79.583  36.530  88.7050  0.00  0.00     0.000 O
ATOM      7   O  A00 X   1      78.477  33.189  86.8460  0.00  0.00     0.000 O
ATOM      9  HD  A00 X   1      78.714  33.836  86.3210  0.00  0.00     0.000 HD
ATOM      9   O  A00 X   1      81.065  35.577  86.5720  0.00  0.00     0.000 O
ATOM     11  HD  A00 X   1      81.302  36.224  86.0470  0.00  0.00     0.000 HD
ENDROOT
BRANCH 2 11
ATOM     11   O  A00 X   1      79.923  33.110  89.7850  0.00  0.00     0.000 O
ATOM     12   O  A00 X   1      80.196  30.826  89.0940  0.00  0.00     0.000 OA
ATOM     13   O  A00 X   1      77.979  31.634  89.6860  0.00  0.00     0.000 OA
ATOM     14   O  A00 X   1      79.661  31.399  91.3520  0.00  0.00     0.000 OA
ATOM     15   S  A00 X   1      79.389  31.647  89.9620  0.00  0.00     0.000 S
ENDBRANCH 2 11
BRANCH 5 16
ATOM     16   C  A00 X   1      77.429  36.245  87.4850  0.00  0.00     0.000 C
ATOM     17   O  A00 X   1      76.800  37.012  88.1840  0.00  0.00     0.000 OA
ATOM     18   O  A00 X   1      76.830  35.389  86.8650  0.00  0.00     0.000 OA
ENDBRANCH 5 16
BRANCH 1 19
ATOM     19  O4  A00 X   2      78.313  35.801  90.5990  0.00  0.00     0.000 O
BRANCH 19 23
ATOM     20  C1  A00 X   2      81.030  37.684  93.3260  0.00  0.00     0.000 C
ATOM     21  C2  A00 X   2      80.613  36.224  93.6270  0.00  0.00     0.000 C
ATOM     22  C3  A00 X   2      80.009  35.556  92.3740  0.00  0.00     0.000 C
ATOM     23  C4  A00 X   2      78.849  36.407  91.8100  0.00  0.00     0.000 C
ATOM     24  C5  A00 X   2      79.388  37.844  91.5700  0.00  0.00     0.000 C
ATOM     25  O5  A00 X   2      79.857  38.384  92.8320  0.00  0.00     0.000 O
ATOM     26   O  A00 X   2      79.702  34.186  92.6850  0.00  0.00     0.000 O
ATOM     28  HD  A00 X   2      79.271  34.394  93.4070  0.00  0.00     0.000 HD
BRANCH 21 30
ATOM     28   N  A00 X   2      80.680  36.542  95.0570  0.00  0.00     0.000 N
ATOM     30  HD  A00 X   2      80.667  35.679  94.9920  0.00  0.00     0.000 HD
ATOM     30   O  A00 X   2      81.320  34.609  96.2020  0.00  0.00     0.000 OA
ATOM     31   S  A00 X   2      80.188  35.460  96.0990  0.00  0.00     0.000 S
ATOM     32   O  A00 X   2      79.899  36.226  97.2710  0.00  0.00     0.000 OA
ATOM     33   O  A00 X   2      78.987  34.882  95.5730  0.00  0.00     0.000 OA
ENDBRANCH 21 30
BRANCH 24 34
ATOM     34   C  A00 X   2      78.491  38.836  90.7930  0.00  0.00     0.000 C
ATOM     35   O  A00 X   2      75.134  39.793  91.8290  0.00  0.00     0.000 OA
ATOM     36   O  A00 X   2      77.119  38.751  91.2280  0.00  0.00     0.000 O
ATOM     37   O  A00 X   2      77.053  40.017  93.1940  0.00  0.00     0.000 OA
ATOM     38   S  A00 X   2      76.533  40.066  91.8610  0.00  0.00     0.000 S
ATOM     39   O  A00 X   2      76.961  41.144  91.0220  0.00  0.00     0.000 OA
ENDBRANCH 24 34
BRANCH 20 40
ATOM     40  O4  A00 X   3      82.013  37.599  92.2840  0.00  0.00     0.000 O
BRANCH 40 44
ATOM     41  C1  A00 X   3      83.201  38.901  89.1190  0.00  0.00     0.000 C
ATOM     42  C2  A00 X   3      83.832  37.711  89.8740  0.00  0.00     0.000 C
ATOM     43  C3  A00 X   3      84.116  38.079  91.3530  0.00  0.00     0.000 C
ATOM     44  C4  A00 X   3      82.933  38.695  92.0900  0.00  0.00     0.000 C
ATOM     45  C5  A00 X   3      82.358  39.886  91.2730  0.00  0.00     0.000 C
ATOM     46  O5  A00 X   3      82.115  39.496  89.8820  0.00  0.00     0.000 O
ATOM     47   O  A00 X   3      84.780  37.082  92.1270  0.00  0.00     0.000 O
ATOM     49  HD  A00 X   3      84.235  37.356  92.7410  0.00  0.00     0.000 HD
BRANCH 42 49
ATOM     49   O  A00 X   3      82.906  36.607  89.7730  0.00  0.00     0.000 O
ATOM     50   O  A00 X   3      82.797  34.358  90.5840  0.00  0.00     0.000 OA
ATOM     51   O  A00 X   3      84.861  35.180  89.7750  0.00  0.00     0.000 OA
ATOM     52   O  A00 X   3      83.101  34.844  88.2350  0.00  0.00     0.000 OA
ATOM     53   S  A00 X   3      83.432  35.155  89.5820  0.00  0.00     0.000 S
ENDBRANCH 42 49
BRANCH 45 54
ATOM     54   C  A00 X   3      83.231  41.139  91.4050  0.00  0.00     0.000 C
ATOM     55   O  A00 X   3      82.837  42.213  90.9990  0.00  0.00     0.000 OA
ATOM     56   O  A00 X   3      84.337  41.080  91.9190  0.00  0.00     0.000 OA
ENDBRANCH 45 54
BRANCH 41 57
ATOM     57  O4  A00 X   4      84.202  39.849  88.6850  0.00  0.00     0.000 O
BRANCH 57 61
ATOM     58  C1  A00 X   4      84.511  42.419  85.2290  0.00  0.00     0.000 C
ATOM     59  C2  A00 X   4      83.316  42.616  86.1950  0.00  0.00     0.000 C
ATOM     60  C3  A00 X   4      83.500  41.907  87.5530  0.00  0.00     0.000 C
ATOM     61  C4  A00 X   4      83.964  40.445  87.3780  0.00  0.00     0.000 C
ATOM     62  C5  A00 X   4      85.281  40.500  86.5660  0.00  0.00     0.000 C
ATOM     63  O5  A00 X   4      85.011  41.062  85.2560  0.00  0.00     0.000 O
BRANCH 59 66
ATOM     64   N  A00 X   4      82.073  42.052  85.6380  0.00  0.00     0.000 N
ATOM     66  HD  A00 X   4      82.147  41.382  85.0940  0.00  0.00     0.000 HD
ATOM     66   O  A00 X   4      81.856  44.072  84.3450  0.00  0.00     0.000 OA
ATOM     67   S  A00 X   4      81.044  43.047  84.9230  0.00  0.00     0.000 S
ATOM     68   O  A00 X   4      80.424  42.151  83.9910  0.00  0.00     0.000 OA
ATOM     69   O  A00 X   4      80.215  43.399  86.0400  0.00  0.00     0.000 OA
ENDBRANCH 59 66
BRANCH 62 70
ATOM     70   C  A00 X   4      85.967  39.126  86.3790  0.00  0.00     0.000 C
ATOM     71   O  A00 X   4      84.882  36.311  84.3780  0.00  0.00     0.000 OA
ATOM     72   O  A00 X   4      85.601  36.414  86.6170  0.00  0.00     0.000 OA
ATOM     73   O  A00 X   4      85.321  38.414  85.3110  0.00  0.00     0.000 O
ATOM     74   O  A00 X   4      83.370  37.199  86.0330  0.00  0.00     0.000 OA
ATOM     75   S  A00 X   4      84.724  36.999  85.6280  0.00  0.00     0.000 S
ENDBRANCH 62 70
ENDBRANCH 57 61
ENDBRANCH 41 57
ENDBRANCH 40 44
ENDBRANCH 20 40
ENDBRANCH 19 23
ENDBRANCH 1 19
TORSDOF 14
ENDMDL
MODEL 40
REMARK VINA RESULT:      -0.3    138.024    142.044
ROOT
ATOM      1  C1  A00 X   1     111.098  91.111  88.3550  0.00  0.00     0.000 C
ATOM      2  C2  A00 X   1     112.543  90.603  88.1050  0.00  0.00     0.000 C
ATOM      3  C3  A00 X   1     113.535  91.636  87.4760  0.00  0.00     0.000 C
ATOM      4  C4  A00 X   1     112.881  92.893  86.8470  0.00  0.00     0.000 C
ATOM      5  C5  A00 X   1     111.419  92.656  86.4690  0.00  0.00     0.000 C
ATOM      6  O5  A00 X   1     110.758  92.369  87.7220  0.00  0.00     0.000 O
ATOM      7   O  A00 X   1     114.263  90.993  86.4320  0.00  0.00     0.000 O
ATOM      9  HD  A00 X   1     114.057  91.786  86.1490  0.00  0.00     0.000 HD
ATOM      9   O  A00 X   1     112.978  94.021  87.7160  0.00  0.00     0.000 O
ATOM     11  HD  A00 X   1     112.772  94.814  87.4340  0.00  0.00     0.000 HD
ENDROOT
BRANCH 2 11
ATOM     11   O  A00 X   1     113.073  90.151  89.3660  0.00  0.00     0.000 O
ATOM     12   O  A00 X   1     115.377  89.526  89.6240  0.00  0.00     0.000 OA
ATOM     13   O  A00 X   1     113.950  88.227  88.1430  0.00  0.00     0.000 OA
ATOM     14   O  A00 X   1     113.606  88.178  90.4960  0.00  0.00     0.000 OA
ATOM     15   S  A00 X   1     114.080  88.949  89.3790  0.00  0.00     0.000 S
ENDBRANCH 2 11
BRANCH 5 16
ATOM     16   C  A00 X   1     111.193  91.585  85.3980  0.00  0.00     0.000 C
ATOM     17   O  A00 X   1     110.059  91.206  85.1850  0.00  0.00     0.000 OA
ATOM     18   O  A00 X   1     112.103  91.108  84.7500  0.00  0.00     0.000 OA
ENDBRANCH 5 16
BRANCH 1 19
ATOM     19  O4  A00 X   2     110.094  90.100  88.0920  0.00  0.00     0.000 O
BRANCH 19 23
ATOM     20  C1  A00 X   2     107.670  91.198  91.4520  0.00  0.00     0.000 C
ATOM     21  C2  A00 X   2     108.626  89.992  91.6240  0.00  0.00     0.000 C
ATOM     22  C3  A00 X   2     109.712  89.991  90.5270  0.00  0.00     0.000 C
ATOM     23  C4  A00 X   2     109.067  90.050  89.1240  0.00  0.00     0.000 C
ATOM     24  C5  A00 X   2     108.124  91.283  89.0870  0.00  0.00     0.000 C
ATOM     25  O5  A00 X   2     107.110  91.127  90.1140  0.00  0.00     0.000 O
ATOM     26   O  A00 X   2     110.612  88.896  90.7700  0.00  0.00     0.000 O
ATOM     28  HD  A00 X   2     109.970  88.320  90.8500  0.00  0.00     0.000 HD
BRANCH 21 30
ATOM     28   N  A00 X   2     107.624  89.376  92.4980  0.00  0.00     0.000 N
ATOM     30  HD  A00 X   2     108.365  88.947  92.6250  0.00  0.00     0.000 HD
ATOM     30   O  A00 X   2     108.743  88.084  94.0910  0.00  0.00     0.000 OA
ATOM     31   S  A00 X   2     107.860  87.894  92.9950  0.00  0.00     0.000 S
ATOM     32   O  A00 X   2     106.549  87.442  93.3480  0.00  0.00     0.000 OA
ATOM     33   O  A00 X   2     108.360  87.147  91.8800  0.00  0.00     0.000 OA
ENDBRANCH 21 30
BRANCH 24 34
ATOM     34   C  A00 X   2     107.530  91.702  87.7210  0.00  0.00     0.000 C
ATOM     35   O  A00 X   2     105.473  89.536  85.6390  0.00  0.00     0.000 OA
ATOM     36   O  A00 X   2     107.074  90.555  86.9760  0.00  0.00     0.000 O
ATOM     37   O  A00 X   2     104.978  90.063  87.8910  0.00  0.00     0.000 OA
ATOM     38   S  A00 X   2     105.534  90.532  86.6580  0.00  0.00     0.000 S
ATOM     39   O  A00 X   2     105.187  91.855  86.2340  0.00  0.00     0.000 OA
ENDBRANCH 24 34
BRANCH 20 40
ATOM     40  O4  A00 X   3     108.495  92.366  91.5660  0.00  0.00     0.000 O
BRANCH 40 44
ATOM     41  C1  A00 X   3     109.345  95.636  90.2580  0.00  0.00     0.000 C
ATOM     42  C2  A00 X   3     110.058  94.950  91.4430  0.00  0.00     0.000 C
ATOM     43  C3  A00 X   3     109.033  94.455  92.4970  0.00  0.00     0.000 C
ATOM     44  C4  A00 X   3     107.889  93.626  91.9270  0.00  0.00     0.000 C
ATOM     45  C5  A00 X   3     107.220  94.383  90.7450  0.00  0.00     0.000 C
ATOM     46  O5  A00 X   3     108.224  94.840  89.7820  0.00  0.00     0.000 O
ATOM     47   O  A00 X   3     109.584  93.881  93.6800  0.00  0.00     0.000 O
ATOM     49  HD  A00 X   3     108.920  93.333  93.5880  0.00  0.00     0.000 HD
BRANCH 42 49
ATOM     49   O  A00 X   3     110.825  93.854  90.8980  0.00  0.00     0.000 O
ATOM     50   O  A00 X   3     112.236  92.126  91.7670  0.00  0.00     0.000 OA
ATOM     51   O  A00 X   3     112.418  94.306  92.6640  0.00  0.00     0.000 OA
ATOM     52   O  A00 X   3     113.127  93.940  90.4390  0.00  0.00     0.000 OA
ATOM     53   S  A00 X   3     112.236  93.523  91.4670  0.00  0.00     0.000 S
ENDBRANCH 42 49
BRANCH 45 54
ATOM     54   C  A00 X   3     106.302  95.508  91.2390  0.00  0.00     0.000 C
ATOM     55   O  A00 X   3     105.568  96.091  90.4670  0.00  0.00     0.000 OA
ATOM     56   O  A00 X   3     106.294  95.837  92.4150  0.00  0.00     0.000 OA
ENDBRANCH 45 54
BRANCH 41 57
ATOM     57  O4  A00 X   4     109.004  97.007  90.5620  0.00  0.00     0.000 O
BRANCH 57 61
ATOM     58  C1  A00 X   4     108.786 100.584  88.1530  0.00  0.00     0.000 C
ATOM     59  C2  A00 X   4     107.851  99.399  87.8070  0.00  0.00     0.000 C
ATOM     60  C3  A00 X   4     107.757  98.342  88.9260  0.00  0.00     0.000 C
ATOM     61  C4  A00 X   4     109.151  97.941  89.4540  0.00  0.00     0.000 C
ATOM     62  C5  A00 X   4     109.825  99.248  89.9410  0.00  0.00     0.000 C
ATOM     63  O5  A00 X   4     109.995 100.145  88.8130  0.00  0.00     0.000 O
BRANCH 59 66
ATOM     64   N  A00 X   4     108.339  98.663  86.6260  0.00  0.00     0.000 N
ATOM     66  HD  A00 X   4     109.192  98.669  86.4760  0.00  0.00     0.000 HD
ATOM     66   O  A00 X   4     107.309 100.363  85.2660  0.00  0.00     0.000 OA
ATOM     67   S  A00 X   4     107.674  98.982  85.2070  0.00  0.00     0.000 S
ATOM     68   O  A00 X   4     108.767  98.670  84.3330  0.00  0.00     0.000 OA
ATOM     69   O  A00 X   4     106.617  98.011  85.1980  0.00  0.00     0.000 OA
ENDBRANCH 59 66
BRANCH 62 70
ATOM     70   C  A00 X   4     111.203  99.036  90.6120  0.00  0.00     0.000 C
ATOM     71   O  A00 X   4     114.333  98.041  89.0890  0.00  0.00     0.000 OA
ATOM     72   O  A00 X   4     113.227  97.220  90.9990  0.00  0.00     0.000 OA
ATOM     73   O  A00 X   4     112.209  98.889  89.5970  0.00  0.00     0.000 O
ATOM     74   O  A00 X   4     112.403  96.629  88.7830  0.00  0.00     0.000 OA
ATOM     75   S  A00 X   4     113.075  97.582  89.6070  0.00  0.00     0.000 S
ENDBRANCH 62 70
ENDBRANCH 57 61
ENDBRANCH 41 57
ENDBRANCH 40 44
ENDBRANCH 20 40
ENDBRANCH 19 23
ENDBRANCH 1 19
TORSDOF 14
ENDMDL
MODEL 41
REMARK VINA RESULT:      -0.3     31.649     37.179
ROOT
ATOM      1  C1  A00 X   1      45.723  10.909  37.7400  0.00  0.00     0.000 C
ATOM      2  C2  A00 X   1      45.338  11.002  39.2400  0.00  0.00     0.000 C
ATOM      3  C3  A00 X   1      46.459  11.507  40.2070  0.00  0.00     0.000 C
ATOM      4  C4  A00 X   1      47.897  11.501  39.6260  0.00  0.00     0.000 C
ATOM      5  C5  A00 X   1      48.043  10.525  38.4590  0.00  0.00     0.000 C
ATOM      6  O5  A00 X   1      47.138  11.022  37.4480  0.00  0.00     0.000 O
ATOM      7   O  A00 X   1      46.484  10.666  41.3580  0.00  0.00     0.000 O
ATOM      9  HD  A00 X   1      47.307  10.825  41.1400  0.00  0.00     0.000 HD
ATOM      9   O  A00 X   1      48.299  12.808  39.2150  0.00  0.00     0.000 O
ATOM     11  HD  A00 X   1      49.122  12.967  38.9970  0.00  0.00     0.000 HD
ENDROOT
BRANCH 2 11
ATOM     11   O  A00 X   1      44.197  11.875  39.3470  0.00  0.00     0.000 O
ATOM     12   O  A00 X   1      43.098  12.276  41.4440  0.00  0.00     0.000 OA
ATOM     13   O  A00 X   1      43.080  10.034  40.5010  0.00  0.00     0.000 OA
ATOM     14   O  A00 X   1      41.866  11.792  39.4540  0.00  0.00     0.000 OA
ATOM     15   S  A00 X   1      43.001  11.450  40.2680  0.00  0.00     0.000 S
ENDBRANCH 2 11
BRANCH 5 16
ATOM     16   C  A00 X   1      47.815   9.052  38.8140  0.00  0.00     0.000 C
ATOM     17   O  A00 X   1      47.714   8.245  37.9130  0.00  0.00     0.000 OA
ATOM     18   O  A00 X   1      47.739   8.663  39.9630  0.00  0.00     0.000 OA
ENDBRANCH 5 16
BRANCH 1 19
ATOM     19  O4  A00 X   2      45.138   9.760  37.0800  0.00  0.00     0.000 O
BRANCH 19 23
ATOM     20  C1  A00 X   2      44.443  11.846  33.4020  0.00  0.00     0.000 C
ATOM     21  C2  A00 X   2      43.248  11.695  34.3740  0.00  0.00     0.000 C
ATOM     22  C3  A00 X   2      43.736  11.328  35.7910  0.00  0.00     0.000 C
ATOM     23  C4  A00 X   2      44.638  10.074  35.7490  0.00  0.00     0.000 C
ATOM     24  C5  A00 X   2      45.780  10.344  34.7310  0.00  0.00     0.000 C
ATOM     25  O5  A00 X   2      45.193  10.602  33.4280  0.00  0.00     0.000 O
ATOM     26   O  A00 X   2      42.599  11.267  36.6690  0.00  0.00     0.000 O
ATOM     28  HD  A00 X   2      42.153  10.750  36.1370  0.00  0.00     0.000 HD
BRANCH 21 30
ATOM     28   N  A00 X   2      42.363  11.584  33.2100  0.00  0.00     0.000 N
ATOM     30  HD  A00 X   2      41.858  11.746  33.8950  0.00  0.00     0.000 HD
ATOM     30   O  A00 X   2      40.291  12.499  33.7830  0.00  0.00     0.000 OA
ATOM     31   S  A00 X   2      40.840  11.233  33.4460  0.00  0.00     0.000 S
ATOM     32   O  A00 X   2      40.415  10.706  32.1870  0.00  0.00     0.000 OA
ATOM     33   O  A00 X   2      40.791  10.215  34.4530  0.00  0.00     0.000 OA
ENDBRANCH 21 30
BRANCH 24 34
ATOM     34   C  A00 X   2      46.951   9.335  34.6690  0.00  0.00     0.000 C
ATOM     35   O  A00 X   2      46.555   5.793  33.9270  0.00  0.00     0.000 OA
ATOM     36   O  A00 X   2      46.472   7.976  34.7100  0.00  0.00     0.000 O
ATOM     37   O  A00 X   2      45.792   7.531  32.5170  0.00  0.00     0.000 OA
ATOM     38   S  A00 X   2      46.801   7.110  33.4400  0.00  0.00     0.000 S
ATOM     39   O  A00 X   2      48.165   7.388  33.1030  0.00  0.00     0.000 OA
ENDBRANCH 24 34
BRANCH 20 40
ATOM     40  O4  A00 X   3      45.250  12.904  33.9400  0.00  0.00     0.000 O
BRANCH 40 44
ATOM     41  C1  A00 X   3      48.575  14.098  34.7410  0.00  0.00     0.000 C
ATOM     42  C2  A00 X   3      47.269  14.867  35.0340  0.00  0.00     0.000 C
ATOM     43  C3  A00 X   3      46.380  14.956  33.7670  0.00  0.00     0.000 C
ATOM     44  C4  A00 X   3      46.144  13.625  33.0650  0.00  0.00     0.000 C
ATOM     45  C5  A00 X   3      47.501  12.915  32.8000  0.00  0.00     0.000 C
ATOM     46  O5  A00 X   3      48.311  12.863  34.0190  0.00  0.00     0.000 O
ATOM     47   O  A00 X   3      45.184  15.722  33.8980  0.00  0.00     0.000 O
ATOM     49  HD  A00 X   3      44.858  15.087  33.4070  0.00  0.00     0.000 HD
BRANCH 42 49
ATOM     49   O  A00 X   3      46.596  14.167  36.1030  0.00  0.00     0.000 O
ATOM     50   O  A00 X   3      44.527  14.389  37.2880  0.00  0.00     0.000 OA
ATOM     51   O  A00 X   3      45.770  16.337  36.7860  0.00  0.00     0.000 OA
ATOM     52   O  A00 X   3      46.653  14.811  38.3610  0.00  0.00     0.000 OA
ATOM     53   S  A00 X   3      45.835  14.959  37.2060  0.00  0.00     0.000 S
ENDBRANCH 42 49
BRANCH 45 54
ATOM     54   C  A00 X   3      48.243  13.534  31.6090  0.00  0.00     0.000 C
ATOM     55   O  A00 X   3      49.213  12.984  31.1300  0.00  0.00     0.000 OA
ATOM     56   O  A00 X   3      47.872  14.592  31.1230  0.00  0.00     0.000 OA
ENDBRANCH 45 54
BRANCH 41 57
ATOM     57  O4  A00 X   4      49.564  14.945  34.1140  0.00  0.00     0.000 O
BRANCH 57 61
ATOM     58  C1  A00 X   4      53.874  15.082  34.3260  0.00  0.00     0.000 C
ATOM     59  C2  A00 X   4      53.199  13.798  33.7830  0.00  0.00     0.000 C
ATOM     60  C3  A00 X   4      51.713  13.991  33.4180  0.00  0.00     0.000 C
ATOM     61  C4  A00 X   4      50.936  14.713  34.5410  0.00  0.00     0.000 C
ATOM     62  C5  A00 X   4      51.660  16.062  34.7740  0.00  0.00     0.000 C
ATOM     63  O5  A00 X   4      53.012  15.805  35.2340  0.00  0.00     0.000 O
BRANCH 59 66
ATOM     64   N  A00 X   4      53.197  12.702  34.7690  0.00  0.00     0.000 N
ATOM     66  HD  A00 X   4      53.181  12.919  35.6080  0.00  0.00     0.000 HD
ATOM     66   O  A00 X   4      55.478  12.262  34.1350  0.00  0.00     0.000 OA
ATOM     67   S  A00 X   4      54.335  11.583  34.6600  0.00  0.00     0.000 S
ATOM     68   O  A00 X   4      54.433  11.180  36.0320  0.00  0.00     0.000 OA
ATOM     69   O  A00 X   4      53.673  10.631  33.8130  0.00  0.00     0.000 OA
ENDBRANCH 59 66
BRANCH 62 70
ATOM     70   C  A00 X   4      50.960  16.987  35.7980  0.00  0.00     0.000 C
ATOM     71   O  A00 X   4      50.643  16.565  39.3790  0.00  0.00     0.000 OA
ATOM     72   O  A00 X   4      49.026  17.076  37.7460  0.00  0.00     0.000 OA
ATOM     73   O  A00 X   4      51.293  16.560  37.1280  0.00  0.00     0.000 O
ATOM     74   O  A00 X   4      49.864  14.796  37.9370  0.00  0.00     0.000 OA
ATOM     75   S  A00 X   4      50.115  16.192  38.0970  0.00  0.00     0.000 S
ENDBRANCH 62 70
ENDBRANCH 57 61
ENDBRANCH 41 57
ENDBRANCH 40 44
ENDBRANCH 20 40
ENDBRANCH 19 23
ENDBRANCH 1 19
TORSDOF 14
ENDMDL
MODEL 42
REMARK VINA RESULT:      -0.3     93.930     98.729
ROOT
ATOM      1  C1  A00 X   1      91.671  58.472  12.8050  0.00  0.00     0.000 C
ATOM      2  C2  A00 X   1      91.386  58.115  11.3220  0.00  0.00     0.000 C
ATOM      3  C3  A00 X   1      92.530  57.363  10.5640  0.00  0.00     0.000 C
ATOM      4  C4  A00 X   1      93.919  57.393  11.2510  0.00  0.00     0.000 C
ATOM      5  C5  A00 X   1      94.058  58.566  12.2210  0.00  0.00     0.000 C
ATOM      6  O5  A00 X   1      93.050  58.330  13.2290  0.00  0.00     0.000 O
ATOM      7   O  A00 X   1      92.700  57.963   9.2810  0.00  0.00     0.000 O
ATOM      9  HD  A00 X   1      93.491  57.798   9.5930  0.00  0.00     0.000 HD
ATOM      9   O  A00 X   1      94.190  56.168  11.9330  0.00  0.00     0.000 O
ATOM     11  HD  A00 X   1      94.981  56.004  12.2440  0.00  0.00     0.000 HD
ENDROOT
BRANCH 2 11
ATOM     11   O  A00 X   1      90.192  57.310  11.2860  0.00  0.00     0.000 O
ATOM     12   O  A00 X   1      89.243  56.535   9.2210  0.00  0.00     0.000 OA
ATOM     13   O  A00 X   1      89.325  58.924   9.6710  0.00  0.00     0.000 OA
ATOM     14   O  A00 X   1      87.892  57.509  10.9350  0.00  0.00     0.000 OA
ATOM     15   S  A00 X   1      89.115  57.599  10.1840  0.00  0.00     0.000 S
ENDBRANCH 2 11
BRANCH 5 16
ATOM     16   C  A00 X   1      93.969  59.953  11.5770  0.00  0.00     0.000 C
ATOM     17   O  A00 X   1      93.878  60.924  12.3000  0.00  0.00     0.000 OA
ATOM     18   O  A00 X   1      93.993  60.116  10.3740  0.00  0.00     0.000 OA
ENDBRANCH 5 16
BRANCH 1 19
ATOM     19  O4  A00 X   2      91.131  59.761  13.1850  0.00  0.00     0.000 O
BRANCH 19 23
ATOM     20  C1  A00 X   2      89.992  58.466  17.1080  0.00  0.00     0.000 C
ATOM     21  C2  A00 X   2      88.892  58.499  16.0190  0.00  0.00     0.000 C
ATOM     22  C3  A00 X   2      89.517  58.556  14.6090  0.00  0.00     0.000 C
ATOM     23  C4  A00 X   2      90.506  59.739  14.5000  0.00  0.00     0.000 C
ATOM     24  C5  A00 X   2      91.539  59.601  15.6510  0.00  0.00     0.000 C
ATOM     25  O5  A00 X   2      90.834  59.634  16.9190  0.00  0.00     0.000 O
ATOM     26   O  A00 X   2      88.460  58.516  13.6350  0.00  0.00     0.000 O
ATOM     28  HD  A00 X   2      88.014  59.152  14.0190  0.00  0.00     0.000 HD
BRANCH 21 30
ATOM     28   N  A00 X   2      87.928  58.889  17.0530  0.00  0.00     0.000 N
ATOM     30  HD  A00 X   2      87.469  58.625  16.3680  0.00  0.00     0.000 HD
ATOM     30   O  A00 X   2      85.845  58.003  16.4760  0.00  0.00     0.000 OA
ATOM     31   S  A00 X   2      86.460  59.275  16.6140  0.00  0.00     0.000 S
ATOM     32   O  A00 X   2      85.977  60.065  17.7040  0.00  0.00     0.000 OA
ATOM     33   O  A00 X   2      86.569  60.075  15.4300  0.00  0.00     0.000 OA
ENDBRANCH 21 30
BRANCH 24 34
ATOM     34   C  A00 X   2      92.776  60.530  15.6310  0.00  0.00     0.000 C
ATOM     35   O  A00 X   2      92.596  64.167  15.6640  0.00  0.00     0.000 OA
ATOM     36   O  A00 X   2      92.407  61.883  15.2950  0.00  0.00     0.000 O
ATOM     37   O  A00 X   2      91.594  62.779  17.2960  0.00  0.00     0.000 OA
ATOM     38   S  A00 X   2      92.702  62.955  16.4070  0.00  0.00     0.000 S
ATOM     39   O  A00 X   2      94.010  62.665  16.9130  0.00  0.00     0.000 OA
ENDBRANCH 24 34
BRANCH 20 40
ATOM     40  O4  A00 X   3      90.755  57.277  16.8520  0.00  0.00     0.000 O
BRANCH 40 44
ATOM     41  C1  A00 X   3      94.040  55.773  16.5890  0.00  0.00     0.000 C
ATOM     42  C2  A00 X   3      92.710  55.034  16.3270  0.00  0.00     0.000 C
ATOM     43  C3  A00 X   3      91.721  55.237  17.5030  0.00  0.00     0.000 C
ATOM     44  C4  A00 X   3      91.525  56.688  17.9230  0.00  0.00     0.000 C
ATOM     45  C5  A00 X   3      92.904  57.361  18.1720  0.00  0.00     0.000 C
ATOM     46  O5  A00 X   3      93.808  57.135  17.0420  0.00  0.00     0.000 O
ATOM     47   O  A00 X   3      90.487  54.527  17.4100  0.00  0.00     0.000 O
ATOM     49  HD  A00 X   3      90.169  55.260  17.7430  0.00  0.00     0.000 HD
BRANCH 42 49
ATOM     49   O  A00 X   3      92.173  55.553  15.0900  0.00  0.00     0.000 O
ATOM     50   O  A00 X   3      90.187  55.233  13.7940  0.00  0.00     0.000 OA
ATOM     51   O  A00 X   3      91.234  53.347  14.7600  0.00  0.00     0.000 OA
ATOM     52   O  A00 X   3      92.346  54.480  13.0090  0.00  0.00     0.000 OA
ATOM     53   S  A00 X   3      91.437  54.610  14.0950  0.00  0.00     0.000 S
ENDBRANCH 42 49
BRANCH 45 54
ATOM     54   C  A00 X   3      93.505  56.941  19.5190  0.00  0.00     0.000 C
ATOM     55   O  A00 X   3      94.506  57.479  19.9450  0.00  0.00     0.000 OA
ATOM     56   O  A00 X   3      92.989  56.057  20.1850  0.00  0.00     0.000 OA
ENDBRANCH 45 54
BRANCH 41 57
ATOM     57  O4  A00 X   4      94.915  55.009  17.4490  0.00  0.00     0.000 O
BRANCH 57 61
ATOM     58  C1  A00 X   4      99.208  54.612  17.6650  0.00  0.00     0.000 C
ATOM     59  C2  A00 X   4      98.580  56.009  17.8950  0.00  0.00     0.000 C
ATOM     60  C3  A00 X   4      97.060  55.965  18.1500  0.00  0.00     0.000 C
ATOM     61  C4  A00 X   4      96.330  55.084  17.1150  0.00  0.00     0.000 C
ATOM     62  C5  A00 X   4      96.977  53.679  17.2040  0.00  0.00     0.000 C
ATOM     63  O5  A00 X   4      98.376  53.774  16.8310  0.00  0.00     0.000 O
BRANCH 59 66
ATOM     64   N  A00 X   4      98.747  56.862  16.7040  0.00  0.00     0.000 N
ATOM     66  HD  A00 X   4      98.798  56.468  15.9340  0.00  0.00     0.000 HD
ATOM     66   O  A00 X   4     100.980  57.331  17.4760  0.00  0.00     0.000 OA
ATOM     67   S  A00 X   4      99.941  57.927  16.6960  0.00  0.00     0.000 S
ATOM     68   O  A00 X   4     100.199  58.016  15.2890  0.00  0.00     0.000 OA
ATOM     69   O  A00 X   4      99.264  59.069  17.2430  0.00  0.00     0.000 OA
ENDBRANCH 59 66
BRANCH 62 70
ATOM     70   C  A00 X   4      96.301  52.613  16.3100  0.00  0.00     0.000 C
ATOM     71   O  A00 X   4      96.305  52.359  12.6980  0.00  0.00     0.000 OA
ATOM     72   O  A00 X   4      94.530  52.253  14.2420  0.00  0.00     0.000 OA
ATOM     73   O  A00 X   4      96.769  52.760  14.9590  0.00  0.00     0.000 O
ATOM     74   O  A00 X   4      95.534  54.408  13.7080  0.00  0.00     0.000 OA
ATOM     75   S  A00 X   4      95.701  52.996  13.8350  0.00  0.00     0.000 S
ENDBRANCH 62 70
ENDBRANCH 57 61
ENDBRANCH 41 57
ENDBRANCH 40 44
ENDBRANCH 20 40
ENDBRANCH 19 23
ENDBRANCH 1 19
TORSDOF 14
ENDMDL
MODEL 43
REMARK VINA RESULT:      -0.3    114.359    119.296
ROOT
ATOM      1  C1  A00 X   1      99.471  85.241  38.2200  0.00  0.00     0.000 C
ATOM      2  C2  A00 X   1     100.176  83.995  37.6200  0.00  0.00     0.000 C
ATOM      3  C3  A00 X   1     101.613  83.691  38.1590  0.00  0.00     0.000 C
ATOM      4  C4  A00 X   1     102.295  84.849  38.9320  0.00  0.00     0.000 C
ATOM      5  C5  A00 X   1     101.704  86.211  38.5720  0.00  0.00     0.000 C
ATOM      6  O5  A00 X   1     100.321  86.132  38.9850  0.00  0.00     0.000 O
ATOM      7   O  A00 X   1     102.461  83.387  37.0540  0.00  0.00     0.000 O
ATOM      9  HD  A00 X   1     102.915  83.889  37.5940  0.00  0.00     0.000 HD
ATOM      9   O  A00 X   1     102.220  84.649  40.3440  0.00  0.00     0.000 O
ATOM     11  HD  A00 X   1     102.675  85.150  40.8840  0.00  0.00     0.000 HD
ENDROOT
BRANCH 2 11
ATOM     11   O  A00 X   1      99.332  82.853  37.8650  0.00  0.00     0.000 O
ATOM     12   O  A00 X   1     100.059  80.612  37.4000  0.00  0.00     0.000 OA
ATOM     13   O  A00 X   1      99.809  82.188  35.5640  0.00  0.00     0.000 OA
ATOM     14   O  A00 X   1      97.900  81.393  36.7380  0.00  0.00     0.000 OA
ATOM     15   S  A00 X   1      99.304  81.691  36.8140  0.00  0.00     0.000 S
ENDBRANCH 2 11
BRANCH 5 16
ATOM     16   C  A00 X   1     101.883  86.629  37.1090  0.00  0.00     0.000 C
ATOM     17   O  A00 X   1     101.264  87.589  36.6980  0.00  0.00     0.000 OA
ATOM     18   O  A00 X   1     102.627  86.040  36.3490  0.00  0.00     0.000 OA
ENDBRANCH 5 16
BRANCH 1 19
ATOM     19  O4  A00 X   2      98.687  85.967  37.2430  0.00  0.00     0.000 O
BRANCH 19 23
ATOM     20  C1  A00 X   2      95.474  86.768  39.9630  0.00  0.00     0.000 C
ATOM     21  C2  A00 X   2      95.313  85.566  39.0010  0.00  0.00     0.000 C
ATOM     22  C3  A00 X   2      96.676  85.146  38.4130  0.00  0.00     0.000 C
ATOM     23  C4  A00 X   2      97.378  86.354  37.7530  0.00  0.00     0.000 C
ATOM     24  C5  A00 X   2      97.461  87.490  38.8080  0.00  0.00     0.000 C
ATOM     25  O5  A00 X   2      96.116  87.841  39.2240  0.00  0.00     0.000 O
ATOM     26   O  A00 X   2      96.484  83.988  37.5830  0.00  0.00     0.000 O
ATOM     28  HD  A00 X   2      95.831  84.350  37.1430  0.00  0.00     0.000 HD
BRANCH 21 30
ATOM     28   N  A00 X   2      93.878  85.859  38.9360  0.00  0.00     0.000 N
ATOM     30  HD  A00 X   2      93.984  85.058  38.6240  0.00  0.00     0.000 HD
ATOM     30   O  A00 X   2      92.736  83.843  38.6360  0.00  0.00     0.000 OA
ATOM     31   S  A00 X   2      92.982  85.044  37.9200  0.00  0.00     0.000 S
ATOM     32   O  A00 X   2      91.837  85.881  37.7310  0.00  0.00     0.000 OA
ATOM     33   O  A00 X   2      93.723  84.932  36.6980  0.00  0.00     0.000 OA
ENDBRANCH 21 30
BRANCH 24 34
ATOM     34   C  A00 X   2      98.325  88.730  38.4740  0.00  0.00     0.000 C
ATOM     35   O  A00 X   2      96.991  92.090  38.0450  0.00  0.00     0.000 OA
ATOM     36   O  A00 X   2      97.509  89.828  38.0200  0.00  0.00     0.000 O
ATOM     37   O  A00 X   2      96.662  90.775  39.9830  0.00  0.00     0.000 OA
ATOM     38   S  A00 X   2      97.557  91.116  38.9200  0.00  0.00     0.000 S
ATOM     39   O  A00 X   2      98.934  91.327  39.2530  0.00  0.00     0.000 OA
ENDBRANCH 24 34
BRANCH 20 40
ATOM     40  O4  A00 X   3      96.348  86.314  41.0070  0.00  0.00     0.000 O
BRANCH 40 44
ATOM     41  C1  A00 X   3      99.220  87.037  43.0940  0.00  0.00     0.000 C
ATOM     42  C2  A00 X   3      98.425  85.713  43.1170  0.00  0.00     0.000 C
ATOM     43  C3  A00 X   3      96.905  85.980  43.2650  0.00  0.00     0.000 C
ATOM     44  C4  A00 X   3      96.343  86.997  42.2790  0.00  0.00     0.000 C
ATOM     45  C5  A00 X   3      97.190  88.300  42.3170  0.00  0.00     0.000 C
ATOM     46  O5  A00 X   3      98.617  87.999  42.1850  0.00  0.00     0.000 O
ATOM     47   O  A00 X   3      96.078  84.825  43.3860  0.00  0.00     0.000 O
ATOM     49  HD  A00 X   3      95.549  85.290  42.8820  0.00  0.00     0.000 HD
BRANCH 42 49
ATOM     49   O  A00 X   3      98.723  85.019  41.8860  0.00  0.00     0.000 O
ATOM     50   O  A00 X   3      98.028  82.984  40.8330  0.00  0.00     0.000 OA
ATOM     51   O  A00 X   3      98.447  82.979  43.1600  0.00  0.00     0.000 OA
ATOM     52   O  A00 X   3     100.273  83.266  41.6870  0.00  0.00     0.000 OA
ATOM     53   S  A00 X   3      98.878  83.470  41.8740  0.00  0.00     0.000 S
ENDBRANCH 42 49
BRANCH 45 54
ATOM     54   C  A00 X   3      96.864  89.153  43.5480  0.00  0.00     0.000 C
ATOM     55   O  A00 X   3      96.190  88.703  44.4520  0.00  0.00     0.000 OA
ATOM     56   O  A00 X   3      97.275  90.300  43.6410  0.00  0.00     0.000 OA
ENDBRANCH 45 54
BRANCH 41 57
ATOM     57  O4  A00 X   4      99.445  87.548  44.4260  0.00  0.00     0.000 O
BRANCH 57 61
ATOM     58  C1  A00 X   4     102.697  89.754  46.2150  0.00  0.00     0.000 C
ATOM     59  C2  A00 X   4     101.929  90.395  45.0310  0.00  0.00     0.000 C
ATOM     60  C3  A00 X   4     100.590  89.697  44.7180  0.00  0.00     0.000 C
ATOM     61  C4  A00 X   4     100.748  88.163  44.6410  0.00  0.00     0.000 C
ATOM     62  C5  A00 X   4     101.333  87.716  46.0030  0.00  0.00     0.000 C
ATOM     63  O5  A00 X   4     102.645  88.310  46.1760  0.00  0.00     0.000 O
BRANCH 59 66
ATOM     64   N  A00 X   4     102.716  90.300  43.7890  0.00  0.00     0.000 N
ATOM     66  HD  A00 X   4     103.271  89.639  43.7160  0.00  0.00     0.000 HD
ATOM     66   O  A00 X   4     103.930  92.244  44.5280  0.00  0.00     0.000 OA
ATOM     67   S  A00 X   4     103.548  91.584  43.3200  0.00  0.00     0.000 S
ATOM     68   O  A00 X   4     104.613  90.952  42.5980  0.00  0.00     0.000 OA
ATOM     69   O  A00 X   4     102.572  92.227  42.4850  0.00  0.00     0.000 OA
ENDBRANCH 59 66
BRANCH 62 70
ATOM     70   C  A00 X   4     101.463  86.182  46.1620  0.00  0.00     0.000 C
ATOM     71   O  A00 X   4     103.733  83.918  44.4810  0.00  0.00     0.000 OA
ATOM     72   O  A00 X   4     101.404  83.797  44.8020  0.00  0.00     0.000 OA
ATOM     73   O  A00 X   4     102.652  85.734  45.4920  0.00  0.00     0.000 O
ATOM     74   O  A00 X   4     102.313  85.331  43.1410  0.00  0.00     0.000 OA
ATOM     75   S  A00 X   4     102.498  84.642  44.3770  0.00  0.00     0.000 S
ENDBRANCH 62 70
ENDBRANCH 57 61
ENDBRANCH 41 57
ENDBRANCH 40 44
ENDBRANCH 20 40
ENDBRANCH 19 23
ENDBRANCH 1 19
TORSDOF 14
ENDMDL
MODEL 44
REMARK VINA RESULT:      -0.3    116.868    120.636
ROOT
ATOM      1  C1  A00 X   1     106.505  55.664  91.9120  0.00  0.00     0.000 C
ATOM      2  C2  A00 X   1     107.935  55.668  91.3080  0.00  0.00     0.000 C
ATOM      3  C3  A00 X   1     108.206  56.730  90.1920  0.00  0.00     0.000 C
ATOM      4  C4  A00 X   1     106.945  57.387  89.5740  0.00  0.00     0.000 C
ATOM      5  C5  A00 X   1     105.697  56.524  89.7550  0.00  0.00     0.000 C
ATOM      6  O5  A00 X   1     105.516  56.436  91.1860  0.00  0.00     0.000 O
ATOM      7   O  A00 X   1     108.901  56.099  89.1190  0.00  0.00     0.000 O
ATOM      9  HD  A00 X   1     108.311  56.625  88.7660  0.00  0.00     0.000 HD
ATOM      9   O  A00 X   1     106.716  58.688  90.1150  0.00  0.00     0.000 O
ATOM     11  HD  A00 X   1     106.125  59.214  89.7630  0.00  0.00     0.000 HD
ENDROOT
BRANCH 2 11
ATOM     11   O  A00 X   1     108.867  55.873  92.3880  0.00  0.00     0.000 O
ATOM     12   O  A00 X   1     111.208  56.233  91.9930  0.00  0.00     0.000 OA
ATOM     13   O  A00 X   1     110.210  54.104  91.3710  0.00  0.00     0.000 OA
ATOM     14   O  A00 X   1     110.437  54.706  93.6620  0.00  0.00     0.000 OA
ATOM     15   S  A00 X   1     110.273  55.185  92.3160  0.00  0.00     0.000 S
ENDBRANCH 2 11
BRANCH 5 16
ATOM     16   C  A00 X   1     105.745  55.161  89.0580  0.00  0.00     0.000 C
ATOM     17   O  A00 X   1     104.895  54.339  89.3300  0.00  0.00     0.000 OA
ATOM     18   O  A00 X   1     106.597  54.877  88.2390  0.00  0.00     0.000 OA
ENDBRANCH 5 16
BRANCH 1 19
ATOM     19  O4  A00 X   2     106.023  54.330  92.2050  0.00  0.00     0.000 O
BRANCH 19 23
ATOM     20  C1  A00 X   2     104.140  55.484  95.8770  0.00  0.00     0.000 C
ATOM     21  C2  A00 X   2     105.548  54.847  95.9660  0.00  0.00     0.000 C
ATOM     22  C3  A00 X   2     106.257  54.890  94.5960  0.00  0.00     0.000 C
ATOM     23  C4  A00 X   2     105.374  54.243  93.5060  0.00  0.00     0.000 C
ATOM     24  C5  A00 X   2     103.992  54.953  93.5320  0.00  0.00     0.000 C
ATOM     25  O5  A00 X   2     103.401  54.777  94.8460  0.00  0.00     0.000 O
ATOM     26   O  A00 X   2     107.582  54.353  94.7460  0.00  0.00     0.000 O
ATOM     28  HD  A00 X   2     107.302  53.640  95.1500  0.00  0.00     0.000 HD
BRANCH 21 30
ATOM     28   N  A00 X   2     105.143  54.218  97.2270  0.00  0.00     0.000 N
ATOM     30  HD  A00 X   2     106.007  54.168  97.1870  0.00  0.00     0.000 HD
ATOM     30   O  A00 X   2     107.033  54.039  98.5890  0.00  0.00     0.000 OA
ATOM     31   S  A00 X   2     106.126  53.185  97.9080  0.00  0.00     0.000 S
ATOM     32   O  A00 X   2     105.271  52.412  98.7560  0.00  0.00     0.000 OA
ATOM     33   O  A00 X   2     106.667  52.364  96.8660  0.00  0.00     0.000 OA
ENDBRANCH 21 30
BRANCH 24 34
ATOM     34   C  A00 X   2     102.999  54.649  92.3850  0.00  0.00     0.000 C
ATOM     35   O  A00 X   2      99.771  53.033  92.8550  0.00  0.00     0.000 OA
ATOM     36   O  A00 X   2     101.991  53.707  92.8020  0.00  0.00     0.000 O
ATOM     37   O  A00 X   2     100.442  54.998  93.9870  0.00  0.00     0.000 OA
ATOM     38   S  A00 X   2     100.515  54.247  92.7710  0.00  0.00     0.000 S
ATOM     39   O  A00 X   2     100.371  54.963  91.5390  0.00  0.00     0.000 OA
ENDBRANCH 24 34
BRANCH 20 40
ATOM     40  O4  A00 X   3     104.353  56.843  95.4690  0.00  0.00     0.000 O
BRANCH 40 44
ATOM     41  C1  A00 X   3     103.352  59.584  93.3230  0.00  0.00     0.000 C
ATOM     42  C2  A00 X   3     104.527  59.633  94.3230  0.00  0.00     0.000 C
ATOM     43  C3  A00 X   3     104.079  59.161  95.7300  0.00  0.00     0.000 C
ATOM     44  C4  A00 X   3     103.337  57.831  95.7450  0.00  0.00     0.000 C
ATOM     45  C5  A00 X   3     102.169  57.861  94.7190  0.00  0.00     0.000 C
ATOM     46  O5  A00 X   3     102.635  58.321  93.4100  0.00  0.00     0.000 O
ATOM     47   O  A00 X   3     105.063  59.247  96.7590  0.00  0.00     0.000 O
ATOM     49  HD  A00 X   3     104.711  58.494  97.0020  0.00  0.00     0.000 HD
BRANCH 42 49
ATOM     49   O  A00 X   3     105.571  58.789  93.7910  0.00  0.00     0.000 O
ATOM     50   O  A00 X   3     107.746  58.074  94.4910  0.00  0.00     0.000 OA
ATOM     51   O  A00 X   3     107.122  60.328  94.8330  0.00  0.00     0.000 OA
ATOM     52   O  A00 X   3     107.448  59.572  92.6170  0.00  0.00     0.000 OA
ATOM     53   S  A00 X   3     107.065  59.201  93.9360  0.00  0.00     0.000 S
ENDBRANCH 42 49
BRANCH 45 54
ATOM     54   C  A00 X   3     100.970  58.658  95.2470  0.00  0.00     0.000 C
ATOM     55   O  A00 X   3     101.061  59.309  96.2680  0.00  0.00     0.000 OA
ATOM     56   O  A00 X   3      99.904  58.650  94.6520  0.00  0.00     0.000 OA
ENDBRANCH 45 54
BRANCH 41 57
ATOM     57  O4  A00 X   4     102.505  60.749  93.4370  0.00  0.00     0.000 O
BRANCH 57 61
ATOM     58  C1  A00 X   4     100.217  63.013  90.5590  0.00  0.00     0.000 C
ATOM     59  C2  A00 X   4      99.860  61.522  90.7820  0.00  0.00     0.000 C
ATOM     60  C3  A00 X   4     100.483  60.925  92.0610  0.00  0.00     0.000 C
ATOM     61  C4  A00 X   4     101.986  61.262  92.1770  0.00  0.00     0.000 C
ATOM     62  C5  A00 X   4     102.090  62.807  92.1430  0.00  0.00     0.000 C
ATOM     63  O5  A00 X   4     101.603  63.290  90.8650  0.00  0.00     0.000 O
BRANCH 59 66
ATOM     64   N  A00 X   4     100.378  60.699  89.6740  0.00  0.00     0.000 N
ATOM     66  HD  A00 X   4     101.082  60.984  89.2590  0.00  0.00     0.000 HD
ATOM     66   O  A00 X   4      98.429  61.347  88.4160  0.00  0.00     0.000 OA
ATOM     67   S  A00 X   4      99.365  60.271  88.5120  0.00  0.00     0.000 S
ATOM     68   O  A00 X   4     100.275  60.144  87.4110  0.00  0.00     0.000 OA
ATOM     69   O  A00 X   4      98.895  59.019  89.0340  0.00  0.00     0.000 OA
ENDBRANCH 59 66
BRANCH 62 70
ATOM     70   C  A00 X   4     103.524  63.348  92.3590  0.00  0.00     0.000 C
ATOM     71   O  A00 X   4     106.375  63.151  90.1370  0.00  0.00     0.000 OA
ATOM     72   O  A00 X   4     106.176  62.639  92.4260  0.00  0.00     0.000 OA
ATOM     73   O  A00 X   4     104.253  63.266  91.1240  0.00  0.00     0.000 O
ATOM     74   O  A00 X   4     105.261  61.107  90.7670  0.00  0.00     0.000 OA
ATOM     75   S  A00 X   4     105.593  62.451  91.1170  0.00  0.00     0.000 S
ENDBRANCH 62 70
ENDBRANCH 57 61
ENDBRANCH 41 57
ENDBRANCH 40 44
ENDBRANCH 20 40
ENDBRANCH 19 23
ENDBRANCH 1 19
TORSDOF 14
ENDMDL
MODEL 45
REMARK VINA RESULT:      -0.3     78.049     82.501
ROOT
ATOM      1  C1  A00 X   1      27.697  79.049  73.4790  0.00  0.00     0.000 C
ATOM      2  C2  A00 X   1      26.818  78.515  74.6410  0.00  0.00     0.000 C
ATOM      3  C3  A00 X   1      25.639  77.571  74.2330  0.00  0.00     0.000 C
ATOM      4  C4  A00 X   1      25.267  77.578  72.7280  0.00  0.00     0.000 C
ATOM      5  C5  A00 X   1      25.722  78.859  72.0270  0.00  0.00     0.000 C
ATOM      6  O5  A00 X   1      27.162  78.851  72.1470  0.00  0.00     0.000 O
ATOM      7   O  A00 X   1      24.468  77.971  74.9410  0.00  0.00     0.000 O
ATOM      9  HD  A00 X   1      24.225  77.785  74.1310  0.00  0.00     0.000 HD
ATOM      9   O  A00 X   1      25.804  76.442  72.0520  0.00  0.00     0.000 O
ATOM     11  HD  A00 X   1      25.562  76.256  71.2420  0.00  0.00     0.000 HD
ENDROOT
BRANCH 2 11
ATOM     11   O  A00 X   1      27.682  77.817  75.5590  0.00  0.00     0.000 O
ATOM     12   O  A00 X   1      26.814  76.564  77.4150  0.00  0.00     0.000 OA
ATOM     13   O  A00 X   1      26.478  78.972  77.3430  0.00  0.00     0.000 OA
ATOM     14   O  A00 X   1      28.654  78.068  77.6660  0.00  0.00     0.000 OA
ATOM     15   S  A00 X   1      27.353  77.860  77.0910  0.00  0.00     0.000 S
ENDBRANCH 2 11
BRANCH 5 16
ATOM     16   C  A00 X   1      25.070  80.146  72.5430  0.00  0.00     0.000 C
ATOM     17   O  A00 X   1      25.528  81.212  72.1860  0.00  0.00     0.000 OA
ATOM     18   O  A00 X   1      24.111  80.138  73.2880  0.00  0.00     0.000 OA
ENDBRANCH 5 16
BRANCH 1 19
ATOM     19  O4  A00 X   2      28.121  80.419  73.6790  0.00  0.00     0.000 O
BRANCH 19 23
ATOM     20  C1  A00 X   2      32.059  79.749  72.1280  0.00  0.00     0.000 C
ATOM     21  C2  A00 X   2      31.885  79.733  73.6660  0.00  0.00     0.000 C
ATOM     22  C3  A00 X   2      30.401  79.552  74.0490  0.00  0.00     0.000 C
ATOM     23  C4  A00 X   2      29.527  80.622  73.3570  0.00  0.00     0.000 C
ATOM     24  C5  A00 X   2      29.806  80.549  71.8310  0.00  0.00     0.000 C
ATOM     25  O5  A00 X   2      31.215  80.807  71.6000  0.00  0.00     0.000 O
ATOM     26   O  A00 X   2      30.300  79.474  75.4810  0.00  0.00     0.000 O
ATOM     28  HD  A00 X   2      30.773  80.190  75.6030  0.00  0.00     0.000 HD
BRANCH 21 30
ATOM     28   N  A00 X   2      33.219  80.329  73.7850  0.00  0.00     0.000 N
ATOM     30  HD  A00 X   2      33.010  80.023  74.5680  0.00  0.00     0.000 HD
ATOM     30   O  A00 X   2      34.184  79.561  75.7690  0.00  0.00     0.000 OA
ATOM     31   S  A00 X   2      33.722  80.783  75.2140  0.00  0.00     0.000 S
ATOM     32   O  A00 X   2      34.744  81.740  74.9250  0.00  0.00     0.000 OA
ATOM     33   O  A00 X   2      32.617  81.417  75.8700  0.00  0.00     0.000 OA
ENDBRANCH 21 30
BRANCH 24 34
ATOM     34   C  A00 X   2      28.888  81.360  70.8860  0.00  0.00     0.000 C
ATOM     35   O  A00 X   2      30.050  84.054  68.7300  0.00  0.00     0.000 OA
ATOM     36   O  A00 X   2      29.537  82.566  70.4360  0.00  0.00     0.000 O
ATOM     37   O  A00 X   2      30.935  81.862  68.6980  0.00  0.00     0.000 OA
ATOM     38   S  A00 X   2      29.766  82.665  68.8830  0.00  0.00     0.000 S
ATOM     39   O  A00 X   2      28.552  82.223  68.2660  0.00  0.00     0.000 OA
ENDBRANCH 24 34
BRANCH 20 40
ATOM     40  O4  A00 X   3      31.578  78.478  71.6690  0.00  0.00     0.000 O
BRANCH 40 44
ATOM     41  C1  A00 X   3      29.613  76.640  69.2430  0.00  0.00     0.000 C
ATOM     42  C2  A00 X   3      30.348  76.005  70.4430  0.00  0.00     0.000 C
ATOM     43  C3  A00 X   3      31.829  76.461  70.4910  0.00  0.00     0.000 C
ATOM     44  C4  A00 X   3      32.031  77.968  70.3970  0.00  0.00     0.000 C
ATOM     45  C5  A00 X   3      31.268  78.531  69.1660  0.00  0.00     0.000 C
ATOM     46  O5  A00 X   3      29.879  78.068  69.1550  0.00  0.00     0.000 O
ATOM     47   O  A00 X   3      32.631  75.867  71.5110  0.00  0.00     0.000 O
ATOM     49  HD  A00 X   3      32.961  76.666  71.5590  0.00  0.00     0.000 HD
BRANCH 42 49
ATOM     49   O  A00 X   3      29.635  76.401  71.6340  0.00  0.00     0.000 O
ATOM     50   O  A00 X   3      29.888  76.079  73.9930  0.00  0.00     0.000 OA
ATOM     51   O  A00 X   3      30.289  74.255  72.5430  0.00  0.00     0.000 OA
ATOM     52   O  A00 X   3      28.076  75.055  72.7620  0.00  0.00     0.000 OA
ATOM     53   S  A00 X   3      29.454  75.400  72.8120  0.00  0.00     0.000 S
ENDBRANCH 42 49
BRANCH 45 54
ATOM     54   C  A00 X   3      32.010  78.242  67.8560  0.00  0.00     0.000 C
ATOM     55   O  A00 X   3      32.999  77.537  67.8480  0.00  0.00     0.000 OA
ATOM     56   O  A00 X   3      31.622  78.715  66.7990  0.00  0.00     0.000 OA
ENDBRANCH 45 54
BRANCH 41 57
ATOM     57  O4  A00 X   4      29.869  75.919  68.0170  0.00  0.00     0.000 O
BRANCH 57 61
ATOM     58  C1  A00 X   4      27.462  75.111  64.5250  0.00  0.00     0.000 C
ATOM     59  C2  A00 X   4      27.791  76.584  64.8740  0.00  0.00     0.000 C
ATOM     60  C3  A00 X   4      28.930  76.732  65.9030  0.00  0.00     0.000 C
ATOM     61  C4  A00 X   4      28.729  75.802  67.1190  0.00  0.00     0.000 C
ATOM     62  C5  A00 X   4      28.635  74.362  66.5560  0.00  0.00     0.000 C
ATOM     63  O5  A00 X   4      27.472  74.261  65.6950  0.00  0.00     0.000 O
BRANCH 59 66
ATOM     64   N  A00 X   4      26.635  77.264  65.4860  0.00  0.00     0.000 N
ATOM     66  HD  A00 X   4      26.075  76.777  65.9330  0.00  0.00     0.000 HD
ATOM     66   O  A00 X   4      25.772  77.582  63.2610  0.00  0.00     0.000 OA
ATOM     67   S  A00 X   4      25.720  78.188  64.5550  0.00  0.00     0.000 S
ATOM     68   O  A00 X   4      24.464  78.078  65.2370  0.00  0.00     0.000 OA
ATOM     69   O  A00 X   4      26.376  79.452  64.7290  0.00  0.00     0.000 OA
ENDBRANCH 59 66
BRANCH 62 70
ATOM     70   C  A00 X   4      28.541  73.264  67.6410  0.00  0.00     0.000 C
ATOM     71   O  A00 X   4      25.794  72.530  69.8830  0.00  0.00     0.000 OA
ATOM     72   O  A00 X   4      28.091  72.819  70.3140  0.00  0.00     0.000 OA
ATOM     73   O  A00 X   4      27.187  73.179  68.1140  0.00  0.00     0.000 O
ATOM     74   O  A00 X   4      26.697  74.766  69.8600  0.00  0.00     0.000 OA
ATOM     75   S  A00 X   4      26.932  73.374  69.6490  0.00  0.00     0.000 S
ENDBRANCH 62 70
ENDBRANCH 57 61
ENDBRANCH 41 57
ENDBRANCH 40 44
ENDBRANCH 20 40
ENDBRANCH 19 23
ENDBRANCH 1 19
TORSDOF 14
ENDMDL
MODEL 46
REMARK VINA RESULT:      -0.3     48.060     51.662
ROOT
ATOM      1  C1  A00 X   1      54.698  30.608  45.2750  0.00  0.00     0.000 C
ATOM      2  C2  A00 X   1      54.251  29.309  45.9960  0.00  0.00     0.000 C
ATOM      3  C3  A00 X   1      53.725  29.481  47.4590  0.00  0.00     0.000 C
ATOM      4  C4  A00 X   1      54.051  30.840  48.1310  0.00  0.00     0.000 C
ATOM      5  C5  A00 X   1      55.254  31.529  47.4860  0.00  0.00     0.000 C
ATOM      6  O5  A00 X   1      54.847  31.775  46.1210  0.00  0.00     0.000 O
ATOM      7   O  A00 X   1      54.312  28.473  48.2780  0.00  0.00     0.000 O
ATOM      9  HD  A00 X   1      54.318  29.208  48.7350  0.00  0.00     0.000 HD
ATOM      9   O  A00 X   1      52.925  31.716  48.1110  0.00  0.00     0.000 O
ATOM     11  HD  A00 X   1      52.931  32.452  48.5680  0.00  0.00     0.000 HD
ENDROOT
BRANCH 2 11
ATOM     11   O  A00 X   1      53.222  28.695  45.1970  0.00  0.00     0.000 O
ATOM     12   O  A00 X   1      51.989  26.782  45.9640  0.00  0.00     0.000 OA
ATOM     13   O  A00 X   1      54.383  26.581  45.5850  0.00  0.00     0.000 OA
ATOM     14   O  A00 X   1      52.895  26.887  43.7550  0.00  0.00     0.000 OA
ATOM     15   S  A00 X   1      53.128  27.131  45.1530  0.00  0.00     0.000 S
ENDBRANCH 2 11
BRANCH 5 16
ATOM     16   C  A00 X   1      56.577  30.766  47.6030  0.00  0.00     0.000 C
ATOM     17   O  A00 X   1      57.524  31.139  46.9410  0.00  0.00     0.000 OA
ATOM     18   O  A00 X   1      56.715  29.808  48.3380  0.00  0.00     0.000 OA
ENDBRANCH 5 16
BRANCH 1 19
ATOM     19  O4  A00 X   2      55.862  30.412  44.4350  0.00  0.00     0.000 O
BRANCH 19 23
ATOM     20  C1  A00 X   2      54.409  32.951  41.3030  0.00  0.00     0.000 C
ATOM     21  C2  A00 X   2      54.212  31.425  41.1350  0.00  0.00     0.000 C
ATOM     22  C3  A00 X   2      54.377  30.698  42.4860  0.00  0.00     0.000 C
ATOM     23  C4  A00 X   2      55.730  31.060  43.1370  0.00  0.00     0.000 C
ATOM     24  C5  A00 X   2      55.812  32.608  43.2320  0.00  0.00     0.000 C
ATOM     25  O5  A00 X   2      55.719  33.164  41.8940  0.00  0.00     0.000 O
ATOM     26   O  A00 X   2      54.117  29.297  42.2900  0.00  0.00     0.000 O
ATOM     28  HD  A00 X   2      54.656  29.240  41.6150  0.00  0.00     0.000 HD
BRANCH 21 30
ATOM     28   N  A00 X   2      54.409  31.597  39.6930  0.00  0.00     0.000 N
ATOM     30  HD  A00 X   2      54.056  30.814  39.8060  0.00  0.00     0.000 HD
ATOM     30   O  A00 X   2      53.127  29.987  38.5870  0.00  0.00     0.000 OA
ATOM     31   S  A00 X   2      54.496  30.309  38.7800  0.00  0.00     0.000 S
ATOM     32   O  A00 X   2      55.180  30.767  37.6110  0.00  0.00     0.000 OA
ATOM     33   O  A00 X   2      55.297  29.348  39.4800  0.00  0.00     0.000 OA
ENDBRANCH 21 30
BRANCH 24 34
ATOM     34   C  A00 X   2      56.968  33.225  44.0550  0.00  0.00     0.000 C
ATOM     35   O  A00 X   2      59.616  35.279  42.6320  0.00  0.00     0.000 OA
ATOM     36   O  A00 X   2      58.037  33.675  43.1990  0.00  0.00     0.000 O
ATOM     37   O  A00 X   2      57.310  35.752  42.4050  0.00  0.00     0.000 OA
ATOM     38   S  A00 X   2      58.333  35.219  43.2520  0.00  0.00     0.000 S
ATOM     39   O  A00 X   2      58.309  35.589  44.6350  0.00  0.00     0.000 OA
ENDBRANCH 24 34
BRANCH 20 40
ATOM     40  O4  A00 X   3      53.393  33.374  42.2240  0.00  0.00     0.000 O
BRANCH 40 44
ATOM     41  C1  A00 X   3      52.514  35.356  45.1260  0.00  0.00     0.000 C
ATOM     42  C2  A00 X   3      51.537  34.442  44.3560  0.00  0.00     0.000 C
ATOM     43  C3  A00 X   3      51.580  34.738  42.8350  0.00  0.00     0.000 C
ATOM     44  C4  A00 X   3      52.980  34.758  42.2340  0.00  0.00     0.000 C
ATOM     45  C5  A00 X   3      53.900  35.701  43.0580  0.00  0.00     0.000 C
ATOM     46  O5  A00 X   3      53.820  35.393  44.4870  0.00  0.00     0.000 O
ATOM     47   O  A00 X   3      50.653  34.011  42.0320  0.00  0.00     0.000 O
ATOM     49  HD  A00 X   3      51.323  33.983  41.4830  0.00  0.00     0.000 HD
BRANCH 42 49
ATOM     49   O  A00 X   3      51.921  33.079  44.6400  0.00  0.00     0.000 O
ATOM     50   O  A00 X   3      51.166  30.898  44.0030  0.00  0.00     0.000 OA
ATOM     51   O  A00 X   3      49.561  32.558  44.5080  0.00  0.00     0.000 OA
ATOM     52   O  A00 X   3      50.904  31.719  46.2620  0.00  0.00     0.000 OA
ATOM     53   S  A00 X   3      50.835  31.987  44.8670  0.00  0.00     0.000 S
ENDBRANCH 42 49
BRANCH 45 54
ATOM     54   C  A00 X   3      53.628  37.177  42.7430  0.00  0.00     0.000 C
ATOM     55   O  A00 X   3      54.372  38.044  43.1530  0.00  0.00     0.000 OA
ATOM     56   O  A00 X   3      52.659  37.506  42.0760  0.00  0.00     0.000 OA
ENDBRANCH 45 54
BRANCH 41 57
ATOM     57  O4  A00 X   4      51.943  36.662  45.3700  0.00  0.00     0.000 O
BRANCH 57 61
ATOM     58  C1  A00 X   4      52.406  39.519  48.5740  0.00  0.00     0.000 C
ATOM     59  C2  A00 X   4      53.651  39.139  47.7330  0.00  0.00     0.000 C
ATOM     60  C3  A00 X   4      53.306  38.409  46.4190  0.00  0.00     0.000 C
ATOM     61  C4  A00 X   4      52.298  37.262  46.6480  0.00  0.00     0.000 C
ATOM     62  C5  A00 X   4      51.050  37.903  47.3040  0.00  0.00     0.000 C
ATOM     63  O5  A00 X   4      51.421  38.461  48.5910  0.00  0.00     0.000 O
BRANCH 59 66
ATOM     64   N  A00 X   4      54.488  38.206  48.5080  0.00  0.00     0.000 N
ATOM     66  HD  A00 X   4      54.093  37.709  49.0970  0.00  0.00     0.000 HD
ATOM     66   O  A00 X   4      55.422  40.125  49.6220  0.00  0.00     0.000 OA
ATOM     67   S  A00 X   4      55.774  38.787  49.2610  0.00  0.00     0.000 S
ATOM     68   O  A00 X   4      55.876  37.861  50.3500  0.00  0.00     0.000 OA
ATOM     69   O  A00 X   4      56.767  38.608  48.2400  0.00  0.00     0.000 OA
ENDBRANCH 59 66
BRANCH 62 70
ATOM     70   C  A00 X   4      49.872  36.922  47.5140  0.00  0.00     0.000 C
ATOM     71   O  A00 X   4      49.631  34.138  49.8160  0.00  0.00     0.000 OA
ATOM     72   O  A00 X   4      49.169  34.267  47.5110  0.00  0.00     0.000 OA
ATOM     73   O  A00 X   4      50.113  36.137  48.6930  0.00  0.00     0.000 O
ATOM     74   O  A00 X   4      51.483  34.200  48.2730  0.00  0.00     0.000 OA
ATOM     75   S  A00 X   4      50.133  34.576  48.5440  0.00  0.00     0.000 S
ENDBRANCH 62 70
ENDBRANCH 57 61
ENDBRANCH 41 57
ENDBRANCH 40 44
ENDBRANCH 20 40
ENDBRANCH 19 23
ENDBRANCH 1 19
TORSDOF 14
ENDMDL
MODEL 47
REMARK VINA RESULT:      -0.3    111.957    117.074
ROOT
ATOM      1  C1  A00 X   1     105.287  71.983  42.5940  0.00  0.00     0.000 C
ATOM      2  C2  A00 X   1     103.943  71.557  43.2420  0.00  0.00     0.000 C
ATOM      3  C3  A00 X   1     103.070  72.711  43.8370  0.00  0.00     0.000 C
ATOM      4  C4  A00 X   1     103.800  74.064  44.0390  0.00  0.00     0.000 C
ATOM      5  C5  A00 X   1     105.315  73.893  44.1420  0.00  0.00     0.000 C
ATOM      6  O5  A00 X   1     105.710  73.342  42.8660  0.00  0.00     0.000 O
ATOM      7   O  A00 X   1     102.596  72.311  45.1200  0.00  0.00     0.000 O
ATOM      9  HD  A00 X   1     102.831  73.142  45.1820  0.00  0.00     0.000 HD
ATOM      9   O  A00 X   1     103.489  74.986  42.9950  0.00  0.00     0.000 O
ATOM     11  HD  A00 X   1     103.723  75.818  43.0570  0.00  0.00     0.000 HD
ENDROOT
BRANCH 2 11
ATOM     11   O  A00 X   1     103.177  70.857  42.2420  0.00  0.00     0.000 O
ATOM     12   O  A00 X   1     100.896  70.204  42.6160  0.00  0.00     0.000 OA
ATOM     13   O  A00 X   1     102.654  69.232  43.9880  0.00  0.00     0.000 OA
ATOM     14   O  A00 X   1     102.496  68.697  41.6760  0.00  0.00     0.000 OA
ATOM     15   S  A00 X   1     102.238  69.684  42.6890  0.00  0.00     0.000 S
ENDBRANCH 2 11
BRANCH 5 16
ATOM     16   C  A00 X   1     105.794  73.068  45.3410  0.00  0.00     0.000 C
ATOM     17   O  A00 X   1     106.950  72.701  45.3690  0.00  0.00     0.000 OA
ATOM     18   O  A00 X   1     105.061  72.775  46.2650  0.00  0.00     0.000 OA
ENDBRANCH 5 16
BRANCH 1 19
ATOM     19  O4  A00 X   2     106.356  71.037  42.8440  0.00  0.00     0.000 O
BRANCH 19 23
ATOM     20  C1  A00 X   2     108.019  71.404  38.9120  0.00  0.00     0.000 C
ATOM     21  C2  A00 X   2     107.074  70.208  39.1790  0.00  0.00     0.000 C
ATOM     22  C3  A00 X   2     106.235  70.444  40.4520  0.00  0.00     0.000 C
ATOM     23  C4  A00 X   2     107.151  70.765  41.6550  0.00  0.00     0.000 C
ATOM     24  C5  A00 X   2     108.056  71.963  41.2550  0.00  0.00     0.000 C
ATOM     25  O5  A00 X   2     108.842  71.588  40.0940  0.00  0.00     0.000 O
ATOM     26   O  A00 X   2     105.329  69.340  40.6180  0.00  0.00     0.000 O
ATOM     28  HD  A00 X   2     105.953  68.748  40.5250  0.00  0.00     0.000 HD
BRANCH 21 30
ATOM     28   N  A00 X   2     107.892  69.407  38.2630  0.00  0.00     0.000 N
ATOM     30  HD  A00 X   2     107.147  68.979  38.3730  0.00  0.00     0.000 HD
ATOM     30   O  A00 X   2     106.497  67.853  37.2130  0.00  0.00     0.000 OA
ATOM     31   S  A00 X   2     107.585  67.862  38.1260  0.00  0.00     0.000 S
ATOM     32   O  A00 X   2     108.805  67.318  37.6160  0.00  0.00     0.000 OA
ATOM     33   O  A00 X   2     107.330  67.363  39.4440  0.00  0.00     0.000 OA
ENDBRANCH 21 30
BRANCH 24 34
ATOM     34   C  A00 X   2     108.906  72.631  42.3620  0.00  0.00     0.000 C
ATOM     35   O  A00 X   2     112.546  72.700  42.3750  0.00  0.00     0.000 OA
ATOM     36   O  A00 X   2     110.281  72.202  42.2950  0.00  0.00     0.000 O
ATOM     37   O  A00 X   2     111.216  73.509  40.5950  0.00  0.00     0.000 OA
ATOM     38   S  A00 X   2     111.326  73.343  42.0120  0.00  0.00     0.000 S
ATOM     39   O  A00 X   2     110.952  74.449  42.8410  0.00  0.00     0.000 OA
ENDBRANCH 24 34
BRANCH 20 40
ATOM     40  O4  A00 X   3     107.163  72.544  38.7410  0.00  0.00     0.000 O
BRANCH 40 44
ATOM     41  C1  A00 X   3     106.507  76.029  39.4810  0.00  0.00     0.000 C
ATOM     42  C2  A00 X   3     105.589  75.121  38.6350  0.00  0.00     0.000 C
ATOM     43  C3  A00 X   3     106.393  74.399  37.5230  0.00  0.00     0.000 C
ATOM     44  C4  A00 X   3     107.650  73.689  38.0100  0.00  0.00     0.000 C
ATOM     45  C5  A00 X   3     108.523  74.667  38.8470  0.00  0.00     0.000 C
ATOM     46  O5  A00 X   3     107.721  75.332  39.8760  0.00  0.00     0.000 O
ATOM     47   O  A00 X   3     105.631  73.598  36.6220  0.00  0.00     0.000 O
ATOM     49  HD  A00 X   3     106.314  73.071  36.6900  0.00  0.00     0.000 HD
BRANCH 42 49
ATOM     49   O  A00 X   3     104.976  74.177  39.5400  0.00  0.00     0.000 O
ATOM     50   O  A00 X   3     103.486  72.313  39.3520  0.00  0.00     0.000 OA
ATOM     51   O  A00 X   3     103.063  74.246  38.0600  0.00  0.00     0.000 OA
ATOM     52   O  A00 X   3     102.802  74.380  40.4050  0.00  0.00     0.000 OA
ATOM     53   S  A00 X   3     103.495  73.742  39.3390  0.00  0.00     0.000 S
ENDBRANCH 42 49
BRANCH 45 54
ATOM     54   C  A00 X   3     109.292  75.647  37.9540  0.00  0.00     0.000 C
ATOM     55   O  A00 X   3     110.149  76.369  38.4220  0.00  0.00     0.000 OA
ATOM     56   O  A00 X   3     109.056  75.721  36.7580  0.00  0.00     0.000 OA
ENDBRANCH 45 54
BRANCH 41 57
ATOM     57  O4  A00 X   4     106.743  77.300  38.8350  0.00  0.00     0.000 O
BRANCH 57 61
ATOM     58  C1  A00 X   4     107.354  81.297  40.3480  0.00  0.00     0.000 C
ATOM     59  C2  A00 X   4     108.373  80.195  40.7320  0.00  0.00     0.000 C
ATOM     60  C3  A00 X   4     108.263  78.926  39.8620  0.00  0.00     0.000 C
ATOM     61  C4  A00 X   4     106.802  78.446  39.7300  0.00  0.00     0.000 C
ATOM     62  C5  A00 X   4     106.006  79.634  39.1330  0.00  0.00     0.000 C
ATOM     63  O5  A00 X   4     106.047  80.749  40.0600  0.00  0.00     0.000 O
BRANCH 59 66
ATOM     64   N  A00 X   4     108.144  79.741  42.1150  0.00  0.00     0.000 N
ATOM     66  HD  A00 X   4     107.338  79.803  42.4280  0.00  0.00     0.000 HD
ATOM     66   O  A00 X   4     109.401  81.660  42.8470  0.00  0.00     0.000 OA
ATOM     67   S  A00 X   4     109.076  80.335  43.2720  0.00  0.00     0.000 S
ATOM     68   O  A00 X   4     108.186  80.246  44.3920  0.00  0.00     0.000 OA
ATOM     69   O  A00 X   4     110.127  79.357  43.2760  0.00  0.00     0.000 OA
ENDBRANCH 59 66
BRANCH 62 70
ATOM     70   C  A00 X   4     104.525  79.309  38.8210  0.00  0.00     0.000 C
ATOM     71   O  A00 X   4     101.813  78.673  41.1340  0.00  0.00     0.000 OA
ATOM     72   O  A00 X   4     102.522  77.476  39.2330  0.00  0.00     0.000 OA
ATOM     73   O  A00 X   4     103.758  79.378  40.0340  0.00  0.00     0.000 O
ATOM     74   O  A00 X   4     103.808  77.327  41.2980  0.00  0.00     0.000 OA
ATOM     75   S  A00 X   4     102.949  78.105  40.4640  0.00  0.00     0.000 S
ENDBRANCH 62 70
ENDBRANCH 57 61
ENDBRANCH 41 57
ENDBRANCH 40 44
ENDBRANCH 20 40
ENDBRANCH 19 23
ENDBRANCH 1 19
TORSDOF 14
ENDMDL
MODEL 48
REMARK VINA RESULT:      -0.3     97.144    101.068
ROOT
ATOM      1  C1  A00 X   1      82.314  65.018  80.2900  0.00  0.00     0.000 C
ATOM      2  C2  A00 X   1      83.260  63.956  79.6680  0.00  0.00     0.000 C
ATOM      3  C3  A00 X   1      82.628  62.553  79.3860  0.00  0.00     0.000 C
ATOM      4  C4  A00 X   1      81.271  62.279  80.0850  0.00  0.00     0.000 C
ATOM      5  C5  A00 X   1      81.067  63.163  81.3150  0.00  0.00     0.000 C
ATOM      6  O5  A00 X   1      81.055  64.513  80.7980  0.00  0.00     0.000 O
ATOM      7   O  A00 X   1      83.528  61.546  79.8400  0.00  0.00     0.000 O
ATOM      9  HD  A00 X   1      82.731  61.296  80.0650  0.00  0.00     0.000 HD
ATOM      9   O  A00 X   1      80.177  62.444  79.1840  0.00  0.00     0.000 O
ATOM     11  HD  A00 X   1      79.379  62.194  79.4100  0.00  0.00     0.000 HD
ENDROOT
BRANCH 2 11
ATOM     11   O  A00 X   1      83.774  64.495  78.4350  0.00  0.00     0.000 O
ATOM     12   O  A00 X   1      85.092  63.175  76.9220  0.00  0.00     0.000 OA
ATOM     13   O  A00 X   1      85.955  63.656  79.1450  0.00  0.00     0.000 OA
ATOM     14   O  A00 X   1      85.733  65.394  77.5370  0.00  0.00     0.000 OA
ATOM     15   S  A00 X   1      85.233  64.126  77.9950  0.00  0.00     0.000 S
ENDBRANCH 2 11
BRANCH 5 16
ATOM     16   C  A00 X   1      82.080  62.948  82.4440  0.00  0.00     0.000 C
ATOM     17   O  A00 X   1      82.114  63.749  83.3550  0.00  0.00     0.000 OA
ATOM     18   O  A00 X   1      82.842  62.002  82.4630  0.00  0.00     0.000 OA
ENDBRANCH 5 16
BRANCH 1 19
ATOM     19  O4  A00 X   2      82.979  65.859  81.2640  0.00  0.00     0.000 O
BRANCH 19 23
ATOM     20  C1  A00 X   2      80.960  69.427  80.0150  0.00  0.00     0.000 C
ATOM     21  C2  A00 X   2      82.385  69.181  79.4630  0.00  0.00     0.000 C
ATOM     22  C3  A00 X   2      82.795  67.704  79.6370  0.00  0.00     0.000 C
ATOM     23  C4  A00 X   2      82.639  67.267  81.1110  0.00  0.00     0.000 C
ATOM     24  C5  A00 X   2      81.182  67.581  81.5480  0.00  0.00     0.000 C
ATOM     25  O5  A00 X   2      80.948  69.006  81.4050  0.00  0.00     0.000 O
ATOM     26   O  A00 X   2      84.093  67.513  79.0490  0.00  0.00     0.000 O
ATOM     28  HD  A00 X   2      84.438  68.188  79.4680  0.00  0.00     0.000 HD
BRANCH 21 30
ATOM     28   N  A00 X   2      82.608  70.630  79.5020  0.00  0.00     0.000 N
ATOM     30  HD  A00 X   2      83.230  70.294  79.0010  0.00  0.00     0.000 HD
ATOM     30   O  A00 X   2      84.061  71.189  77.7590  0.00  0.00     0.000 OA
ATOM     31   S  A00 X   2      84.054  71.183  79.1790  0.00  0.00     0.000 S
ATOM     32   O  A00 X   2      84.064  72.477  79.7880  0.00  0.00     0.000 OA
ATOM     33   O  A00 X   2      84.993  70.319  79.8300  0.00  0.00     0.000 OA
ENDBRANCH 21 30
BRANCH 24 34
ATOM     34   C  A00 X   2      80.698  67.029  82.9090  0.00  0.00     0.000 C
ATOM     35   O  A00 X   2      79.697  69.120  85.7180  0.00  0.00     0.000 OA
ATOM     36   O  A00 X   2      80.713  68.054  83.9230  0.00  0.00     0.000 O
ATOM     37   O  A00 X   2      78.745  69.264  83.5580  0.00  0.00     0.000 OA
ATOM     38   S  A00 X   2      79.312  68.401  84.5480  0.00  0.00     0.000 S
ATOM     39   O  A00 X   2      78.657  67.151  84.7920  0.00  0.00     0.000 OA
ENDBRANCH 24 34
BRANCH 20 40
ATOM     40  O4  A00 X   3      80.095  68.576  79.2490  0.00  0.00     0.000 O
BRANCH 40 44
ATOM     41  C1  A00 X   3      77.332  66.233  79.2450  0.00  0.00     0.000 C
ATOM     42  C2  A00 X   3      78.129  66.655  77.9920  0.00  0.00     0.000 C
ATOM     43  C3  A00 X   3      78.219  68.200  77.8860  0.00  0.00     0.000 C
ATOM     44  C4  A00 X   3      78.690  68.896  79.1560  0.00  0.00     0.000 C
ATOM     45  C5  A00 X   3      77.839  68.424  80.3690  0.00  0.00     0.000 C
ATOM     46  O5  A00 X   3      77.773  66.962  80.4240  0.00  0.00     0.000 O
ATOM     47   O  A00 X   3      78.860  68.707  76.7180  0.00  0.00     0.000 O
ATOM     49  HD  A00 X   3      79.182  69.281  77.2810  0.00  0.00     0.000 HD
BRANCH 42 49
ATOM     49   O  A00 X   3      79.439  66.057  78.1020  0.00  0.00     0.000 O
ATOM     50   O  A00 X   3      81.465  66.076  76.8270  0.00  0.00     0.000 OA
ATOM     51   O  A00 X   3      79.400  65.920  75.6860  0.00  0.00     0.000 OA
ATOM     52   O  A00 X   3      80.100  64.088  77.0060  0.00  0.00     0.000 OA
ATOM     53   S  A00 X   3      80.157  65.499  76.8390  0.00  0.00     0.000 S
ENDBRANCH 42 49
BRANCH 45 54
ATOM     54   C  A00 X   3      76.459  69.091  80.3870  0.00  0.00     0.000 C
ATOM     55   O  A00 X   3      75.726  68.971  81.3480  0.00  0.00     0.000 OA
ATOM     56   O  A00 X   3      76.071  69.752  79.4370  0.00  0.00     0.000 OA
ENDBRANCH 45 54
BRANCH 41 57
ATOM     57  O4  A00 X   4      75.906  66.294  79.0170  0.00  0.00     0.000 O
BRANCH 57 61
ATOM     58  C1  A00 X   4      72.591  63.946  80.4780  0.00  0.00     0.000 C
ATOM     59  C2  A00 X   4      73.441  64.743  81.4980  0.00  0.00     0.000 C
ATOM     60  C3  A00 X   4      74.347  65.807  80.8450  0.00  0.00     0.000 C
ATOM     61  C4  A00 X   4      75.134  65.233  79.6470  0.00  0.00     0.000 C
ATOM     62  C5  A00 X   4      74.078  64.679  78.6580  0.00  0.00     0.000 C
ATOM     63  O5  A00 X   4      73.347  63.600  79.2950  0.00  0.00     0.000 O
BRANCH 59 66
ATOM     64   N  A00 X   4      74.393  63.998  82.3430  0.00  0.00     0.000 N
ATOM     66  HD  A00 X   4      74.771  63.299  81.9980  0.00  0.00     0.000 HD
ATOM     66   O  A00 X   4      72.508  63.280  83.6590  0.00  0.00     0.000 OA
ATOM     67   S  A00 X   4      73.909  63.526  83.7930  0.00  0.00     0.000 S
ATOM     68   O  A00 X   4      74.726  62.361  83.9710  0.00  0.00     0.000 OA
ATOM     69   O  A00 X   4      74.319  64.657  84.5760  0.00  0.00     0.000 OA
ENDBRANCH 59 66
BRANCH 62 70
ATOM     70   C  A00 X   4      74.671  64.154  77.3290  0.00  0.00     0.000 C
ATOM     71   O  A00 X   4      76.700  61.209  76.7650  0.00  0.00     0.000 OA
ATOM     72   O  A00 X   4      77.005  63.438  76.0710  0.00  0.00     0.000 OA
ATOM     73   O  A00 X   4      75.193  62.831  77.5320  0.00  0.00     0.000 O
ATOM     74   O  A00 X   4      77.445  62.829  78.3890  0.00  0.00     0.000 OA
ATOM     75   S  A00 X   4      76.704  62.579  77.1940  0.00  0.00     0.000 S
ENDBRANCH 62 70
ENDBRANCH 57 61
ENDBRANCH 41 57
ENDBRANCH 40 44
ENDBRANCH 20 40
ENDBRANCH 19 23
ENDBRANCH 1 19
TORSDOF 14
ENDMDL
MODEL 49
REMARK VINA RESULT:      -0.3    103.207    107.039
ROOT
ATOM      1  C1  A00 X   1      92.848  49.036  91.1090  0.00  0.00     0.000 C
ATOM      2  C2  A00 X   1      92.057  50.278  90.6180  0.00  0.00     0.000 C
ATOM      3  C3  A00 X   1      92.481  50.857  89.2280  0.00  0.00     0.000 C
ATOM      4  C4  A00 X   1      93.849  50.366  88.6880  0.00  0.00     0.000 C
ATOM      5  C5  A00 X   1      94.762  49.861  89.8050  0.00  0.00     0.000 C
ATOM      6  O5  A00 X   1      94.059  48.733  90.3720  0.00  0.00     0.000 O
ATOM      7   O  A00 X   1      92.572  52.276  89.3320  0.00  0.00     0.000 O
ATOM      9  HD  A00 X   1      93.246  52.011  88.8570  0.00  0.00     0.000 HD
ATOM      9   O  A00 X   1      93.686  49.349  87.7010  0.00  0.00     0.000 O
ATOM     11  HD  A00 X   1      94.360  49.084  87.2260  0.00  0.00     0.000 HD
ENDROOT
BRANCH 2 11
ATOM     11   O  A00 X   1      90.662  49.920  90.5720  0.00  0.00     0.000 O
ATOM     12   O  A00 X   1      89.005  51.387  89.6400  0.00  0.00     0.000 OA
ATOM     13   O  A00 X   1      90.223  52.078  91.6290  0.00  0.00     0.000 OA
ATOM     14   O  A00 X   1      88.668  50.280  91.7320  0.00  0.00     0.000 OA
ATOM     15   S  A00 X   1      89.588  51.012  90.9030  0.00  0.00     0.000 S
ENDBRANCH 2 11
BRANCH 5 16
ATOM     16   C  A00 X   1      95.165  50.916  90.8400  0.00  0.00     0.000 C
ATOM     17   O  A00 X   1      95.711  50.551  91.8600  0.00  0.00     0.000 OA
ATOM     18   O  A00 X   1      94.965  52.103  90.6720  0.00  0.00     0.000 OA
ENDBRANCH 5 16
BRANCH 1 19
ATOM     19  O4  A00 X   2      93.088  49.052  92.5370  0.00  0.00     0.000 O
BRANCH 19 23
ATOM     20  C1  A00 X   2      92.389  44.850  93.0100  0.00  0.00     0.000 C
ATOM     21  C2  A00 X   2      91.220  45.810  93.3390  0.00  0.00     0.000 C
ATOM     22  C3  A00 X   2      91.464  47.204  92.7230  0.00  0.00     0.000 C
ATOM     23  C4  A00 X   2      92.838  47.759  93.1600  0.00  0.00     0.000 C
ATOM     24  C5  A00 X   2      93.915  46.702  92.7940  0.00  0.00     0.000 C
ATOM     25  O5  A00 X   2      93.613  45.466  93.4920  0.00  0.00     0.000 O
ATOM     26   O  A00 X   2      90.323  48.035  92.9960  0.00  0.00     0.000 O
ATOM     28  HD  A00 X   2      90.326  47.847  93.8420  0.00  0.00     0.000 HD
BRANCH 21 30
ATOM     28   N  A00 X   2      90.810  44.888  94.4020  0.00  0.00     0.000 N
ATOM     30  HD  A00 X   2      90.141  45.418  94.2590  0.00  0.00     0.000 HD
ATOM     30   O  A00 X   2      88.486  45.003  94.6100  0.00  0.00     0.000 OA
ATOM     31   S  A00 X   2      89.640  45.320  95.3730  0.00  0.00     0.000 S
ATOM     32   O  A00 X   2      89.842  44.505  96.5310  0.00  0.00     0.000 OA
ATOM     33   O  A00 X   2      89.846  46.701  95.6950  0.00  0.00     0.000 OA
ENDBRANCH 21 30
BRANCH 24 34
ATOM     34   C  A00 X   2      95.403  47.109  92.9180  0.00  0.00     0.000 C
ATOM     35   O  A00 X   2      96.951  48.270  96.0020  0.00  0.00     0.000 OA
ATOM     36   O  A00 X   2      95.643  47.849  94.1310  0.00  0.00     0.000 O
ATOM     37   O  A00 X   2      95.811  46.209  95.7900  0.00  0.00     0.000 OA
ATOM     38   S  A00 X   2      96.643  47.175  95.1410  0.00  0.00     0.000 S
ATOM     39   O  A00 X   2      97.740  46.689  94.3600  0.00  0.00     0.000 OA
ENDBRANCH 24 34
BRANCH 20 40
ATOM     40  O4  A00 X   3      92.427  44.762  91.5790  0.00  0.00     0.000 O
BRANCH 40 44
ATOM     41  C1  A00 X   3      94.463  44.788  88.5820  0.00  0.00     0.000 C
ATOM     42  C2  A00 X   3      92.923  44.676  88.5990  0.00  0.00     0.000 C
ATOM     43  C3  A00 X   3      92.458  43.554  89.5640  0.00  0.00     0.000 C
ATOM     44  C4  A00 X   3      93.067  43.626  90.9580  0.00  0.00     0.000 C
ATOM     45  C5  A00 X   3      94.615  43.731  90.8580  0.00  0.00     0.000 C
ATOM     46  O5  A00 X   3      95.008  44.794  89.9310  0.00  0.00     0.000 O
ATOM     47   O  A00 X   3      91.055  43.302  89.5950  0.00  0.00     0.000 O
ATOM     49  HD  A00 X   3      91.205  43.205  90.4430  0.00  0.00     0.000 HD
BRANCH 42 49
ATOM     49   O  A00 X   3      92.409  45.965  89.0020  0.00  0.00     0.000 O
ATOM     50   O  A00 X   3      90.254  46.914  89.4280  0.00  0.00     0.000 OA
ATOM     51   O  A00 X   3      90.520  45.477  87.5710  0.00  0.00     0.000 OA
ATOM     52   O  A00 X   3      91.580  47.588  87.5220  0.00  0.00     0.000 OA
ATOM     53   S  A00 X   3      91.114  46.532  88.3520  0.00  0.00     0.000 S
ENDBRANCH 42 49
BRANCH 45 54
ATOM     54   C  A00 X   3      95.256  42.378  90.5310  0.00  0.00     0.000 C
ATOM     55   O  A00 X   3      94.569  41.427  90.2180  0.00  0.00     0.000 OA
ATOM     56   O  A00 X   3      96.468  42.231  90.5800  0.00  0.00     0.000 OA
ENDBRANCH 45 54
BRANCH 41 57
ATOM     57  O4  A00 X   4      95.060  43.800  87.7120  0.00  0.00     0.000 O
BRANCH 57 61
ATOM     58  C1  A00 X   4      98.577  43.835  85.2080  0.00  0.00     0.000 C
ATOM     59  C2  A00 X   4      98.752  44.034  86.7340  0.00  0.00     0.000 C
ATOM     60  C3  A00 X   4      97.502  43.648  87.5520  0.00  0.00     0.000 C
ATOM     61  C4  A00 X   4      96.216  44.261  86.9560  0.00  0.00     0.000 C
ATOM     62  C5  A00 X   4      96.133  43.762  85.4920  0.00  0.00     0.000 C
ATOM     63  O5  A00 X   4      97.274  44.264  84.7510  0.00  0.00     0.000 O
BRANCH 59 66
ATOM     64   N  A00 X   4      98.995  45.457  87.0310  0.00  0.00     0.000 N
ATOM     66  HD  A00 X   4      98.668  46.041  86.4820  0.00  0.00     0.000 HD
ATOM     66   O  A00 X   4     101.305  45.077  86.4660  0.00  0.00     0.000 OA
ATOM     67   S  A00 X   4     100.502  45.931  87.2830  0.00  0.00     0.000 S
ATOM     68   O  A00 X   4     100.418  47.297  86.8530  0.00  0.00     0.000 OA
ATOM     69   O  A00 X   4     100.584  45.767  88.7070  0.00  0.00     0.000 OA
ENDBRANCH 59 66
BRANCH 62 70
ATOM     70   C  A00 X   4      94.841  44.185  84.7530  0.00  0.00     0.000 C
ATOM     71   O  A00 X   4      93.832  47.491  83.6760  0.00  0.00     0.000 OA
ATOM     72   O  A00 X   4      92.655  45.843  84.8780  0.00  0.00     0.000 OA
ATOM     73   O  A00 X   4      94.973  45.545  84.3080  0.00  0.00     0.000 O
ATOM     74   O  A00 X   4      94.377  47.152  86.0000  0.00  0.00     0.000 OA
ATOM     75   S  A00 X   4      93.896  46.580  84.7840  0.00  0.00     0.000 S
ENDBRANCH 62 70
ENDBRANCH 57 61
ENDBRANCH 41 57
ENDBRANCH 40 44
ENDBRANCH 20 40
ENDBRANCH 19 23
ENDBRANCH 1 19
TORSDOF 14
ENDMDL
MODEL 50
REMARK VINA RESULT:      -0.3    103.673    107.502
ROOT
ATOM      1  C1  A00 X   1      93.593  48.568  92.2080  0.00  0.00     0.000 C
ATOM      2  C2  A00 X   1      93.153  49.912  91.5660  0.00  0.00     0.000 C
ATOM      3  C3  A00 X   1      93.693  50.195  90.1260  0.00  0.00     0.000 C
ATOM      4  C4  A00 X   1      94.873  49.300  89.6660  0.00  0.00     0.000 C
ATOM      5  C5  A00 X   1      95.637  48.700  90.8470  0.00  0.00     0.000 C
ATOM      6  O5  A00 X   1      94.668  47.873  91.5290  0.00  0.00     0.000 O
ATOM      7   O  A00 X   1      94.161  51.541  90.0690  0.00  0.00     0.000 O
ATOM      9  HD  A00 X   1      94.732  51.054  89.6380  0.00  0.00     0.000 HD
ATOM      9   O  A00 X   1      94.429  48.256  88.7990  0.00  0.00     0.000 O
ATOM     11  HD  A00 X   1      95.001  47.769  88.3680  0.00  0.00     0.000 HD
ENDROOT
BRANCH 2 11
ATOM     11   O  A00 X   1      91.713  49.935  91.5410  0.00  0.00     0.000 O
ATOM     12   O  A00 X   1      90.491  51.674  90.4220  0.00  0.00     0.000 OA
ATOM     13   O  A00 X   1      91.880  52.238  92.3380  0.00  0.00     0.000 OA
ATOM     14   O  A00 X   1      89.905  50.943  92.6220  0.00  0.00     0.000 OA
ATOM     15   S  A00 X   1      90.973  51.304  91.7290  0.00  0.00     0.000 S
ENDBRANCH 2 11
BRANCH 5 16
ATOM     16   C  A00 X   1      96.322  49.721  91.7600  0.00  0.00     0.000 C
ATOM     17   O  A00 X   1      96.767  49.343  92.8250  0.00  0.00     0.000 OA
ATOM     18   O  A00 X   1      96.443  50.891  91.4560  0.00  0.00     0.000 OA
ENDBRANCH 5 16
BRANCH 1 19
ATOM     19  O4  A00 X   2      93.851  48.683  93.6280  0.00  0.00     0.000 O
BRANCH 19 23
ATOM     20  C1  A00 X   2      92.068  44.901  94.5680  0.00  0.00     0.000 C
ATOM     21  C2  A00 X   2      91.202  46.168  94.7670  0.00  0.00     0.000 C
ATOM     22  C3  A00 X   2      91.797  47.367  93.9990  0.00  0.00     0.000 C
ATOM     23  C4  A00 X   2      93.277  47.583  94.3910  0.00  0.00     0.000 C
ATOM     24  C5  A00 X   2      94.028  46.243  94.1640  0.00  0.00     0.000 C
ATOM     25  O5  A00 X   2      93.419  45.219  94.9940  0.00  0.00     0.000 O
ATOM     26   O  A00 X   2      90.924  48.498  94.1590  0.00  0.00     0.000 O
ATOM     28  HD  A00 X   2      90.889  48.413  95.0200  0.00  0.00     0.000 HD
BRANCH 21 30
ATOM     28   N  A00 X   2      90.579  45.515  95.9220  0.00  0.00     0.000 N
ATOM     30  HD  A00 X   2      90.072  46.185  95.7100  0.00  0.00     0.000 HD
ATOM     30   O  A00 X   2      88.372  46.267  96.0800  0.00  0.00     0.000 OA
ATOM     31   S  A00 X   2      89.582  46.351  96.8200  0.00  0.00     0.000 S
ATOM     32   O  A00 X   2      89.577  45.649  98.0660  0.00  0.00     0.000 OA
ATOM     33   O  A00 X   2      90.152  47.655  96.9850  0.00  0.00     0.000 OA
ENDBRANCH 21 30
BRANCH 24 34
ATOM     34   C  A00 X   2      95.572  46.251  94.2630  0.00  0.00     0.000 C
ATOM     35   O  A00 X   2      97.422  47.302  97.2170  0.00  0.00     0.000 OA
ATOM     36   O  A00 X   2      96.020  47.034  95.3880  0.00  0.00     0.000 O
ATOM     37   O  A00 X   2      95.772  45.608  97.2250  0.00  0.00     0.000 OA
ATOM     38   S  A00 X   2      96.820  46.238  96.4830  0.00  0.00     0.000 S
ATOM     39   O  A00 X   2      97.737  45.392  95.7790  0.00  0.00     0.000 OA
ENDBRANCH 24 34
BRANCH 20 40
ATOM     40  O4  A00 X   3      92.058  44.643  93.1560  0.00  0.00     0.000 O
BRANCH 40 44
ATOM     41  C1  A00 X   3      93.979  43.784  90.2070  0.00  0.00     0.000 C
ATOM     42  C2  A00 X   3      92.466  44.089  90.2140  0.00  0.00     0.000 C
ATOM     43  C3  A00 X   3      91.735  43.249  91.2930  0.00  0.00     0.000 C
ATOM     44  C4  A00 X   3      92.363  43.315  92.6790  0.00  0.00     0.000 C
ATOM     45  C5  A00 X   3      93.882  42.992  92.5910  0.00  0.00     0.000 C
ATOM     46  O5  A00 X   3      94.528  43.800  91.5540  0.00  0.00     0.000 O
ATOM     47   O  A00 X   3      90.316  43.384  91.3320  0.00  0.00     0.000 O
ATOM     49  HD  A00 X   3      90.448  43.348  92.1870  0.00  0.00     0.000 HD
BRANCH 42 49
ATOM     49   O  A00 X   3      92.320  45.505  90.4590  0.00  0.00     0.000 O
ATOM     50   O  A00 X   3      90.502  47.036  90.7420  0.00  0.00     0.000 OA
ATOM     51   O  A00 X   3      90.346  45.377  89.0640  0.00  0.00     0.000 OA
ATOM     52   O  A00 X   3      91.928  47.111  88.7910  0.00  0.00     0.000 OA
ATOM     53   S  A00 X   3      91.211  46.319  89.7300  0.00  0.00     0.000 S
ENDBRANCH 42 49
BRANCH 45 54
ATOM     54   C  A00 X   3      94.134  41.489  92.4300  0.00  0.00     0.000 C
ATOM     55   O  A00 X   3      93.214  40.726  92.2170  0.00  0.00     0.000 OA
ATOM     56   O  A00 X   3      95.264  41.032  92.5140  0.00  0.00     0.000 OA
ENDBRANCH 45 54
BRANCH 41 57
ATOM     57  O4  A00 X   4      94.279  42.581  89.4650  0.00  0.00     0.000 O
BRANCH 57 61
ATOM     58  C1  A00 X   4      97.637  41.393  87.0260  0.00  0.00     0.000 C
ATOM     59  C2  A00 X   4      97.883  41.711  88.5220  0.00  0.00     0.000 C
ATOM     60  C3  A00 X   4      96.589  41.768  89.3590  0.00  0.00     0.000 C
ATOM     61  C4  A00 X   4      95.503  42.628  88.6790  0.00  0.00     0.000 C
ATOM     62  C5  A00 X   4      95.267  42.006  87.2800  0.00  0.00     0.000 C
ATOM     63  O5  A00 X   4      96.488  42.099  86.5040  0.00  0.00     0.000 O
BRANCH 59 66
ATOM     64   N  A00 X   4      98.501  43.043  88.6580  0.00  0.00     0.000 N
ATOM     66  HD  A00 X   4      98.333  43.626  88.0410  0.00  0.00     0.000 HD
ATOM     66   O  A00 X   4     100.617  42.000  88.1750  0.00  0.00     0.000 OA
ATOM     67   S  A00 X   4     100.083  43.125  88.8770  0.00  0.00     0.000 S
ATOM     68   O  A00 X   4     100.359  44.405  88.2930  0.00  0.00     0.000 OA
ATOM     69   O  A00 X   4     100.142  43.108  90.3110  0.00  0.00     0.000 OA
ENDBRANCH 59 66
BRANCH 62 70
ATOM     70   C  A00 X   4      94.122  42.670  86.4780  0.00  0.00     0.000 C
ATOM     71   O  A00 X   4      94.012  45.980  85.0150  0.00  0.00     0.000 OA
ATOM     72   O  A00 X   4      92.458  44.853  86.3800  0.00  0.00     0.000 OA
ATOM     73   O  A00 X   4      94.604  43.886  85.8820  0.00  0.00     0.000 O
ATOM     74   O  A00 X   4      94.484  45.776  87.3710  0.00  0.00     0.000 OA
ATOM     75   S  A00 X   4      93.849  45.218  86.2210  0.00  0.00     0.000 S
ENDBRANCH 62 70
ENDBRANCH 57 61
ENDBRANCH 41 57
ENDBRANCH 40 44
ENDBRANCH 20 40
ENDBRANCH 19 23
ENDBRANCH 1 19
TORSDOF 14
ENDMDL
MODEL 51
REMARK VINA RESULT:      -0.3    102.854    107.381
ROOT
ATOM      1  C1  A00 X   1      33.478 107.317  63.6110  0.00  0.00     0.000 C
ATOM      2  C2  A00 X   1      33.687 107.553  65.1300  0.00  0.00     0.000 C
ATOM      3  C3  A00 X   1      34.969 106.910  65.7560  0.00  0.00     0.000 C
ATOM      4  C4  A00 X   1      35.665 105.829  64.8900  0.00  0.00     0.000 C
ATOM      5  C5  A00 X   1      34.712 105.206  63.8690  0.00  0.00     0.000 C
ATOM      6  O5  A00 X   1      34.323 106.303  63.0130  0.00  0.00     0.000 O
ATOM      7   O  A00 X   1      34.611 106.278  66.9830  0.00  0.00     0.000 O
ATOM      9  HD  A00 X   1      35.163 105.750  66.5750  0.00  0.00     0.000 HD
ATOM      9   O  A00 X   1      36.811 106.354  64.2220  0.00  0.00     0.000 O
ATOM     11  HD  A00 X   1      37.364 105.826  63.8140  0.00  0.00     0.000 HD
ENDROOT
BRANCH 2 11
ATOM     11   O  A00 X   1      33.721 108.977  65.3520  0.00  0.00     0.000 O
ATOM     12   O  A00 X   1      34.287 109.917  67.4880  0.00  0.00     0.000 OA
ATOM     13   O  A00 X   1      32.275 108.565  67.2770  0.00  0.00     0.000 OA
ATOM     14   O  A00 X   1      32.409 110.697  66.2310  0.00  0.00     0.000 OA
ATOM     15   S  A00 X   1      33.143 109.549  66.6920  0.00  0.00     0.000 S
ENDBRANCH 2 11
BRANCH 5 16
ATOM     16   C  A00 X   1      33.525 104.446  64.4700  0.00  0.00     0.000 C
ATOM     17   O  A00 X   1      32.619 104.109  63.7360  0.00  0.00     0.000 OA
ATOM     18   O  A00 X   1      33.462 104.164  65.6500  0.00  0.00     0.000 OA
ENDBRANCH 5 16
BRANCH 1 19
ATOM     19  O4  A00 X   2      32.086 107.118  63.2600  0.00  0.00     0.000 O
BRANCH 19 23
ATOM     20  C1  A00 X   2      32.371 109.345  59.6100  0.00  0.00     0.000 C
ATOM     21  C2  A00 X   2      31.805 110.077  60.8510  0.00  0.00     0.000 C
ATOM     22  C3  A00 X   2      32.162 109.318  62.1470  0.00  0.00     0.000 C
ATOM     23  C4  A00 X   2      31.704 107.845  62.0580  0.00  0.00     0.000 C
ATOM     24  C5  A00 X   2      32.320 107.233  60.7690  0.00  0.00     0.000 C
ATOM     25  O5  A00 X   2      31.850 107.989  59.6230  0.00  0.00     0.000 O
ATOM     26   O  A00 X   2      31.675 110.071  63.2710  0.00  0.00     0.000 O
ATOM     28  HD  A00 X   2      30.882 110.155  62.9350  0.00  0.00     0.000 HD
BRANCH 21 30
ATOM     28   N  A00 X   2      30.912 110.822  59.9590  0.00  0.00     0.000 N
ATOM     30  HD  A00 X   2      30.917 111.242  60.7160  0.00  0.00     0.000 HD
ATOM     30   O  A00 X   2      30.561 112.939  60.8820  0.00  0.00     0.000 OA
ATOM     31   S  A00 X   2      29.815 111.765  60.5970  0.00  0.00     0.000 S
ATOM     32   O  A00 X   2      28.842 111.905  59.5580  0.00  0.00     0.000 OA
ATOM     33   O  A00 X   2      29.253 111.065  61.7140  0.00  0.00     0.000 OA
ENDBRANCH 21 30
BRANCH 24 34
ATOM     34   C  A00 X   2      32.203 105.705  60.5650  0.00  0.00     0.000 C
ATOM     35   O  A00 X   2      29.047 103.891  60.4850  0.00  0.00     0.000 OA
ATOM     36   O  A00 X   2      30.893 105.227  60.9290  0.00  0.00     0.000 O
ATOM     37   O  A00 X   2      29.558 105.716  59.0710  0.00  0.00     0.000 OA
ATOM     38   S  A00 X   2      30.070 104.571  59.7600  0.00  0.00     0.000 S
ATOM     39   O  A00 X   2      30.979 103.721  59.0520  0.00  0.00     0.000 OA
ENDBRANCH 24 34
BRANCH 20 40
ATOM     40  O4  A00 X   3      33.794 109.315  59.7940  0.00  0.00     0.000 O
BRANCH 40 44
ATOM     41  C1  A00 X   3      36.848 107.375  59.6100  0.00  0.00     0.000 C
ATOM     42  C2  A00 X   3      36.762 108.836  60.1020  0.00  0.00     0.000 C
ATOM     43  C3  A00 X   3      35.997 109.720  59.0840  0.00  0.00     0.000 C
ATOM     44  C4  A00 X   3      34.651 109.158  58.6420  0.00  0.00     0.000 C
ATOM     45  C5  A00 X   3      34.821 107.691  58.1580  0.00  0.00     0.000 C
ATOM     46  O5  A00 X   3      35.556 106.896  59.1440  0.00  0.00     0.000 O
ATOM     47   O  A00 X   3      35.930 111.111  59.3940  0.00  0.00     0.000 O
ATOM     49  HD  A00 X   3      35.125 111.026  59.0840  0.00  0.00     0.000 HD
BRANCH 42 49
ATOM     49   O  A00 X   3      36.097 108.812  61.3850  0.00  0.00     0.000 O
ATOM     50   O  A00 X   3      35.354 110.433  62.9820  0.00  0.00     0.000 OA
ATOM     51   O  A00 X   3      37.456 110.735  61.9420  0.00  0.00     0.000 OA
ATOM     52   O  A00 X   3      37.196 108.940  63.4560  0.00  0.00     0.000 OA
ATOM     53   S  A00 X   3      36.540 109.783  62.5180  0.00  0.00     0.000 S
ENDBRANCH 42 49
BRANCH 45 54
ATOM     54   C  A00 X   3      35.431 107.624  56.7530  0.00  0.00     0.000 C
ATOM     55   O  A00 X   3      35.494 106.569  56.1550  0.00  0.00     0.000 OA
ATOM     56   O  A00 X   3      35.866 108.629  56.2120  0.00  0.00     0.000 OA
ENDBRANCH 45 54
BRANCH 41 57
ATOM     57  O4  A00 X   4      37.920 107.195  58.6580  0.00  0.00     0.000 O
BRANCH 57 61
ATOM     58  C1  A00 X   4      40.583 103.902  57.8180  0.00  0.00     0.000 C
ATOM     59  C2  A00 X   4      39.061 103.692  57.6240  0.00  0.00     0.000 C
ATOM     60  C3  A00 X   4      38.257 105.008  57.6020  0.00  0.00     0.000 C
ATOM     61  C4  A00 X   4      38.644 105.937  58.7720  0.00  0.00     0.000 C
ATOM     62  C5  A00 X   4      40.168 106.182  58.6480  0.00  0.00     0.000 C
ATOM     63  O5  A00 X   4      40.869 104.922  58.8030  0.00  0.00     0.000 O
BRANCH 59 66
ATOM     64   N  A00 X   4      38.519 102.914  58.7530  0.00  0.00     0.000 N
ATOM     66  HD  A00 X   4      38.930 102.974  59.5130  0.00  0.00     0.000 HD
ATOM     66   O  A00 X   4      39.283 100.930  57.6210  0.00  0.00     0.000 OA
ATOM     67   S  A00 X   4      38.274 101.347  58.5440  0.00  0.00     0.000 S
ATOM     68   O  A00 X   4      38.436 100.878  59.8890  0.00  0.00     0.000 OA
ATOM     69   O  A00 X   4      36.913 101.363  58.0870  0.00  0.00     0.000 OA
ENDBRANCH 59 66
BRANCH 62 70
ATOM     70   C  A00 X   4      40.733 107.189  59.6790  0.00  0.00     0.000 C
ATOM     71   O  A00 X   4      41.107 106.789  63.2580  0.00  0.00     0.000 OA
ATOM     72   O  A00 X   4      40.162 108.541  62.0000  0.00  0.00     0.000 OA
ATOM     73   O  A00 X   4      40.923 106.522  60.9370  0.00  0.00     0.000 O
ATOM     74   O  A00 X   4      38.926 106.461  62.2830  0.00  0.00     0.000 OA
ATOM     75   S  A00 X   4      40.194 107.109  62.1960  0.00  0.00     0.000 S
ENDBRANCH 62 70
ENDBRANCH 57 61
ENDBRANCH 41 57
ENDBRANCH 40 44
ENDBRANCH 20 40
ENDBRANCH 19 23
ENDBRANCH 1 19
TORSDOF 14
ENDMDL
MODEL 52
REMARK VINA RESULT:      -0.3     90.974     95.452
ROOT
ATOM      1  C1  A00 X   1      78.790  62.270  64.5450  0.00  0.00     0.000 C
ATOM      2  C2  A00 X   1      77.867  61.022  64.5330  0.00  0.00     0.000 C
ATOM      3  C3  A00 X   1      78.482  59.706  65.1140  0.00  0.00     0.000 C
ATOM      4  C4  A00 X   1      80.023  59.708  65.2850  0.00  0.00     0.000 C
ATOM      5  C5  A00 X   1      80.704  60.734  64.3800  0.00  0.00     0.000 C
ATOM      6  O5  A00 X   1      80.189  62.011  64.8200  0.00  0.00     0.000 O
ATOM      7   O  A00 X   1      78.174  58.629  64.2320  0.00  0.00     0.000 O
ATOM      9  HD  A00 X   1      78.995  58.523  64.4870  0.00  0.00     0.000 HD
ATOM      9   O  A00 X   1      80.397  59.939  66.6430  0.00  0.00     0.000 O
ATOM     11  HD  A00 X   1      81.218  59.834  66.8980  0.00  0.00     0.000 HD
ENDROOT
BRANCH 2 11
ATOM     11   O  A00 X   1      76.676  61.350  65.2740  0.00  0.00     0.000 O
ATOM     12   O  A00 X   1      75.032  59.693  65.8360  0.00  0.00     0.000 OA
ATOM     13   O  A00 X   1      75.434  60.226  63.4970  0.00  0.00     0.000 OA
ATOM     14   O  A00 X   1      74.414  61.820  64.9380  0.00  0.00     0.000 OA
ATOM     15   S  A00 X   1      75.314  60.702  64.8470  0.00  0.00     0.000 S
ENDBRANCH 2 11
BRANCH 5 16
ATOM     16   C  A00 X   1      80.530  60.488  62.8770  0.00  0.00     0.000 C
ATOM     17   O  A00 X   1      80.810  61.383  62.1060  0.00  0.00     0.000 OA
ATOM     18   O  A00 X   1      80.130  59.431  62.4320  0.00  0.00     0.000 OA
ENDBRANCH 5 16
BRANCH 1 19
ATOM     19  O4  A00 X   2      78.628  63.099  63.3680  0.00  0.00     0.000 O
BRANCH 19 23
ATOM     20  C1  A00 X   2      78.941  66.780  65.5410  0.00  0.00     0.000 C
ATOM     21  C2  A00 X   2      77.519  66.261  65.2150  0.00  0.00     0.000 C
ATOM     22  C3  A00 X   2      77.554  64.766  64.8360  0.00  0.00     0.000 C
ATOM     23  C4  A00 X   2      78.560  64.518  63.6900  0.00  0.00     0.000 C
ATOM     24  C5  A00 X   2      79.933  65.097  64.1300  0.00  0.00     0.000 C
ATOM     25  O5  A00 X   2      79.781  66.517  64.3850  0.00  0.00     0.000 O
ATOM     26   O  A00 X   2      76.207  64.316  64.6110  0.00  0.00     0.000 O
ATOM     28  HD  A00 X   2      76.024  64.971  64.0750  0.00  0.00     0.000 HD
BRANCH 21 30
ATOM     28   N  A00 X   2      77.082  67.651  65.0540  0.00  0.00     0.000 N
ATOM     30  HD  A00 X   2      76.366  67.171  65.1370  0.00  0.00     0.000 HD
ATOM     30   O  A00 X   2      74.848  67.793  65.7230  0.00  0.00     0.000 OA
ATOM     31   S  A00 X   2      75.615  67.930  64.5360  0.00  0.00     0.000 S
ATOM     32   O  A00 X   2      75.688  69.259  64.0130  0.00  0.00     0.000 OA
ATOM     33   O  A00 X   2      75.354  66.995  63.4820  0.00  0.00     0.000 OA
ENDBRANCH 21 30
BRANCH 24 34
ATOM     34   C  A00 X   2      81.169  64.775  63.2580  0.00  0.00     0.000 C
ATOM     35   O  A00 X   2      83.126  67.285  61.4890  0.00  0.00     0.000 OA
ATOM     36   O  A00 X   2      81.517  65.891  62.4140  0.00  0.00     0.000 O
ATOM     37   O  A00 X   2      82.710  67.333  63.8170  0.00  0.00     0.000 OA
ATOM     38   S  A00 X   2      82.941  66.508  62.6700  0.00  0.00     0.000 S
ATOM     39   O  A00 X   2      83.840  65.403  62.8180  0.00  0.00     0.000 OA
ENDBRANCH 24 34
BRANCH 20 40
ATOM     40  O4  A00 X   3      79.395  65.995  66.6520  0.00  0.00     0.000 O
BRANCH 40 44
ATOM     41  C1  A00 X   3      82.092  64.101  68.1590  0.00  0.00     0.000 C
ATOM     42  C2  A00 X   3      80.686  64.273  68.7740  0.00  0.00     0.000 C
ATOM     43  C3  A00 X   3      80.278  65.768  68.8180  0.00  0.00     0.000 C
ATOM     44  C4  A00 X   3      80.446  66.510  67.4980  0.00  0.00     0.000 C
ATOM     45  C5  A00 X   3      81.884  66.294  66.9460  0.00  0.00     0.000 C
ATOM     46  O5  A00 X   3      82.230  64.871  66.9320  0.00  0.00     0.000 O
ATOM     47   O  A00 X   3      79.031  66.055  69.4470  0.00  0.00     0.000 O
ATOM     49  HD  A00 X   3      78.965  66.628  68.8020  0.00  0.00     0.000 HD
BRANCH 42 49
ATOM     49   O  A00 X   3      79.773  63.500  67.9650  0.00  0.00     0.000 O
ATOM     50   O  A00 X   3      77.415  63.090  67.9250  0.00  0.00     0.000 OA
ATOM     51   O  A00 X   3      78.531  63.130  70.0090  0.00  0.00     0.000 OA
ATOM     52   O  A00 X   3      78.992  61.355  68.5180  0.00  0.00     0.000 OA
ATOM     53   S  A00 X   3      78.602  62.719  68.6290  0.00  0.00     0.000 S
ENDBRANCH 42 49
BRANCH 45 54
ATOM     54   C  A00 X   3      82.912  67.157  67.6860  0.00  0.00     0.000 C
ATOM     55   O  A00 X   3      82.588  67.807  68.6600  0.00  0.00     0.000 OA
ATOM     56   O  A00 X   3      84.072  67.209  67.3100  0.00  0.00     0.000 OA
ENDBRANCH 45 54
BRANCH 41 57
ATOM     57  O4  A00 X   4      83.133  64.351  69.1290  0.00  0.00     0.000 O
BRANCH 57 61
ATOM     58  C1  A00 X   4      87.065  62.669  69.7170  0.00  0.00     0.000 C
ATOM     59  C2  A00 X   4      86.767  63.408  68.3890  0.00  0.00     0.000 C
ATOM     60  C3  A00 X   4      85.484  64.263  68.4370  0.00  0.00     0.000 C
ATOM     61  C4  A00 X   4      84.294  63.477  69.0290  0.00  0.00     0.000 C
ATOM     62  C5  A00 X   4      84.737  63.011  70.4380  0.00  0.00     0.000 C
ATOM     63  O5  A00 X   4      85.869  62.113  70.3090  0.00  0.00     0.000 O
BRANCH 59 66
ATOM     64   N  A00 X   4      86.552  62.436  67.3030  0.00  0.00     0.000 N
ATOM     66  HD  A00 X   4      86.245  61.655  67.5190  0.00  0.00     0.000 HD
ATOM     66   O  A00 X   4      88.946  62.291  67.0930  0.00  0.00     0.000 OA
ATOM     67   S  A00 X   4      87.764  62.135  66.3040  0.00  0.00     0.000 S
ATOM     68   O  A00 X   4      87.454  60.790  65.9180  0.00  0.00     0.000 OA
ATOM     69   O  A00 X   4      87.504  63.115  65.2880  0.00  0.00     0.000 OA
ENDBRANCH 59 66
BRANCH 62 70
ATOM     70   C  A00 X   4      83.628  62.292  71.2440  0.00  0.00     0.000 C
ATOM     71   O  A00 X   4      82.160  59.035  70.6610  0.00  0.00     0.000 OA
ATOM     72   O  A00 X   4      81.150  61.125  71.0530  0.00  0.00     0.000 OA
ATOM     73   O  A00 X   4      83.534  60.927  70.8080  0.00  0.00     0.000 O
ATOM     74   O  A00 X   4      82.127  60.651  68.8710  0.00  0.00     0.000 OA
ATOM     75   S  A00 X   4      82.147  60.419  70.2800  0.00  0.00     0.000 S
ENDBRANCH 62 70
ENDBRANCH 57 61
ENDBRANCH 41 57
ENDBRANCH 40 44
ENDBRANCH 20 40
ENDBRANCH 19 23
ENDBRANCH 1 19
TORSDOF 14
ENDMDL
MODEL 53
REMARK VINA RESULT:      -0.3     71.348     76.345
ROOT
ATOM      1  C1  A00 X   1      78.151  46.677  39.7460  0.00  0.00     0.000 C
ATOM      2  C2  A00 X   1      78.436  47.935  40.6100  0.00  0.00     0.000 C
ATOM      3  C3  A00 X   1      77.664  48.026  41.9670  0.00  0.00     0.000 C
ATOM      4  C4  A00 X   1      76.457  47.063  42.1150  0.00  0.00     0.000 C
ATOM      5  C5  A00 X   1      75.913  46.607  40.7620  0.00  0.00     0.000 C
ATOM      6  O5  A00 X   1      77.006  45.886  40.1500  0.00  0.00     0.000 O
ATOM      7   O  A00 X   1      77.147  49.347  42.1120  0.00  0.00     0.000 O
ATOM      9  HD  A00 X   1      76.531  48.801  42.3810  0.00  0.00     0.000 HD
ATOM      9   O  A00 X   1      76.793  45.925  42.9080  0.00  0.00     0.000 O
ATOM     11  HD  A00 X   1      76.176  45.379  43.1780  0.00  0.00     0.000 HD
ENDROOT
BRANCH 2 11
ATOM     11   O  A00 X   1      79.852  47.975  40.8720  0.00  0.00     0.000 O
ATOM     12   O  A00 X   1      80.872  49.794  42.0620  0.00  0.00     0.000 OA
ATOM     13   O  A00 X   1      79.820  50.220  39.9110  0.00  0.00     0.000 OA
ATOM     14   O  A00 X   1      81.814  48.930  40.0420  0.00  0.00     0.000 OA
ATOM     15   S  A00 X   1      80.613  49.337  40.7210  0.00  0.00     0.000 S
ENDBRANCH 2 11
BRANCH 5 16
ATOM     16   C  A00 X   1      75.347  47.726  39.8810  0.00  0.00     0.000 C
ATOM     17   O  A00 X   1      75.081  47.476  38.7230  0.00  0.00     0.000 OA
ATOM     18   O  A00 X   1      75.150  48.849  40.3000  0.00  0.00     0.000 OA
ENDBRANCH 5 16
BRANCH 1 19
ATOM     19  O4  A00 X   2      78.119  46.966  38.3270  0.00  0.00     0.000 O
BRANCH 19 23
ATOM     20  C1  A00 X   2      79.981  43.269  37.2200  0.00  0.00     0.000 C
ATOM     21  C2  A00 X   2      80.882  44.524  37.3080  0.00  0.00     0.000 C
ATOM     22  C3  A00 X   2      80.189  45.642  38.1150  0.00  0.00     0.000 C
ATOM     23  C4  A00 X   2      78.791  45.947  37.5330  0.00  0.00     0.000 C
ATOM     24  C5  A00 X   2      77.997  44.612  37.4810  0.00  0.00     0.000 C
ATOM     25  O5  A00 X   2      78.715  43.675  36.6360  0.00  0.00     0.000 O
ATOM     26   O  A00 X   2      81.091  46.756  38.2260  0.00  0.00     0.000 O
ATOM     28  HD  A00 X   2      81.256  46.772  37.3760  0.00  0.00     0.000 HD
BRANCH 21 30
ATOM     28   N  A00 X   2      81.667  43.991  36.1910  0.00  0.00     0.000 N
ATOM     30  HD  A00 X   2      82.143  44.616  36.5560  0.00  0.00     0.000 HD
ATOM     30   O  A00 X   2      83.880  44.690  36.4590  0.00  0.00     0.000 OA
ATOM     31   S  A00 X   2      82.800  44.896  35.5610  0.00  0.00     0.000 S
ATOM     32   O  A00 X   2      82.988  44.344  34.2550  0.00  0.00     0.000 OA
ATOM     33   O  A00 X   2      82.277  46.226  35.4680  0.00  0.00     0.000 OA
ENDBRANCH 21 30
BRANCH 24 34
ATOM     34   C  A00 X   2      76.487  44.678  37.1510  0.00  0.00     0.000 C
ATOM     35   O  A00 X   2      74.977  43.191  34.1910  0.00  0.00     0.000 OA
ATOM     36   O  A00 X   2      76.237  44.327  35.7760  0.00  0.00     0.000 O
ATOM     37   O  A00 X   2      76.279  41.988  35.7570  0.00  0.00     0.000 OA
ATOM     38   S  A00 X   2      75.341  43.051  35.5630  0.00  0.00     0.000 S
ATOM     39   O  A00 X   2      74.257  43.158  36.4920  0.00  0.00     0.000 OA
ENDBRANCH 24 34
BRANCH 20 40
ATOM     40  O4  A00 X   3      79.770  42.847  38.5760  0.00  0.00     0.000 O
BRANCH 40 44
ATOM     41  C1  A00 X   3      77.455  41.645  41.0900  0.00  0.00     0.000 C
ATOM     42  C2  A00 X   3      78.950  41.944  41.3400  0.00  0.00     0.000 C
ATOM     43  C3  A00 X   3      79.841  41.238  40.2860  0.00  0.00     0.000 C
ATOM     44  C4  A00 X   3      79.418  41.472  38.8410  0.00  0.00     0.000 C
ATOM     45  C5  A00 X   3      77.908  41.146  38.6690  0.00  0.00     0.000 C
ATOM     46  O5  A00 X   3      77.107  41.824  39.6900  0.00  0.00     0.000 O
ATOM     47   O  A00 X   3      81.249  41.372  40.4690  0.00  0.00     0.000 O
ATOM     49  HD  A00 X   3      81.241  41.440  39.6060  0.00  0.00     0.000 HD
BRANCH 42 49
ATOM     49   O  A00 X   3      79.109  43.378  41.2900  0.00  0.00     0.000 O
ATOM     50   O  A00 X   3      80.927  44.927  41.4590  0.00  0.00     0.000 OA
ATOM     51   O  A00 X   3      80.863  43.077  42.9300  0.00  0.00     0.000 OA
ATOM     52   O  A00 X   3      79.233  44.771  43.1770  0.00  0.00     0.000 OA
ATOM     53   S  A00 X   3      80.089  44.095  42.2640  0.00  0.00     0.000 S
ENDBRANCH 42 49
BRANCH 45 54
ATOM     54   C  A00 X   3      77.656  39.635  38.6100  0.00  0.00     0.000 C
ATOM     55   O  A00 X   3      78.546  38.849  38.8640  0.00  0.00     0.000 OA
ATOM     56   O  A00 X   3      76.558  39.195  38.3060  0.00  0.00     0.000 OA
ENDBRANCH 45 54
BRANCH 41 57
ATOM     57  O4  A00 X   4      77.069  40.362  41.6320  0.00  0.00     0.000 O
BRANCH 57 61
ATOM     58  C1  A00 X   4      73.409  38.897  43.3900  0.00  0.00     0.000 C
ATOM     59  C2  A00 X   4      73.380  39.393  41.9230  0.00  0.00     0.000 C
ATOM     60  C3  A00 X   4      74.782  39.547  41.2980  0.00  0.00     0.000 C
ATOM     61  C4  A00 X   4      75.742  40.317  42.2290  0.00  0.00     0.000 C
ATOM     62  C5  A00 X   4      75.781  39.531  43.5630  0.00  0.00     0.000 C
ATOM     63  O5  A00 X   4      74.457  39.533  44.1560  0.00  0.00     0.000 O
BRANCH 59 66
ATOM     64   N  A00 X   4      72.768  40.732  41.8500  0.00  0.00     0.000 N
ATOM     66  HD  A00 X   4      72.835  41.241  42.5470  0.00  0.00     0.000 HD
ATOM     66   O  A00 X   4      70.620  39.643  41.8960  0.00  0.00     0.000 OA
ATOM     67   S  A00 X   4      71.233  40.840  41.4110  0.00  0.00     0.000 S
ATOM     68   O  A00 X   4      70.855  42.045  42.0900  0.00  0.00     0.000 OA
ATOM     69   O  A00 X   4      71.386  40.988  39.9920  0.00  0.00     0.000 OA
ENDBRANCH 59 66
BRANCH 62 70
ATOM     70   C  A00 X   4      76.785  40.092  44.5990  0.00  0.00     0.000 C
ATOM     71   O  A00 X   4      76.618  43.194  46.4580  0.00  0.00     0.000 OA
ATOM     72   O  A00 X   4      78.374  42.249  45.2050  0.00  0.00     0.000 OA
ATOM     73   O  A00 X   4      76.199  41.223  45.2630  0.00  0.00     0.000 O
ATOM     74   O  A00 X   4      76.493  43.285  44.0520  0.00  0.00     0.000 OA
ATOM     75   S  A00 X   4      76.968  42.588  45.2040  0.00  0.00     0.000 S
ENDBRANCH 62 70
ENDBRANCH 57 61
ENDBRANCH 41 57
ENDBRANCH 40 44
ENDBRANCH 20 40
ENDBRANCH 19 23
ENDBRANCH 1 19
TORSDOF 14
ENDMDL
MODEL 54
REMARK VINA RESULT:      -0.3     81.283     85.442
ROOT
ATOM      1  C1  A00 X   1      81.988  51.165  44.3520  0.00  0.00     0.000 C
ATOM      2  C2  A00 X   1      81.363  50.089  45.2790  0.00  0.00     0.000 C
ATOM      3  C3  A00 X   1      80.886  50.585  46.6840  0.00  0.00     0.000 C
ATOM      4  C4  A00 X   1      81.419  51.975  47.1190  0.00  0.00     0.000 C
ATOM      5  C5  A00 X   1      82.702  52.357  46.3820  0.00  0.00     0.000 C
ATOM      6  O5  A00 X   1      82.319  52.424  44.9900  0.00  0.00     0.000 O
ATOM      7   O  A00 X   1      81.327  49.655  47.6710  0.00  0.00     0.000 O
ATOM      9  HD  A00 X   1      81.448  50.449  47.9960  0.00  0.00     0.000 HD
ATOM      9   O  A00 X   1      80.434  52.992  46.9340  0.00  0.00     0.000 O
ATOM     11  HD  A00 X   1      80.555  53.785  47.2590  0.00  0.00     0.000 HD
ENDROOT
BRANCH 2 11
ATOM     11   O  A00 X   1      80.245  49.507  44.5820  0.00  0.00     0.000 O
ATOM     12   O  A00 X   1      78.747  47.963  45.6500  0.00  0.00     0.000 OA
ATOM     13   O  A00 X   1      81.080  47.343  45.3480  0.00  0.00     0.000 OA
ATOM     14   O  A00 X   1      79.634  47.546  43.4700  0.00  0.00     0.000 OA
ATOM     15   S  A00 X   1      79.916  47.991  44.8090  0.00  0.00     0.000 S
ENDBRANCH 2 11
BRANCH 5 16
ATOM     16   C  A00 X   1      83.899  51.438  46.6450  0.00  0.00     0.000 C
ATOM     17   O  A00 X   1      84.882  51.549  45.9430  0.00  0.00     0.000 OA
ATOM     18   O  A00 X   1      83.902  50.610  47.5340  0.00  0.00     0.000 OA
ENDBRANCH 5 16
BRANCH 1 19
ATOM     19  O4  A00 X   2      83.100  50.659  43.5740  0.00  0.00     0.000 O
BRANCH 19 23
ATOM     20  C1  A00 X   2      82.011  52.824  40.0400  0.00  0.00     0.000 C
ATOM     21  C2  A00 X   2      81.582  51.339  40.1290  0.00  0.00     0.000 C
ATOM     22  C3  A00 X   2      81.651  50.834  41.5860  0.00  0.00     0.000 C
ATOM     23  C4  A00 X   2      83.052  51.091  42.1840  0.00  0.00     0.000 C
ATOM     24  C5  A00 X   2      83.370  52.602  42.0170  0.00  0.00     0.000 C
ATOM     25  O5  A00 X   2      83.345  52.931  40.6040  0.00  0.00     0.000 O
ATOM     26   O  A00 X   2      81.179  49.476  41.6260  0.00  0.00     0.000 O
ATOM     28  HD  A00 X   2      81.694  49.225  40.9760  0.00  0.00     0.000 HD
BRANCH 21 30
ATOM     28   N  A00 X   2      81.785  51.232  38.6810  0.00  0.00     0.000 N
ATOM     30  HD  A00 X   2      81.318  50.543  38.9210  0.00  0.00     0.000 HD
ATOM     30   O  A00 X   2      80.258  49.673  37.8460  0.00  0.00     0.000 OA
ATOM     31   S  A00 X   2      81.663  49.810  38.0010  0.00  0.00     0.000 S
ATOM     32   O  A00 X   2      82.394  49.955  36.7810  0.00  0.00     0.000 OA
ATOM     33   O  A00 X   2      82.316  48.871  38.8640  0.00  0.00     0.000 OA
ENDBRANCH 21 30
BRANCH 24 34
ATOM     34   C  A00 X   2      84.617  53.165  42.7390  0.00  0.00     0.000 C
ATOM     35   O  A00 X   2      88.002  51.924  42.2350  0.00  0.00     0.000 OA
ATOM     36   O  A00 X   2      85.739  52.269  42.6200  0.00  0.00     0.000 O
ATOM     37   O  A00 X   2      86.607  52.702  40.4910  0.00  0.00     0.000 OA
ATOM     38   S  A00 X   2      86.987  52.854  41.8630  0.00  0.00     0.000 S
ATOM     39   O  A00 X   2      87.173  54.185  42.3560  0.00  0.00     0.000 OA
ENDBRANCH 24 34
BRANCH 20 40
ATOM     40  O4  A00 X   3      81.082  53.545  40.8630  0.00  0.00     0.000 O
BRANCH 40 44
ATOM     41  C1  A00 X   3      80.584  56.102  43.3800  0.00  0.00     0.000 C
ATOM     42  C2  A00 X   3      79.461  55.233  42.7750  0.00  0.00     0.000 C
ATOM     43  C3  A00 X   3      79.515  55.257  41.2250  0.00  0.00     0.000 C
ATOM     44  C4  A00 X   3      80.886  54.957  40.6340  0.00  0.00     0.000 C
ATOM     45  C5  A00 X   3      81.959  55.873  41.2880  0.00  0.00     0.000 C
ATOM     46  O5  A00 X   3      81.865  55.827  42.7490  0.00  0.00     0.000 O
ATOM     47   O  A00 X   3      78.469  54.556  40.5550  0.00  0.00     0.000 O
ATOM     49  HD  A00 X   3      79.113  54.333  40.0220  0.00  0.00     0.000 HD
BRANCH 42 49
ATOM     49   O  A00 X   3      79.639  53.895  43.2880  0.00  0.00     0.000 O
ATOM     50   O  A00 X   3      78.580  51.769  42.9880  0.00  0.00     0.000 OA
ATOM     51   O  A00 X   3      77.230  53.702  43.1620  0.00  0.00     0.000 OA
ATOM     52   O  A00 X   3      78.418  52.981  45.0740  0.00  0.00     0.000 OA
ATOM     53   S  A00 X   3      78.403  53.022  43.6520  0.00  0.00     0.000 S
ENDBRANCH 42 49
BRANCH 45 54
ATOM     54   C  A00 X   3      81.909  57.298  40.7250  0.00  0.00     0.000 C
ATOM     55   O  A00 X   3      80.996  57.647  40.0040  0.00  0.00     0.000 OA
ATOM     56   O  A00 X   3      82.785  58.107  40.9900  0.00  0.00     0.000 OA
ENDBRANCH 45 54
BRANCH 41 57
ATOM     57  O4  A00 X   4      80.226  57.502  43.3960  0.00  0.00     0.000 O
BRANCH 57 61
ATOM     58  C1  A00 X   4      81.122  60.735  46.1140  0.00  0.00     0.000 C
ATOM     59  C2  A00 X   4      82.294  60.034  45.3840  0.00  0.00     0.000 C
ATOM     60  C3  A00 X   4      81.844  59.163  44.1930  0.00  0.00     0.000 C
ATOM     61  C4  A00 X   4      80.666  58.240  44.5710  0.00  0.00     0.000 C
ATOM     62  C5  A00 X   4      79.532  59.167  45.0780  0.00  0.00     0.000 C
ATOM     63  O5  A00 X   4      79.980  59.861  46.2700  0.00  0.00     0.000 O
BRANCH 59 66
ATOM     64   N  A00 X   4      82.978  59.117  46.3130  0.00  0.00     0.000 N
ATOM     66  HD  A00 X   4      82.511  58.783  46.9610  0.00  0.00     0.000 HD
ATOM     66   O  A00 X   4      84.191  61.025  47.1440  0.00  0.00     0.000 OA
ATOM     67   S  A00 X   4      84.336  59.610  47.0010  0.00  0.00     0.000 S
ATOM     68   O  A00 X   4      84.294  58.859  48.2220  0.00  0.00     0.000 OA
ATOM     69   O  A00 X   4      85.293  59.128  46.0460  0.00  0.00     0.000 OA
ENDBRANCH 59 66
BRANCH 62 70
ATOM     70   C  A00 X   4      78.212  58.429  45.4050  0.00  0.00     0.000 C
ATOM     71   O  A00 X   4      77.518  56.132  48.1160  0.00  0.00     0.000 OA
ATOM     72   O  A00 X   4      77.095  55.952  45.8060  0.00  0.00     0.000 OA
ATOM     73   O  A00 X   4      78.318  57.820  46.7020  0.00  0.00     0.000 O
ATOM     74   O  A00 X   4      79.364  55.650  46.6420  0.00  0.00     0.000 OA
ATOM     75   S  A00 X   4      78.090  56.272  46.8060  0.00  0.00     0.000 S
ENDBRANCH 62 70
ENDBRANCH 57 61
ENDBRANCH 41 57
ENDBRANCH 40 44
ENDBRANCH 20 40
ENDBRANCH 19 23
ENDBRANCH 1 19
TORSDOF 14
ENDMDL
MODEL 55
REMARK VINA RESULT:      -0.3     31.046     36.537
ROOT
ATOM      1  C1  A00 X   1      46.489  14.035  20.5370  0.00  0.00     0.000 C
ATOM      2  C2  A00 X   1      46.661  15.138  19.4590  0.00  0.00     0.000 C
ATOM      3  C3  A00 X   1      45.378  15.509  18.6440  0.00  0.00     0.000 C
ATOM      4  C4  A00 X   1      44.206  14.500  18.7460  0.00  0.00     0.000 C
ATOM      5  C5  A00 X   1      44.680  13.105  19.1540  0.00  0.00     0.000 C
ATOM      6  O5  A00 X   1      45.252  13.282  20.4690  0.00  0.00     0.000 O
ATOM      7   O  A00 X   1      45.722  15.593  17.2630  0.00  0.00     0.000 O
ATOM      9  HD  A00 X   1      44.957  15.190  17.3120  0.00  0.00     0.000 HD
ATOM      9   O  A00 X   1      43.204  14.954  19.6550  0.00  0.00     0.000 O
ATOM     11  HD  A00 X   1      42.439  14.551  19.7040  0.00  0.00     0.000 HD
ENDROOT
BRANCH 2 11
ATOM     11   O  A00 X   1      47.157  16.320  20.1180  0.00  0.00     0.000 O
ATOM     12   O  A00 X   1      47.342  18.426  18.9780  0.00  0.00     0.000 OA
ATOM     13   O  A00 X   1      48.697  16.547  18.2350  0.00  0.00     0.000 OA
ATOM     14   O  A00 X   1      49.113  17.575  20.3390  0.00  0.00     0.000 OA
ATOM     15   S  A00 X   1      48.127  17.272  19.3370  0.00  0.00     0.000 S
ENDBRANCH 2 11
BRANCH 5 16
ATOM     16   C  A00 X   1      45.627  12.425  18.1600  0.00  0.00     0.000 C
ATOM     17   O  A00 X   1      46.211  11.420  18.5080  0.00  0.00     0.000 OA
ATOM     18   O  A00 X   1      45.809  12.853  17.0370  0.00  0.00     0.000 OA
ENDBRANCH 5 16
BRANCH 1 19
ATOM     19  O4  A00 X   2      47.637  13.157  20.6300  0.00  0.00     0.000 O
BRANCH 19 23
ATOM     20  C1  A00 X   2      47.481  12.899  24.9040  0.00  0.00     0.000 C
ATOM     21  C2  A00 X   2      48.475  13.911  24.2860  0.00  0.00     0.000 C
ATOM     22  C3  A00 X   2      48.119  14.200  22.8130  0.00  0.00     0.000 C
ATOM     23  C4  A00 X   2      48.023  12.885  22.0080  0.00  0.00     0.000 C
ATOM     24  C5  A00 X   2      47.015  11.955  22.7370  0.00  0.00     0.000 C
ATOM     25  O5  A00 X   2      47.500  11.702  24.0810  0.00  0.00     0.000 O
ATOM     26   O  A00 X   2      49.027  15.193  22.3050  0.00  0.00     0.000 O
ATOM     28  HD  A00 X   2      49.728  14.768  22.5840  0.00  0.00     0.000 HD
BRANCH 21 30
ATOM     28   N  A00 X   2      49.394  13.629  25.3930  0.00  0.00     0.000 N
ATOM     30  HD  A00 X   2      49.669  14.360  25.0200  0.00  0.00     0.000 HD
ATOM     30   O  A00 X   2      50.606  15.574  25.8460  0.00  0.00     0.000 OA
ATOM     31   S  A00 X   2      50.842  14.261  25.3580  0.00  0.00     0.000 S
ATOM     32   O  A00 X   2      51.601  13.420  26.2300  0.00  0.00     0.000 OA
ATOM     33   O  A00 X   2      51.322  14.145  24.0130  0.00  0.00     0.000 OA
ENDBRANCH 21 30
BRANCH 24 34
ATOM     34   C  A00 X   2      46.563  10.665  22.0130  0.00  0.00     0.000 C
ATOM     35   O  A00 X   2      48.840   8.063  20.8690  0.00  0.00     0.000 OA
ATOM     36   O  A00 X   2      47.676  10.007  21.3740  0.00  0.00     0.000 O
ATOM     37   O  A00 X   2      48.729   8.834  23.1020  0.00  0.00     0.000 OA
ATOM     38   S  A00 X   2      47.995   8.561  21.9040  0.00  0.00     0.000 S
ATOM     39   O  A00 X   2      46.736   7.891  22.0360  0.00  0.00     0.000 OA
ENDBRANCH 24 34
BRANCH 20 40
ATOM     40  O4  A00 X   3      46.190  13.521  24.8170  0.00  0.00     0.000 O
BRANCH 40 44
ATOM     41  C1  A00 X   3      42.681  13.153  23.9950  0.00  0.00     0.000 C
ATOM     42  C2  A00 X   3      43.345  14.471  24.4500  0.00  0.00     0.000 C
ATOM     43  C3  A00 X   3      44.165  14.259  25.7490  0.00  0.00     0.000 C
ATOM     44  C4  A00 X   3      45.136  13.086  25.7020  0.00  0.00     0.000 C
ATOM     45  C5  A00 X   3      44.394  11.800  25.2410  0.00  0.00     0.000 C
ATOM     46  O5  A00 X   3      43.627  12.048  24.0190  0.00  0.00     0.000 O
ATOM     47   O  A00 X   3      44.753  15.430  26.3120  0.00  0.00     0.000 O
ATOM     49  HD  A00 X   3      45.410  14.888  26.4680  0.00  0.00     0.000 HD
BRANCH 42 49
ATOM     49   O  A00 X   3      44.185  14.919  23.3640  0.00  0.00     0.000 O
ATOM     50   O  A00 X   3      45.692  16.738  22.9760  0.00  0.00     0.000 OA
ATOM     51   O  A00 X   3      43.654  17.164  24.0970  0.00  0.00     0.000 OA
ATOM     52   O  A00 X   3      43.581  16.572  21.8100  0.00  0.00     0.000 OA
ATOM     53   S  A00 X   3      44.297  16.436  23.0310  0.00  0.00     0.000 S
ENDBRANCH 42 49
BRANCH 45 54
ATOM     54   C  A00 X   3      43.551  11.195  26.3700  0.00  0.00     0.000 C
ATOM     55   O  A00 X   3      43.051  10.096  26.2480  0.00  0.00     0.000 OA
ATOM     56   O  A00 X   3      43.368  11.808  27.4110  0.00  0.00     0.000 OA
ENDBRANCH 45 54
BRANCH 41 57
ATOM     57  O4  A00 X   4      41.457  12.894  24.7170  0.00  0.00     0.000 O
BRANCH 57 61
ATOM     58  C1  A00 X   4      37.736  11.005  23.6120  0.00  0.00     0.000 C
ATOM     59  C2  A00 X   4      39.037  10.167  23.5600  0.00  0.00     0.000 C
ATOM     60  C3  A00 X   4      40.219  10.819  24.3050  0.00  0.00     0.000 C
ATOM     61  C4  A00 X   4      40.385  12.306  23.9270  0.00  0.00     0.000 C
ATOM     62  C5  A00 X   4      39.037  12.993  24.2570  0.00  0.00     0.000 C
ATOM     63  O5  A00 X   4      37.993  12.417  23.4310  0.00  0.00     0.000 O
BRANCH 59 66
ATOM     64   N  A00 X   4      39.480  10.022  22.1620  0.00  0.00     0.000 N
ATOM     66  HD  A00 X   4      39.259  10.647  21.6050  0.00  0.00     0.000 HD
ATOM     66   O  A00 X   4      37.902   8.215  21.9540  0.00  0.00     0.000 OA
ATOM     67   S  A00 X   4      39.142   8.658  21.3970  0.00  0.00     0.000 S
ATOM     68   O  A00 X   4      39.078   9.129  20.0440  0.00  0.00     0.000 OA
ATOM     69   O  A00 X   4      40.321   7.898  21.7010  0.00  0.00     0.000 OA
ENDBRANCH 59 66
BRANCH 62 70
ATOM     70   C  A00 X   4      39.040  14.526  24.0460  0.00  0.00     0.000 C
ATOM     71   O  A00 X   4      39.188  16.382  20.9410  0.00  0.00     0.000 OA
ATOM     72   O  A00 X   4      40.436  16.608  22.9250  0.00  0.00     0.000 OA
ATOM     73   O  A00 X   4      38.858  14.814  22.6510  0.00  0.00     0.000 O
ATOM     74   O  A00 X   4      40.918  14.767  21.4020  0.00  0.00     0.000 OA
ATOM     75   S  A00 X   4      39.952  15.676  21.9310  0.00  0.00     0.000 S
ENDBRANCH 62 70
ENDBRANCH 57 61
ENDBRANCH 41 57
ENDBRANCH 40 44
ENDBRANCH 20 40
ENDBRANCH 19 23
ENDBRANCH 1 19
TORSDOF 14
ENDMDL
MODEL 56
REMARK VINA RESULT:      -0.3     96.861    101.273
ROOT
ATOM      1  C1  A00 X   1      92.727  66.587  55.2830  0.00  0.00     0.000 C
ATOM      2  C2  A00 X   1      93.967  67.519  55.2610  0.00  0.00     0.000 C
ATOM      3  C3  A00 X   1      93.681  69.049  55.4230  0.00  0.00     0.000 C
ATOM      4  C4  A00 X   1      92.205  69.478  55.2180  0.00  0.00     0.000 C
ATOM      5  C5  A00 X   1      91.421  68.466  54.3820  0.00  0.00     0.000 C
ATOM      6  O5  A00 X   1      91.444  67.250  55.1620  0.00  0.00     0.000 O
ATOM      7   O  A00 X   1      94.449  69.763  54.4570  0.00  0.00     0.000 O
ATOM      9  HD  A00 X   1      93.665  70.131  54.4840  0.00  0.00     0.000 HD
ATOM      9   O  A00 X   1      91.545  69.689  56.4650  0.00  0.00     0.000 O
ATOM     11  HD  A00 X   1      90.761  70.057  56.4920  0.00  0.00     0.000 HD
ENDROOT
BRANCH 2 11
ATOM     11   O  A00 X   1      94.854  67.094  56.3140  0.00  0.00     0.000 O
ATOM     12   O  A00 X   1      96.804  68.358  56.9210  0.00  0.00     0.000 OA
ATOM     13   O  A00 X   1      96.668  67.371  54.7010  0.00  0.00     0.000 OA
ATOM     14   O  A00 X   1      96.887  65.988  56.6230  0.00  0.00     0.000 OA
ATOM     15   S  A00 X   1      96.401  67.239  56.1070  0.00  0.00     0.000 S
ENDBRANCH 2 11
BRANCH 5 16
ATOM     16   C  A00 X   1      91.924  68.283  52.9470  0.00  0.00     0.000 C
ATOM     17   O  A00 X   1      91.494  67.354  52.2950  0.00  0.00     0.000 OA
ATOM     18   O  A00 X   1      92.730  69.037  52.4370  0.00  0.00     0.000 OA
ENDBRANCH 5 16
BRANCH 1 19
ATOM     19  O4  A00 X   2      92.839  65.481  54.3550  0.00  0.00     0.000 O
BRANCH 19 23
ATOM     20  C1  A00 X   2      91.056  62.651  57.0340  0.00  0.00     0.000 C
ATOM     21  C2  A00 X   2      92.602  62.691  56.9620  0.00  0.00     0.000 C
ATOM     22  C3  A00 X   2      93.088  64.006  56.3170  0.00  0.00     0.000 C
ATOM     23  C4  A00 X   2      92.418  64.215  54.9400  0.00  0.00     0.000 C
ATOM     24  C5  A00 X   2      90.880  64.135  55.1430  0.00  0.00     0.000 C
ATOM     25  O5  A00 X   2      90.548  62.830  55.6850  0.00  0.00     0.000 O
ATOM     26   O  A00 X   2      94.525  64.025  56.3360  0.00  0.00     0.000 O
ATOM     28  HD  A00 X   2      94.591  63.234  55.9890  0.00  0.00     0.000 HD
BRANCH 21 30
ATOM     28   N  A00 X   2      92.612  61.241  57.1790  0.00  0.00     0.000 N
ATOM     30  HD  A00 X   2      93.417  61.523  57.3300  0.00  0.00     0.000 HD
ATOM     30   O  A00 X   2      94.554  60.696  58.3590  0.00  0.00     0.000 OA
ATOM     31   S  A00 X   2      93.987  60.469  57.0770  0.00  0.00     0.000 S
ATOM     32   O  A00 X   2      93.598  59.117  56.8200  0.00  0.00     0.000 OA
ATOM     33   O  A00 X   2      94.692  61.006  55.9510  0.00  0.00     0.000 OA
ENDBRANCH 21 30
BRANCH 24 34
ATOM     34   C  A00 X   2      89.969  64.540  53.9600  0.00  0.00     0.000 C
ATOM     35   O  A00 X   2      87.701  62.257  52.2570  0.00  0.00     0.000 OA
ATOM     36   O  A00 X   2      89.461  63.380  53.2710  0.00  0.00     0.000 O
ATOM     37   O  A00 X   2      87.666  62.662  54.5870  0.00  0.00     0.000 OA
ATOM     38   S  A00 X   2      87.897  63.221  53.2900  0.00  0.00     0.000 S
ATOM     39   O  A00 X   2      87.354  64.518  53.0200  0.00  0.00     0.000 OA
ENDBRANCH 24 34
BRANCH 20 40
ATOM     40  O4  A00 X   3      90.676  63.773  57.8420  0.00  0.00     0.000 O
BRANCH 40 44
ATOM     41  C1  A00 X   3      88.456  66.599  58.3070  0.00  0.00     0.000 C
ATOM     42  C2  A00 X   3      89.621  66.230  59.2510  0.00  0.00     0.000 C
ATOM     43  C3  A00 X   3      89.550  64.738  59.6650  0.00  0.00     0.000 C
ATOM     44  C4  A00 X   3      89.392  63.765  58.5030  0.00  0.00     0.000 C
ATOM     45  C5  A00 X   3      88.200  64.199  57.6040  0.00  0.00     0.000 C
ATOM     46  O5  A00 X   3      88.303  65.615  57.2460  0.00  0.00     0.000 O
ATOM     47   O  A00 X   3      90.529  64.305  60.6070  0.00  0.00     0.000 O
ATOM     49  HD  A00 X   3      90.528  63.595  60.1120  0.00  0.00     0.000 HD
BRANCH 42 49
ATOM     49   O  A00 X   3      90.847  66.524  58.5450  0.00  0.00     0.000 O
ATOM     50   O  A00 X   3      93.191  66.295  58.9740  0.00  0.00     0.000 OA
ATOM     51   O  A00 X   3      91.780  67.048  60.7160  0.00  0.00     0.000 OA
ATOM     52   O  A00 X   3      92.131  68.465  58.8570  0.00  0.00     0.000 OA
ATOM     53   S  A00 X   3      92.069  67.117  59.3050  0.00  0.00     0.000 S
ENDBRANCH 42 49
BRANCH 45 54
ATOM     54   C  A00 X   3      86.851  63.833  58.2350  0.00  0.00     0.000 C
ATOM     55   O  A00 X   3      86.792  63.428  59.3780  0.00  0.00     0.000 OA
ATOM     56   O  A00 X   3      85.814  63.940  57.5990  0.00  0.00     0.000 OA
ENDBRANCH 45 54
BRANCH 41 57
ATOM     57  O4  A00 X   4      87.240  66.867  59.0400  0.00  0.00     0.000 O
BRANCH 57 61
ATOM     58  C1  A00 X   4      83.952  69.587  58.3830  0.00  0.00     0.000 C
ATOM     59  C2  A00 X   4      84.234  68.494  57.3220  0.00  0.00     0.000 C
ATOM     60  C3  A00 X   4      85.175  67.380  57.8220  0.00  0.00     0.000 C
ATOM     61  C4  A00 X   4      86.429  67.956  58.5140  0.00  0.00     0.000 C
ATOM     62  C5  A00 X   4      85.916  68.849  59.6710  0.00  0.00     0.000 C
ATOM     63  O5  A00 X   4      85.143  69.946  59.1200  0.00  0.00     0.000 O
BRANCH 59 66
ATOM     64   N  A00 X   4      84.908  69.077  56.1480  0.00  0.00     0.000 N
ATOM     66  HD  A00 X   4      85.397  69.780  56.2750  0.00  0.00     0.000 HD
ATOM     66   O  A00 X   4      82.739  69.779  55.3740  0.00  0.00     0.000 OA
ATOM     67   S  A00 X   4      84.024  69.423  54.8600  0.00  0.00     0.000 S
ATOM     68   O  A00 X   4      84.788  70.502  54.3050  0.00  0.00     0.000 OA
ATOM     69   O  A00 X   4      84.138  68.189  54.1360  0.00  0.00     0.000 OA
ENDBRANCH 59 66
BRANCH 62 70
ATOM     70   C  A00 X   4      87.038  69.436  60.5610  0.00  0.00     0.000 C
ATOM     71   O  A00 X   4      89.494  71.963  59.7320  0.00  0.00     0.000 OA
ATOM     72   O  A00 X   4      89.748  69.846  60.7320  0.00  0.00     0.000 OA
ATOM     73   O  A00 X   4      87.610  70.581  59.9100  0.00  0.00     0.000 O
ATOM     74   O  A00 X   4      89.339  70.004  58.3350  0.00  0.00     0.000 OA
ATOM     75   S  A00 X   4      89.153  70.571  59.6320  0.00  0.00     0.000 S
ENDBRANCH 62 70
ENDBRANCH 57 61
ENDBRANCH 41 57
ENDBRANCH 40 44
ENDBRANCH 20 40
ENDBRANCH 19 23
ENDBRANCH 1 19
TORSDOF 14
ENDMDL
MODEL 57
REMARK VINA RESULT:      -0.3     91.214     94.903
ROOT
ATOM      1  C1  A00 X   1      64.622  69.546  87.4870  0.00  0.00     0.000 C
ATOM      2  C2  A00 X   1      65.119  69.456  88.9550  0.00  0.00     0.000 C
ATOM      3  C3  A00 X   1      64.115  68.841  89.9840  0.00  0.00     0.000 C
ATOM      4  C4  A00 X   1      62.644  68.740  89.5040  0.00  0.00     0.000 C
ATOM      5  C5  A00 X   1      62.336  69.723  88.3750  0.00  0.00     0.000 C
ATOM      6  O5  A00 X   1      63.204  69.322  87.2920  0.00  0.00     0.000 O
ATOM      7   O  A00 X   1      64.103  69.655  91.1550  0.00  0.00     0.000 O
ATOM      9  HD  A00 X   1      63.282  69.433  90.9900  0.00  0.00     0.000 HD
ATOM      9   O  A00 X   1      62.321  67.413  89.0890  0.00  0.00     0.000 O
ATOM     11  HD  A00 X   1      61.500  67.191  88.9250  0.00  0.00     0.000 HD
ENDROOT
BRANCH 2 11
ATOM     11   O  A00 X   1      66.332  68.679  88.9610  0.00  0.00     0.000 O
ATOM     12   O  A00 X   1      67.606  68.328  90.9660  0.00  0.00     0.000 OA
ATOM     13   O  A00 X   1      67.376  70.582  90.0810  0.00  0.00     0.000 OA
ATOM     14   O  A00 X   1      68.650  68.952  88.9080  0.00  0.00     0.000 OA
ATOM     15   S  A00 X   1      67.552  69.182  89.8070  0.00  0.00     0.000 S
ENDBRANCH 2 11
BRANCH 5 16
ATOM     16   C  A00 X   1      62.469  71.203  88.7510  0.00  0.00     0.000 C
ATOM     17   O  A00 X   1      62.435  72.032  87.8650  0.00  0.00     0.000 OA
ATOM     18   O  A00 X   1      62.599  71.574  89.9000  0.00  0.00     0.000 OA
ENDBRANCH 5 16
BRANCH 1 19
ATOM     19  O4  A00 X   2      65.064  70.752  86.8180  0.00  0.00     0.000 O
BRANCH 19 23
ATOM     20  C1  A00 X   2      65.659  68.807  83.0460  0.00  0.00     0.000 C
ATOM     21  C2  A00 X   2      66.902  69.025  83.9420  0.00  0.00     0.000 C
ATOM     22  C3  A00 X   2      66.486  69.322  85.3970  0.00  0.00     0.000 C
ATOM     23  C4  A00 X   2      65.494  70.506  85.4490  0.00  0.00     0.000 C
ATOM     24  C5  A00 X   2      64.309  70.174  84.5010  0.00  0.00     0.000 C
ATOM     25  O5  A00 X   2      64.824  69.990  83.1560  0.00  0.00     0.000 O
ATOM     26   O  A00 X   2      67.673  69.449  86.2000  0.00  0.00     0.000 O
ATOM     28  HD  A00 X   2      68.043  70.009  85.6530  0.00  0.00     0.000 HD
BRANCH 21 30
ATOM     28   N  A00 X   2      67.696  69.226  82.7250  0.00  0.00     0.000 N
ATOM     30  HD  A00 X   2      68.257  69.088  83.3700  0.00  0.00     0.000 HD
ATOM     30   O  A00 X   2      69.864  68.458  83.1350  0.00  0.00     0.000 OA
ATOM     31   S  A00 X   2      69.201  69.685  82.8680  0.00  0.00     0.000 S
ATOM     32   O  A00 X   2      69.500  70.269  81.5970  0.00  0.00     0.000 OA
ATOM     33   O  A00 X   2      69.244  70.683  83.8960  0.00  0.00     0.000 OA
ENDBRANCH 21 30
BRANCH 24 34
ATOM     34   C  A00 X   2      63.066  71.093  84.5440  0.00  0.00     0.000 C
ATOM     35   O  A00 X   2      61.888  73.066  81.7200  0.00  0.00     0.000 OA
ATOM     36   O  A00 X   2      63.049  72.002  83.4250  0.00  0.00     0.000 O
ATOM     37   O  A00 X   2      62.214  70.725  81.6520  0.00  0.00     0.000 OA
ATOM     38   S  A00 X   2      61.823  71.845  82.4520  0.00  0.00     0.000 S
ATOM     39   O  A00 X   2      60.665  71.696  83.2820  0.00  0.00     0.000 OA
ENDBRANCH 24 34
BRANCH 20 40
ATOM     40  O4  A00 X   3      64.970  67.679  83.6070  0.00  0.00     0.000 O
BRANCH 40 44
ATOM     41  C1  A00 X   3      61.819  66.181  84.5800  0.00  0.00     0.000 C
ATOM     42  C2  A00 X   3      63.202  65.522  84.7700  0.00  0.00     0.000 C
ATOM     43  C3  A00 X   3      64.012  65.541  83.4470  0.00  0.00     0.000 C
ATOM     44  C4  A00 X   3      64.087  66.903  82.7700  0.00  0.00     0.000 C
ATOM     45  C5  A00 X   3      62.659  67.498  82.6110  0.00  0.00     0.000 C
ATOM     46  O5  A00 X   3      61.928  67.450  83.8790  0.00  0.00     0.000 O
ATOM     47   O  A00 X   3      65.275  64.880  83.4810  0.00  0.00     0.000 O
ATOM     49  HD  A00 X   3      65.513  65.552  82.9890  0.00  0.00     0.000 HD
BRANCH 42 49
ATOM     49   O  A00 X   3      63.880  66.254  85.8140  0.00  0.00     0.000 O
ATOM     50   O  A00 X   3      66.034  66.189  86.8580  0.00  0.00     0.000 OA
ATOM     51   O  A00 X   3      64.936  64.151  86.3790  0.00  0.00     0.000 OA
ATOM     52   O  A00 X   3      64.028  65.553  88.0500  0.00  0.00     0.000 OA
ATOM     53   S  A00 X   3      64.778  65.506  86.8430  0.00  0.00     0.000 S
ENDBRANCH 42 49
BRANCH 45 54
ATOM     54   C  A00 X   3      61.898  66.843  81.4520  0.00  0.00     0.000 C
ATOM     55   O  A00 X   3      60.835  67.294  81.0770  0.00  0.00     0.000 OA
ATOM     56   O  A00 X   3      62.346  65.858  80.8870  0.00  0.00     0.000 OA
ENDBRANCH 45 54
BRANCH 41 57
ATOM     57  O4  A00 X   4      60.868  65.265  83.9920  0.00  0.00     0.000 O
BRANCH 57 61
ATOM     58  C1  A00 X   4      56.609  64.741  84.4730  0.00  0.00     0.000 C
ATOM     59  C2  A00 X   4      57.132  66.091  83.9220  0.00  0.00     0.000 C
ATOM     60  C3  A00 X   4      58.602  66.037  83.4590  0.00  0.00     0.000 C
ATOM     61  C4  A00 X   4      59.511  65.366  84.5110  0.00  0.00     0.000 C
ATOM     62  C5  A00 X   4      58.924  63.953  84.7550  0.00  0.00     0.000 C
ATOM     63  O5  A00 X   4      57.589  64.080  85.3070  0.00  0.00     0.000 O
BRANCH 59 66
ATOM     64   N  A00 X   4      57.090  67.123  84.9730  0.00  0.00     0.000 N
ATOM     66  HD  A00 X   4      57.160  66.860  85.7950  0.00  0.00     0.000 HD
ATOM     66   O  A00 X   4      54.755  67.411  84.4570  0.00  0.00     0.000 OA
ATOM     67   S  A00 X   4      55.863  68.149  84.9780  0.00  0.00     0.000 S
ATOM     68   O  A00 X   4      55.793  68.462  86.3760  0.00  0.00     0.000 OA
ATOM     69   O  A00 X   4      56.408  69.200  84.1670  0.00  0.00     0.000 OA
ENDBRANCH 59 66
BRANCH 62 70
ATOM     70   C  A00 X   4      59.769  63.074  85.7090  0.00  0.00     0.000 C
ATOM     71   O  A00 X   4      60.279  63.450  89.2730  0.00  0.00     0.000 OA
ATOM     72   O  A00 X   4      61.825  63.118  87.5280  0.00  0.00     0.000 OA
ATOM     73   O  A00 X   4      59.487  63.442  87.0680  0.00  0.00     0.000 O
ATOM     74   O  A00 X   4      60.804  65.310  87.8320  0.00  0.00     0.000 OA
ATOM     75   S  A00 X   4      60.687  63.894  87.9700  0.00  0.00     0.000 S
ENDBRANCH 62 70
ENDBRANCH 57 61
ENDBRANCH 41 57
ENDBRANCH 40 44
ENDBRANCH 20 40
ENDBRANCH 19 23
ENDBRANCH 1 19
TORSDOF 14
ENDMDL
MODEL 58
REMARK VINA RESULT:      -0.3     83.213     87.484
ROOT
ATOM      1  C1  A00 X   1      68.542  61.348  64.5190  0.00  0.00     0.000 C
ATOM      2  C2  A00 X   1      68.715  59.961  65.1930  0.00  0.00     0.000 C
ATOM      3  C3  A00 X   1      70.144  59.636  65.7410  0.00  0.00     0.000 C
ATOM      4  C4  A00 X   1      71.281  60.557  65.2290  0.00  0.00     0.000 C
ATOM      5  C5  A00 X   1      70.922  61.238  63.9080  0.00  0.00     0.000 C
ATOM      6  O5  A00 X   1      69.771  62.056  64.2190  0.00  0.00     0.000 O
ATOM      7   O  A00 X   1      70.491  58.309  65.3540  0.00  0.00     0.000 O
ATOM      9  HD  A00 X   1      71.197  58.799  65.2480  0.00  0.00     0.000 HD
ATOM      9   O  A00 X   1      71.633  61.542  66.2000  0.00  0.00     0.000 O
ATOM     11  HD  A00 X   1      72.339  62.032  66.0950  0.00  0.00     0.000 HD
ENDROOT
BRANCH 2 11
ATOM     11   O  A00 X   1      67.767  59.879  66.2760  0.00  0.00     0.000 O
ATOM     12   O  A00 X   1      67.517  57.889  67.5960  0.00  0.00     0.000 OA
ATOM     13   O  A00 X   1      66.967  57.823  65.2280  0.00  0.00     0.000 OA
ATOM     14   O  A00 X   1      65.626  59.075  66.7420  0.00  0.00     0.000 OA
ATOM     15   S  A00 X   1      66.939  58.561  66.4600  0.00  0.00     0.000 S
ENDBRANCH 2 11
BRANCH 5 16
ATOM     16   C  A00 X   1      70.698  60.287  62.7280  0.00  0.00     0.000 C
ATOM     17   O  A00 X   1      70.218  60.732  61.7060  0.00  0.00     0.000 OA
ATOM     18   O  A00 X   1      70.990  59.109  62.7770  0.00  0.00     0.000 OA
ENDBRANCH 5 16
BRANCH 1 19
ATOM     19  O4  A00 X   2      67.662  61.308  63.3690  0.00  0.00     0.000 O
BRANCH 19 23
ATOM     20  C1  A00 X   2      65.928  65.143  64.1780  0.00  0.00     0.000 C
ATOM     21  C2  A00 X   2      65.144  63.892  64.6440  0.00  0.00     0.000 C
ATOM     22  C3  A00 X   2      66.061  62.651  64.6810  0.00  0.00     0.000 C
ATOM     23  C4  A00 X   2      66.758  62.449  63.3170  0.00  0.00     0.000 C
ATOM     24  C5  A00 X   2      67.489  63.772  62.9570  0.00  0.00     0.000 C
ATOM     25  O5  A00 X   2      66.510  64.841  62.8820  0.00  0.00     0.000 O
ATOM     26   O  A00 X   2      65.306  61.535  65.1830  0.00  0.00     0.000 O
ATOM     28  HD  A00 X   2      64.651  61.665  64.6320  0.00  0.00     0.000 HD
BRANCH 21 30
ATOM     28   N  A00 X   2      63.900  64.609  64.3490  0.00  0.00     0.000 N
ATOM     30  HD  A00 X   2      63.687  63.931  64.8440  0.00  0.00     0.000 HD
ATOM     30   O  A00 X   2      62.265  63.876  65.8490  0.00  0.00     0.000 OA
ATOM     31   S  A00 X   2      62.530  63.827  64.4550  0.00  0.00     0.000 S
ATOM     32   O  A00 X   2      61.638  64.595  63.6430  0.00  0.00     0.000 OA
ATOM     33   O  A00 X   2      62.737  62.531  63.8790  0.00  0.00     0.000 OA
ENDBRANCH 21 30
BRANCH 24 34
ATOM     34   C  A00 X   2      68.455  63.762  61.7490  0.00  0.00     0.000 C
ATOM     35   O  A00 X   2      67.999  65.782  58.7540  0.00  0.00     0.000 OA
ATOM     36   O  A00 X   2      67.850  64.370  60.5900  0.00  0.00     0.000 O
ATOM     37   O  A00 X   2      68.097  66.669  60.9450  0.00  0.00     0.000 OA
ATOM     38   S  A00 X   2      68.576  65.657  60.0530  0.00  0.00     0.000 S
ATOM     39   O  A00 X   2      69.978  65.368  60.0690  0.00  0.00     0.000 OA
ENDBRANCH 24 34
BRANCH 20 40
ATOM     40  O4  A00 X   3      66.975  65.325  65.1430  0.00  0.00     0.000 O
BRANCH 40 44
ATOM     41  C1  A00 X   3      70.454  66.084  65.8080  0.00  0.00     0.000 C
ATOM     42  C2  A00 X   3      69.405  65.746  66.8890  0.00  0.00     0.000 C
ATOM     43  C3  A00 X   3      68.135  66.620  66.7230  0.00  0.00     0.000 C
ATOM     44  C4  A00 X   3      67.556  66.636  65.3140  0.00  0.00     0.000 C
ATOM     45  C5  A00 X   3      68.668  66.988  64.2860  0.00  0.00     0.000 C
ATOM     46  O5  A00 X   3      69.850  66.147  64.4860  0.00  0.00     0.000 O
ATOM     47   O  A00 X   3      67.130  66.454  67.7220  0.00  0.00     0.000 O
ATOM     49  HD  A00 X   3      66.600  66.534  67.0420  0.00  0.00     0.000 HD
BRANCH 42 49
ATOM     49   O  A00 X   3      69.099  64.340  66.7570  0.00  0.00     0.000 O
ATOM     50   O  A00 X   3      67.617  62.783  67.8090  0.00  0.00     0.000 OA
ATOM     51   O  A00 X   3      68.762  64.355  69.1530  0.00  0.00     0.000 OA
ATOM     52   O  A00 X   3      70.013  62.647  68.1030  0.00  0.00     0.000 OA
ATOM     53   S  A00 X   3      68.854  63.467  68.0210  0.00  0.00     0.000 S
ENDBRANCH 42 49
BRANCH 45 54
ATOM     54   C  A00 X   3      68.988  68.488  64.2880  0.00  0.00     0.000 C
ATOM     55   O  A00 X   3      69.698  68.970  63.4290  0.00  0.00     0.000 OA
ATOM     56   O  A00 X   3      68.536  69.223  65.1520  0.00  0.00     0.000 OA
ENDBRANCH 45 54
BRANCH 41 57
ATOM     57  O4  A00 X   4      71.222  67.257  66.1580  0.00  0.00     0.000 O
BRANCH 57 61
ATOM     58  C1  A00 X   4      75.321  68.409  65.4400  0.00  0.00     0.000 C
ATOM     59  C2  A00 X   4      74.390  68.182  64.2220  0.00  0.00     0.000 C
ATOM     60  C3  A00 X   4      72.894  68.133  64.5930  0.00  0.00     0.000 C
ATOM     61  C4  A00 X   4      72.632  67.203  65.7980  0.00  0.00     0.000 C
ATOM     62  C5  A00 X   4      73.504  67.740  66.9600  0.00  0.00     0.000 C
ATOM     63  O5  A00 X   4      74.903  67.641  66.5910  0.00  0.00     0.000 O
BRANCH 59 66
ATOM     64   N  A00 X   4      74.652  66.893  63.5570  0.00  0.00     0.000 N
ATOM     66  HD  A00 X   4      74.957  66.245  64.0450  0.00  0.00     0.000 HD
ATOM     66   O  A00 X   4      76.505  67.956  62.4470  0.00  0.00     0.000 OA
ATOM     67   S  A00 X   4      75.576  66.888  62.2510  0.00  0.00     0.000 S
ATOM     68   O  A00 X   4      76.128  65.567  62.3290  0.00  0.00     0.000 OA
ATOM     69   O  A00 X   4      74.576  67.049  61.2330  0.00  0.00     0.000 OA
ENDBRANCH 59 66
BRANCH 62 70
ATOM     70   C  A00 X   4      73.295  66.998  68.3020  0.00  0.00     0.000 C
ATOM     71   O  A00 X   4      74.243  63.619  69.1890  0.00  0.00     0.000 OA
ATOM     72   O  A00 X   4      72.198  64.757  69.4500  0.00  0.00     0.000 OA
ATOM     73   O  A00 X   4      74.044  65.772  68.2880  0.00  0.00     0.000 O
ATOM     74   O  A00 X   4      72.855  63.954  67.2450  0.00  0.00     0.000 OA
ATOM     75   S  A00 X   4      73.263  64.433  68.5270  0.00  0.00     0.000 S
ENDBRANCH 62 70
ENDBRANCH 57 61
ENDBRANCH 41 57
ENDBRANCH 40 44
ENDBRANCH 20 40
ENDBRANCH 19 23
ENDBRANCH 1 19
TORSDOF 14
ENDMDL
MODEL 59
REMARK VINA RESULT:      -0.3    107.340    111.424
ROOT
ATOM      1  C1  A00 X   1      93.190  74.237  71.5800  0.00  0.00     0.000 C
ATOM      2  C2  A00 X   1      94.446  75.086  71.2500  0.00  0.00     0.000 C
ATOM      3  C3  A00 X   1      94.721  76.302  72.1950  0.00  0.00     0.000 C
ATOM      4  C4  A00 X   1      93.535  76.728  73.0980  0.00  0.00     0.000 C
ATOM      5  C5  A00 X   1      92.189  76.268  72.5390  0.00  0.00     0.000 C
ATOM      6  O5  A00 X   1      92.269  74.825  72.5310  0.00  0.00     0.000 O
ATOM      7   O  A00 X   1      95.049  77.437  71.3960  0.00  0.00     0.000 O
ATOM      9  HD  A00 X   1      94.528  77.713  72.0300  0.00  0.00     0.000 HD
ATOM      9   O  A00 X   1      93.694  76.244  74.4310  0.00  0.00     0.000 O
ATOM     11  HD  A00 X   1      93.173  76.521  75.0650  0.00  0.00     0.000 HD
ENDROOT
BRANCH 2 11
ATOM     11   O  A00 X   1      95.588  74.207  71.2730  0.00  0.00     0.000 O
ATOM     12   O  A00 X   1      97.793  74.975  70.7130  0.00  0.00     0.000 OA
ATOM     13   O  A00 X   1      96.058  74.996  69.0090  0.00  0.00     0.000 OA
ATOM     14   O  A00 X   1      96.914  72.935  69.8320  0.00  0.00     0.000 OA
ATOM     15   S  A00 X   1      96.653  74.318  70.1280  0.00  0.00     0.000 S
ENDBRANCH 2 11
BRANCH 5 16
ATOM     16   C  A00 X   1      91.813  76.868  71.1800  0.00  0.00     0.000 C
ATOM     17   O  A00 X   1      90.861  76.407  70.5840  0.00  0.00     0.000 OA
ATOM     18   O  A00 X   1      92.427  77.791  70.6830  0.00  0.00     0.000 OA
ENDBRANCH 5 16
BRANCH 1 19
ATOM     19  O4  A00 X   2      92.499  73.772  70.3940  0.00  0.00     0.000 O
BRANCH 19 23
ATOM     20  C1  A00 X   2      91.486  69.975  72.1010  0.00  0.00     0.000 C
ATOM     21  C2  A00 X   2      92.725  70.034  71.1760  0.00  0.00     0.000 C
ATOM     22  C3  A00 X   2      93.209  71.488  70.9990  0.00  0.00     0.000 C
ATOM     23  C4  A00 X   2      92.053  72.391  70.5120  0.00  0.00     0.000 C
ATOM     24  C5  A00 X   2      90.873  72.228  71.5080  0.00  0.00     0.000 C
ATOM     25  O5  A00 X   2      90.466  70.835  71.5270  0.00  0.00     0.000 O
ATOM     26   O  A00 X   2      94.399  71.483  70.1910  0.00  0.00     0.000 O
ATOM     28  HD  A00 X   2      94.040  70.990  69.5770  0.00  0.00     0.000 HD
BRANCH 21 30
ATOM     28   N  A00 X   2      92.395  68.684  70.7100  0.00  0.00     0.000 N
ATOM     30  HD  A00 X   2      93.213  68.839  70.4700  0.00  0.00     0.000 HD
ATOM     30   O  A00 X   2      94.391  67.588  70.1840  0.00  0.00     0.000 OA
ATOM     31   S  A00 X   2      93.231  68.067  69.5190  0.00  0.00     0.000 S
ATOM     32   O  A00 X   2      92.373  67.051  68.9930  0.00  0.00     0.000 OA
ATOM     33   O  A00 X   2      93.420  69.107  68.5520  0.00  0.00     0.000 OA
ENDBRANCH 21 30
BRANCH 24 34
ATOM     34   C  A00 X   2      89.674  73.198  71.3780  0.00  0.00     0.000 C
ATOM     35   O  A00 X   2      86.276  72.150  70.5950  0.00  0.00     0.000 OA
ATOM     36   O  A00 X   2      88.557  72.563  70.7250  0.00  0.00     0.000 O
ATOM     37   O  A00 X   2      87.534  71.307  72.4130  0.00  0.00     0.000 OA
ATOM     38   S  A00 X   2      87.251  72.446  71.5930  0.00  0.00     0.000 S
ATOM     39   O  A00 X   2      87.085  73.709  72.2480  0.00  0.00     0.000 OA
ENDBRANCH 24 34
BRANCH 20 40
ATOM     40  O4  A00 X   3      91.915  70.514  73.3600  0.00  0.00     0.000 O
BRANCH 40 44
ATOM     41  C1  A00 X   3      91.216  72.655  76.1970  0.00  0.00     0.000 C
ATOM     42  C2  A00 X   3      92.519  71.851  76.0020  0.00  0.00     0.000 C
ATOM     43  C3  A00 X   3      92.212  70.364  75.6860  0.00  0.00     0.000 C
ATOM     44  C4  A00 X   3      91.204  70.150  74.5630  0.00  0.00     0.000 C
ATOM     45  C5  A00 X   3      89.922  70.986  74.8330  0.00  0.00     0.000 C
ATOM     46  O5  A00 X   3      90.259  72.379  75.1370  0.00  0.00     0.000 O
ATOM     47   O  A00 X   3      93.344  69.505  75.5710  0.00  0.00     0.000 O
ATOM     49  HD  A00 X   3      92.878  69.163  74.9260  0.00  0.00     0.000 HD
BRANCH 42 49
ATOM     49   O  A00 X   3      93.247  72.480  74.9250  0.00  0.00     0.000 O
ATOM     50   O  A00 X   3      95.293  72.076  73.7490  0.00  0.00     0.000 OA
ATOM     51   O  A00 X   3      95.251  71.791  76.0950  0.00  0.00     0.000 OA
ATOM     52   O  A00 X   3      95.032  73.976  75.2210  0.00  0.00     0.000 OA
ATOM     53   S  A00 X   3      94.799  72.593  74.9860  0.00  0.00     0.000 S
ENDBRANCH 42 49
BRANCH 45 54
ATOM     54   C  A00 X   3      89.033  70.335  75.9000  0.00  0.00     0.000 C
ATOM     55   O  A00 X   3      87.928  70.775  76.1380  0.00  0.00     0.000 OA
ATOM     56   O  A00 X   3      89.422  69.363  76.5290  0.00  0.00     0.000 OA
ENDBRANCH 45 54
BRANCH 41 57
ATOM     57  O4  A00 X   4      90.680  72.489  77.5290  0.00  0.00     0.000 O
BRANCH 57 61
ATOM     58  C1  A00 X   4      88.523  75.126  80.1810  0.00  0.00     0.000 C
ATOM     59  C2  A00 X   4      87.881  74.756  78.8200  0.00  0.00     0.000 C
ATOM     60  C3  A00 X   4      88.554  73.551  78.1310  0.00  0.00     0.000 C
ATOM     61  C4  A00 X   4      90.092  73.686  78.1130  0.00  0.00     0.000 C
ATOM     62  C5  A00 X   4      90.534  73.835  79.5900  0.00  0.00     0.000 C
ATOM     63  O5  A00 X   4      89.967  75.053  80.1370  0.00  0.00     0.000 O
BRANCH 59 66
ATOM     64   N  A00 X   4      88.005  75.867  77.8590  0.00  0.00     0.000 N
ATOM     66  HD  A00 X   4      88.679  76.402  77.9520  0.00  0.00     0.000 HD
ATOM     66   O  A00 X   4      86.083  76.861  78.9160  0.00  0.00     0.000 OA
ATOM     67   S  A00 X   4      86.745  76.829  77.6490  0.00  0.00     0.000 S
ATOM     68   O  A00 X   4      87.407  78.043  77.2690  0.00  0.00     0.000 OA
ATOM     69   O  A00 X   4      86.087  76.154  76.5670  0.00  0.00     0.000 OA
ENDBRANCH 59 66
BRANCH 62 70
ATOM     70   C  A00 X   4      92.068  73.875  79.7890  0.00  0.00     0.000 C
ATOM     71   O  A00 X   4      94.403  76.482  78.8620  0.00  0.00     0.000 OA
ATOM     72   O  A00 X   4      94.468  74.159  78.4840  0.00  0.00     0.000 OA
ATOM     73   O  A00 X   4      92.551  75.197  79.5000  0.00  0.00     0.000 O
ATOM     74   O  A00 X   4      92.976  75.553  77.1550  0.00  0.00     0.000 OA
ATOM     75   S  A00 X   4      93.653  75.350  78.3950  0.00  0.00     0.000 S
ENDBRANCH 62 70
ENDBRANCH 57 61
ENDBRANCH 41 57
ENDBRANCH 40 44
ENDBRANCH 20 40
ENDBRANCH 19 23
ENDBRANCH 1 19
TORSDOF 14
ENDMDL
MODEL 60
REMARK VINA RESULT:      -0.3     67.027     71.451
ROOT
ATOM      1  C1  A00 X   1      68.461  37.711  60.6290  0.00  0.00     0.000 C
ATOM      2  C2  A00 X   1      67.298  36.694  60.7780  0.00  0.00     0.000 C
ATOM      3  C3  A00 X   1      65.951  37.267  61.3320  0.00  0.00     0.000 C
ATOM      4  C4  A00 X   1      66.043  38.662  62.0010  0.00  0.00     0.000 C
ATOM      5  C5  A00 X   1      67.459  38.980  62.4830  0.00  0.00     0.000 C
ATOM      6  O5  A00 X   1      68.261  38.990  61.2810  0.00  0.00     0.000 O
ATOM      7   O  A00 X   1      65.449  36.374  62.3240  0.00  0.00     0.000 O
ATOM      9  HD  A00 X   1      65.323  37.179  62.6180  0.00  0.00     0.000 HD
ATOM      9   O  A00 X   1      65.589  39.692  61.1230  0.00  0.00     0.000 O
ATOM     11  HD  A00 X   1      65.464  40.498  61.4170  0.00  0.00     0.000 HD
ENDROOT
BRANCH 2 11
ATOM     11   O  A00 X   1      67.061  36.106  59.4840  0.00  0.00     0.000 O
ATOM     12   O  A00 X   1      65.551  34.263  59.1840  0.00  0.00     0.000 OA
ATOM     13   O  A00 X   1      67.552  33.955  60.5320  0.00  0.00     0.000 OA
ATOM     14   O  A00 X   1      67.721  34.284  58.1830  0.00  0.00     0.000 OA
ATOM     15   S  A00 X   1      66.952  34.547  59.3690  0.00  0.00     0.000 S
ENDBRANCH 2 11
BRANCH 5 16
ATOM     16   C  A00 X   1      67.997  38.046  63.5710  0.00  0.00     0.000 C
ATOM     17   O  A00 X   1      69.171  38.120  63.8710  0.00  0.00     0.000 OA
ATOM     18   O  A00 X   1      67.292  37.242  64.1480  0.00  0.00     0.000 OA
ENDBRANCH 5 16
BRANCH 1 19
ATOM     19  O4  A00 X   2      69.750  37.142  60.9660  0.00  0.00     0.000 O
BRANCH 19 23
ATOM     20  C1  A00 X   2      71.851  39.354  57.9560  0.00  0.00     0.000 C
ATOM     21  C2  A00 X   2      71.463  37.892  57.6280  0.00  0.00     0.000 C
ATOM     22  C3  A00 X   2      70.368  37.385  58.5900  0.00  0.00     0.000 C
ATOM     23  C4  A00 X   2      70.805  37.575  60.0600  0.00  0.00     0.000 C
ATOM     24  C5  A00 X   2      71.183  39.069  60.2540  0.00  0.00     0.000 C
ATOM     25  O5  A00 X   2      72.267  39.398  59.3470  0.00  0.00     0.000 O
ATOM     26   O  A00 X   2      69.995  36.051  58.2030  0.00  0.00     0.000 O
ATOM     28  HD  A00 X   2      70.816  35.775  58.1770  0.00  0.00     0.000 HD
BRANCH 21 30
ATOM     28   N  A00 X   2      72.705  37.776  56.8580  0.00  0.00     0.000 N
ATOM     30  HD  A00 X   2      72.204  37.109  56.6270  0.00  0.00     0.000 HD
ATOM     30   O  A00 X   2      72.332  36.289  55.0950  0.00  0.00     0.000 OA
ATOM     31   S  A00 X   2      73.111  36.362  56.2800  0.00  0.00     0.000 S
ATOM     32   O  A00 X   2      74.521  36.474  56.0700  0.00  0.00     0.000 OA
ATOM     33   O  A00 X   2      72.835  35.394  57.2990  0.00  0.00     0.000 OA
ENDBRANCH 21 30
BRANCH 24 34
ATOM     34   C  A00 X   2      71.435  39.573  61.6940  0.00  0.00     0.000 C
ATOM     35   O  A00 X   2      74.603  40.946  62.8500  0.00  0.00     0.000 OA
ATOM     36   O  A00 X   2      72.845  39.722  61.9560  0.00  0.00     0.000 O
ATOM     37   O  A00 X   2      73.401  41.779  60.9910  0.00  0.00     0.000 OA
ATOM     38   S  A00 X   2      73.314  41.185  62.2910  0.00  0.00     0.000 S
ATOM     39   O  A00 X   2      72.347  41.722  63.2010  0.00  0.00     0.000 OA
ENDBRANCH 24 34
BRANCH 20 40
ATOM     40  O4  A00 X   3      70.648  40.120  57.7900  0.00  0.00     0.000 O
BRANCH 40 44
ATOM     41  C1  A00 X   3      68.462  42.736  59.0150  0.00  0.00     0.000 C
ATOM     42  C2  A00 X   3      68.195  41.883  57.7560  0.00  0.00     0.000 C
ATOM     43  C3  A00 X   3      69.429  41.877  56.8170  0.00  0.00     0.000 C
ATOM     44  C4  A00 X   3      70.745  41.532  57.5040  0.00  0.00     0.000 C
ATOM     45  C5  A00 X   3      70.944  42.433  58.7550  0.00  0.00     0.000 C
ATOM     46  O5  A00 X   3      69.752  42.417  59.6060  0.00  0.00     0.000 O
ATOM     47   O  A00 X   3      69.266  41.189  55.5780  0.00  0.00     0.000 O
ATOM     49  HD  A00 X   3      70.080  40.940  55.7390  0.00  0.00     0.000 HD
BRANCH 42 49
ATOM     49   O  A00 X   3      67.868  40.551  58.2080  0.00  0.00     0.000 O
ATOM     50   O  A00 X   3      67.354  38.450  57.1830  0.00  0.00     0.000 OA
ATOM     51   O  A00 X   3      66.422  40.423  56.2720  0.00  0.00     0.000 OA
ATOM     52   O  A00 X   3      65.685  39.708  58.4000  0.00  0.00     0.000 OA
ATOM     53   S  A00 X   3      66.771  39.720  57.4810  0.00  0.00     0.000 S
ENDBRANCH 42 49
BRANCH 45 54
ATOM     54   C  A00 X   3      71.392  43.848  58.3700  0.00  0.00     0.000 C
ATOM     55   O  A00 X   3      71.750  44.637  59.2210  0.00  0.00     0.000 OA
ATOM     56   O  A00 X   3      71.394  44.207  57.2030  0.00  0.00     0.000 OA
ENDBRANCH 45 54
BRANCH 41 57
ATOM     57  O4  A00 X   4      68.266  44.145  58.7570  0.00  0.00     0.000 O
BRANCH 57 61
ATOM     58  C1  A00 X   4      66.825  47.405  61.1930  0.00  0.00     0.000 C
ATOM     59  C2  A00 X   4      68.108  46.658  61.6370  0.00  0.00     0.000 C
ATOM     60  C3  A00 X   4      68.720  45.775  60.5300  0.00  0.00     0.000 C
ATOM     61  C4  A00 X   4      67.654  44.893  59.8460  0.00  0.00     0.000 C
ATOM     62  C5  A00 X   4      66.578  45.860  59.2930  0.00  0.00     0.000 C
ATOM     63  O5  A00 X   4      65.957  46.565  60.3980  0.00  0.00     0.000 O
BRANCH 59 66
ATOM     64   N  A00 X   4      67.801  45.738  62.7480  0.00  0.00     0.000 N
ATOM     66  HD  A00 X   4      66.996  45.422  62.7940  0.00  0.00     0.000 HD
ATOM     66   O  A00 X   4      67.967  47.631  64.2280  0.00  0.00     0.000 OA
ATOM     67   S  A00 X   4      68.138  46.212  64.2380  0.00  0.00     0.000 S
ATOM     68   O  A00 X   4      67.151  45.477  64.9730  0.00  0.00     0.000 OA
ATOM     69   O  A00 X   4      69.473  45.699  64.3700  0.00  0.00     0.000 OA
ENDBRANCH 59 66
BRANCH 62 70
ATOM     70   C  A00 X   4      65.468  45.165  58.4680  0.00  0.00     0.000 C
ATOM     71   O  A00 X   4      62.853  42.941  59.6170  0.00  0.00     0.000 OA
ATOM     72   O  A00 X   4      64.373  42.728  57.8320  0.00  0.00     0.000 OA
ATOM     73   O  A00 X   4      64.508  44.579  59.3620  0.00  0.00     0.000 O
ATOM     74   O  A00 X   4      65.144  42.381  60.1170  0.00  0.00     0.000 OA
ATOM     75   S  A00 X   4      64.234  43.040  59.2370  0.00  0.00     0.000 S
ENDBRANCH 62 70
ENDBRANCH 57 61
ENDBRANCH 41 57
ENDBRANCH 40 44
ENDBRANCH 20 40
ENDBRANCH 19 23
ENDBRANCH 1 19
TORSDOF 14
ENDMDL
MODEL 61
REMARK VINA RESULT:      -0.3    112.643    116.860
ROOT
ATOM      1  C1  A00 X   1     101.345  59.174  85.7460  0.00  0.00     0.000 C
ATOM      2  C2  A00 X   1     100.022  59.649  86.4040  0.00  0.00     0.000 C
ATOM      3  C3  A00 X   1      99.889  61.188  86.6470  0.00  0.00     0.000 C
ATOM      4  C4  A00 X   1     101.208  61.997  86.5500  0.00  0.00     0.000 C
ATOM      5  C5  A00 X   1     102.440  61.120  86.7760  0.00  0.00     0.000 C
ATOM      6  O5  A00 X   1     102.408  60.158  85.6990  0.00  0.00     0.000 O
ATOM      7   O  A00 X   1      99.379  61.401  87.9620  0.00  0.00     0.000 O
ATOM      9  HD  A00 X   1     100.000  61.990  87.8300  0.00  0.00     0.000 HD
ATOM      9   O  A00 X   1     101.317  62.668  85.2960  0.00  0.00     0.000 O
ATOM     11  HD  A00 X   1     101.939  63.257  85.1640  0.00  0.00     0.000 HD
ENDROOT
BRANCH 2 11
ATOM     11   O  A00 X   1      98.934  59.210  85.5660  0.00  0.00     0.000 O
ATOM     12   O  A00 X   1      96.669  59.904  85.9590  0.00  0.00     0.000 OA
ATOM     13   O  A00 X   1      97.804  58.547  87.6280  0.00  0.00     0.000 OA
ATOM     14   O  A00 X   1      97.223  57.622  85.5150  0.00  0.00     0.000 OA
ATOM     15   S  A00 X   1      97.573  58.817  86.2350  0.00  0.00     0.000 S
ENDBRANCH 2 11
BRANCH 5 16
ATOM     16   C  A00 X   1     102.535  60.482  88.1660  0.00  0.00     0.000 C
ATOM     17   O  A00 X   1     103.357  59.608  88.3490  0.00  0.00     0.000 OA
ATOM     18   O  A00 X   1     101.823  60.823  89.0900  0.00  0.00     0.000 OA
ENDBRANCH 5 16
BRANCH 1 19
ATOM     19  O4  A00 X   2     101.816  57.913  86.2810  0.00  0.00     0.000 O
BRANCH 19 23
ATOM     20  C1  A00 X   2     103.096  56.429  82.4690  0.00  0.00     0.000 C
ATOM     21  C2  A00 X   2     101.715  55.963  82.9900  0.00  0.00     0.000 C
ATOM     22  C3  A00 X   2     101.213  56.888  84.1190  0.00  0.00     0.000 C
ATOM     23  C4  A00 X   2     102.270  57.000  85.2400  0.00  0.00     0.000 C
ATOM     24  C5  A00 X   2     103.606  57.454  84.5900  0.00  0.00     0.000 C
ATOM     25  O5  A00 X   2     104.004  56.467  83.6020  0.00  0.00     0.000 O
ATOM     26   O  A00 X   2      99.901  56.456  84.5200  0.00  0.00     0.000 O
ATOM     28  HD  A00 X   2     100.146  55.631  84.6110  0.00  0.00     0.000 HD
BRANCH 21 30
ATOM     28   N  A00 X   2     101.953  54.666  82.3510  0.00  0.00     0.000 N
ATOM     30  HD  A00 X   2     101.107  54.704  82.5320  0.00  0.00     0.000 HD
ATOM     30   O  A00 X   2      99.892  53.800  81.6700  0.00  0.00     0.000 OA
ATOM     31   S  A00 X   2     100.920  53.495  82.6010  0.00  0.00     0.000 S
ATOM     32   O  A00 X   2     101.670  52.313  82.3080  0.00  0.00     0.000 OA
ATOM     33   O  A00 X   2     100.570  53.530  83.9900  0.00  0.00     0.000 OA
ENDBRANCH 21 30
BRANCH 24 34
ATOM     34   C  A00 X   2     104.767  57.864  85.5260  0.00  0.00     0.000 C
ATOM     35   O  A00 X   2     106.209  55.685  88.0620  0.00  0.00     0.000 OA
ATOM     36   O  A00 X   2     104.886  56.955  86.6390  0.00  0.00     0.000 O
ATOM     37   O  A00 X   2     106.051  55.122  85.7700  0.00  0.00     0.000 OA
ATOM     38   S  A00 X   2     106.248  56.172  86.7220  0.00  0.00     0.000 S
ATOM     39   O  A00 X   2     107.281  57.126  86.4520  0.00  0.00     0.000 OA
ENDBRANCH 24 34
BRANCH 20 40
ATOM     40  O4  A00 X   3     102.894  57.759  81.9710  0.00  0.00     0.000 O
BRANCH 40 44
ATOM     41  C1  A00 X   3     104.108  61.169  81.8010  0.00  0.00     0.000 C
ATOM     42  C2  A00 X   3     102.795  60.669  81.1600  0.00  0.00     0.000 C
ATOM     43  C3  A00 X   3     103.043  59.404  80.2990  0.00  0.00     0.000 C
ATOM     44  C4  A00 X   3     103.821  58.300  81.0050  0.00  0.00     0.000 C
ATOM     45  C5  A00 X   3     105.128  58.878  81.6180  0.00  0.00     0.000 C
ATOM     46  O5  A00 X   3     104.847  60.076  82.4130  0.00  0.00     0.000 O
ATOM     47   O  A00 X   3     101.914  58.903  79.5870  0.00  0.00     0.000 O
ATOM     49  HD  A00 X   3     102.251  58.138  79.8150  0.00  0.00     0.000 HD
BRANCH 42 49
ATOM     49   O  A00 X   3     101.873  60.400  82.2390  0.00  0.00     0.000 O
ATOM     50   O  A00 X   3      99.640  59.560  82.4420  0.00  0.00     0.000 OA
ATOM     51   O  A00 X   3     100.131  61.087  80.7050  0.00  0.00     0.000 OA
ATOM     52   O  A00 X   3     100.175  61.866  82.9360  0.00  0.00     0.000 OA
ATOM     53   S  A00 X   3     100.362  60.741  82.0860  0.00  0.00     0.000 S
ENDBRANCH 42 49
BRANCH 45 54
ATOM     54   C  A00 X   3     106.205  59.102  80.5500  0.00  0.00     0.000 C
ATOM     55   O  A00 X   3     105.937  58.999  79.3700  0.00  0.00     0.000 OA
ATOM     56   O  A00 X   3     107.350  59.386  80.8660  0.00  0.00     0.000 OA
ENDBRANCH 45 54
BRANCH 41 57
ATOM     57  O4  A00 X   4     104.886  61.959  80.8750  0.00  0.00     0.000 O
BRANCH 57 61
ATOM     58  C1  A00 X   4     107.506  65.352  81.3880  0.00  0.00     0.000 C
ATOM     59  C2  A00 X   4     107.876  64.018  82.0840  0.00  0.00     0.000 C
ATOM     60  C3  A00 X   4     107.086  62.806  81.5490  0.00  0.00     0.000 C
ATOM     61  C4  A00 X   4     105.573  63.101  81.4630  0.00  0.00     0.000 C
ATOM     62  C5  A00 X   4     105.423  64.344  80.5510  0.00  0.00     0.000 C
ATOM     63  O5  A00 X   4     106.082  65.475  81.1750  0.00  0.00     0.000 O
BRANCH 59 66
ATOM     64   N  A00 X   4     107.551  64.104  83.5200  0.00  0.00     0.000 N
ATOM     66  HD  A00 X   4     106.912  64.640  83.7540  0.00  0.00     0.000 HD
ATOM     66   O  A00 X   4     109.655  65.236  83.8250  0.00  0.00     0.000 OA
ATOM     67   S  A00 X   4     108.738  64.411  84.5470  0.00  0.00     0.000 S
ATOM     68   O  A00 X   4     108.010  65.067  85.5940  0.00  0.00     0.000 OA
ATOM     69   O  A00 X   4     109.149  63.073  84.8660  0.00  0.00     0.000 OA
ENDBRANCH 59 66
BRANCH 62 70
ATOM     70   C  A00 X   4     103.955  64.734  80.2510  0.00  0.00     0.000 C
ATOM     71   O  A00 X   4     101.476  66.109  82.5020  0.00  0.00     0.000 OA
ATOM     72   O  A00 X   4     101.348  64.301  80.9980  0.00  0.00     0.000 OA
ATOM     73   O  A00 X   4     103.421  65.465  81.3670  0.00  0.00     0.000 O
ATOM     74   O  A00 X   4     102.551  64.036  83.1010  0.00  0.00     0.000 OA
ATOM     75   S  A00 X   4     102.126  64.909  82.0550  0.00  0.00     0.000 S
ENDBRANCH 62 70
ENDBRANCH 57 61
ENDBRANCH 41 57
ENDBRANCH 40 44
ENDBRANCH 20 40
ENDBRANCH 19 23
ENDBRANCH 1 19
TORSDOF 14
ENDMDL
MODEL 62
REMARK VINA RESULT:      -0.3     65.663     69.299
ROOT
ATOM      1  C1  A00 X   1      59.295  48.895  61.0240  0.00  0.00     0.000 C
ATOM      2  C2  A00 X   1      59.708  48.501  59.5810  0.00  0.00     0.000 C
ATOM      3  C3  A00 X   1      60.819  47.407  59.4580  0.00  0.00     0.000 C
ATOM      4  C4  A00 X   1      61.622  47.122  60.7530  0.00  0.00     0.000 C
ATOM      5  C5  A00 X   1      61.572  48.293  61.7340  0.00  0.00     0.000 C
ATOM      6  O5  A00 X   1      60.174  48.425  62.0760  0.00  0.00     0.000 O
ATOM      7   O  A00 X   1      61.767  47.826  58.4780  0.00  0.00     0.000 O
ATOM      9  HD  A00 X   1      62.214  47.483  59.1360  0.00  0.00     0.000 HD
ATOM      9   O  A00 X   1      61.166  45.933  61.3980  0.00  0.00     0.000 O
ATOM     11  HD  A00 X   1      61.613  45.589  62.0560  0.00  0.00     0.000 HD
ENDROOT
BRANCH 2 11
ATOM     11   O  A00 X   1      58.524  48.047  58.8950  0.00  0.00     0.000 O
ATOM     12   O  A00 X   1      58.623  47.064  56.7060  0.00  0.00     0.000 OA
ATOM     13   O  A00 X   1      59.284  49.387  56.9990  0.00  0.00     0.000 OA
ATOM     14   O  A00 X   1      57.010  48.739  57.2590  0.00  0.00     0.000 OA
ATOM     15   S  A00 X   1      58.384  48.326  57.3590  0.00  0.00     0.000 S
ENDBRANCH 2 11
BRANCH 5 16
ATOM     16   C  A00 X   1      62.203  49.593  61.2230  0.00  0.00     0.000 C
ATOM     17   O  A00 X   1      61.994  50.620  61.8360  0.00  0.00     0.000 OA
ATOM     18   O  A00 X   1      62.909  49.630  60.2350  0.00  0.00     0.000 OA
ENDBRANCH 5 16
BRANCH 1 19
ATOM     19  O4  A00 X   2      59.016  50.310  61.1620  0.00  0.00     0.000 O
BRANCH 19 23
ATOM     20  C1  A00 X   2      55.663  49.706  63.7600  0.00  0.00     0.000 C
ATOM     21  C2  A00 X   2      55.369  49.945  62.2600  0.00  0.00     0.000 C
ATOM     22  C3  A00 X   2      56.635  49.713  61.4080  0.00  0.00     0.000 C
ATOM     23  C4  A00 X   2      57.809  50.569  61.9350  0.00  0.00     0.000 C
ATOM     24  C5  A00 X   2      57.988  50.252  63.4450  0.00  0.00     0.000 C
ATOM     25  O5  A00 X   2      56.758  50.581  64.1400  0.00  0.00     0.000 O
ATOM     26   O  A00 X   2      56.295  49.879  60.0210  0.00  0.00     0.000 O
ATOM     28  HD  A00 X   2      55.908  50.642  60.1560  0.00  0.00     0.000 HD
BRANCH 21 30
ATOM     28   N  A00 X   2      54.146  50.649  62.6580  0.00  0.00     0.000 N
ATOM     30  HD  A00 X   2      54.073  50.479  61.8120  0.00  0.00     0.000 HD
ATOM     30   O  A00 X   2      52.548  50.335  60.9830  0.00  0.00     0.000 OA
ATOM     31   S  A00 X   2      53.305  51.396  61.5480  0.00  0.00     0.000 S
ATOM     32   O  A00 X   2      52.543  52.354  62.2870  0.00  0.00     0.000 OA
ATOM     33   O  A00 X   2      54.237  52.060  60.6850  0.00  0.00     0.000 OA
ENDBRANCH 21 30
BRANCH 24 34
ATOM     34   C  A00 X   2      59.244  50.806  64.1580  0.00  0.00     0.000 C
ATOM     35   O  A00 X   2      60.109  54.339  64.3170  0.00  0.00     0.000 OA
ATOM     36   O  A00 X   2      59.513  52.165  63.7620  0.00  0.00     0.000 O
ATOM     37   O  A00 X   2      58.045  53.450  65.0520  0.00  0.00     0.000 OA
ATOM     38   S  A00 X   2      59.452  53.227  64.9210  0.00  0.00     0.000 S
ATOM     39   O  A00 X   2      60.139  52.648  66.0360  0.00  0.00     0.000 OA
ENDBRANCH 24 34
BRANCH 20 40
ATOM     40  O4  A00 X   3      56.085  48.338  63.8600  0.00  0.00     0.000 O
BRANCH 40 44
ATOM     41  C1  A00 X   3      58.469  45.997  65.2600  0.00  0.00     0.000 C
ATOM     42  C2  A00 X   3      57.333  45.619  64.2850  0.00  0.00     0.000 C
ATOM     43  C3  A00 X   3      55.972  46.177  64.7750  0.00  0.00     0.000 C
ATOM     44  C4  A00 X   3      55.986  47.659  65.1300  0.00  0.00     0.000 C
ATOM     45  C5  A00 X   3      57.150  47.959  66.1150  0.00  0.00     0.000 C
ATOM     46  O5  A00 X   3      58.412  47.405  65.6180  0.00  0.00     0.000 O
ATOM     47   O  A00 X   3      54.833  45.816  63.9960  0.00  0.00     0.000 O
ATOM     49  HD  A00 X   3      54.600  46.633  64.1630  0.00  0.00     0.000 HD
BRANCH 42 49
ATOM     49   O  A00 X   3      57.689  46.155  62.9920  0.00  0.00     0.000 O
ATOM     50   O  A00 X   3      56.683  46.257  60.8220  0.00  0.00     0.000 OA
ATOM     51   O  A00 X   3      56.522  44.250  62.0610  0.00  0.00     0.000 OA
ATOM     52   O  A00 X   3      58.642  44.905  61.2480  0.00  0.00     0.000 OA
ATOM     53   S  A00 X   3      57.370  45.357  61.6940  0.00  0.00     0.000 S
ENDBRANCH 42 49
BRANCH 45 54
ATOM     54   C  A00 X   3      56.816  47.510  67.5430  0.00  0.00     0.000 C
ATOM     55   O  A00 X   3      55.823  46.848  67.7670  0.00  0.00     0.000 OA
ATOM     56   O  A00 X   3      57.540  47.811  68.4790  0.00  0.00     0.000 OA
ENDBRANCH 45 54
BRANCH 41 57
ATOM     57  O4  A00 X   4      58.518  45.103  66.3950  0.00  0.00     0.000 O
BRANCH 57 61
ATOM     58  C1  A00 X   4      61.766  43.580  68.7960  0.00  0.00     0.000 C
ATOM     59  C2  A00 X   4      61.525  45.110  68.7600  0.00  0.00     0.000 C
ATOM     60  C3  A00 X   4      60.151  45.502  68.1790  0.00  0.00     0.000 C
ATOM     61  C4  A00 X   4      59.856  44.763  66.8560  0.00  0.00     0.000 C
ATOM     62  C5  A00 X   4      59.945  43.249  67.1730  0.00  0.00     0.000 C
ATOM     63  O5  A00 X   4      61.295  42.929  67.5940  0.00  0.00     0.000 O
BRANCH 59 66
ATOM     64   N  A00 X   4      62.582  45.572  67.8430  0.00  0.00     0.000 N
ATOM     66  HD  A00 X   4      62.905  44.996  67.2820  0.00  0.00     0.000 HD
ATOM     66   O  A00 X   4      64.046  45.690  69.7510  0.00  0.00     0.000 OA
ATOM     67   S  A00 X   4      63.865  46.294  68.4680  0.00  0.00     0.000 S
ATOM     68   O  A00 X   4      64.853  45.963  67.4840  0.00  0.00     0.000 OA
ATOM     69   O  A00 X   4      63.430  47.662  68.4280  0.00  0.00     0.000 OA
ENDBRANCH 59 66
BRANCH 62 70
ATOM     70   C  A00 X   4      59.569  42.332  65.9850  0.00  0.00     0.000 C
ATOM     71   O  A00 X   4      61.375  41.776  62.8970  0.00  0.00     0.000 OA
ATOM     72   O  A00 X   4      59.107  42.284  63.2780  0.00  0.00     0.000 OA
ATOM     73   O  A00 X   4      60.688  42.231  65.0900  0.00  0.00     0.000 O
ATOM     74   O  A00 X   4      60.787  44.037  63.4980  0.00  0.00     0.000 OA
ATOM     75   S  A00 X   4      60.471  42.648  63.5940  0.00  0.00     0.000 S
ENDBRANCH 62 70
ENDBRANCH 57 61
ENDBRANCH 41 57
ENDBRANCH 40 44
ENDBRANCH 20 40
ENDBRANCH 19 23
ENDBRANCH 1 19
TORSDOF 14
ENDMDL
MODEL 63
REMARK VINA RESULT:      -0.3    116.867    121.062
ROOT
ATOM      1  C1  A00 X   1     106.645  69.319  77.7810  0.00  0.00     0.000 C
ATOM      2  C2  A00 X   1     106.961  69.584  76.2840  0.00  0.00     0.000 C
ATOM      3  C3  A00 X   1     105.786  69.338  75.2810  0.00  0.00     0.000 C
ATOM      4  C4  A00 X   1     104.590  68.525  75.8380  0.00  0.00     0.000 C
ATOM      5  C5  A00 X   1     104.986  67.664  77.0370  0.00  0.00     0.000 C
ATOM      6  O5  A00 X   1     105.409  68.610  78.0440  0.00  0.00     0.000 O
ATOM      7   O  A00 X   1     106.285  68.610  74.1620  0.00  0.00     0.000 O
ATOM      9  HD  A00 X   1     105.512  68.275  74.3600  0.00  0.00     0.000 HD
ATOM      9   O  A00 X   1     103.500  69.376  76.1940  0.00  0.00     0.000 O
ATOM     11  HD  A00 X   1     102.727  69.041  76.3920  0.00  0.00     0.000 HD
ENDROOT
BRANCH 2 11
ATOM     11   O  A00 X   1     107.403  70.950  76.1640  0.00  0.00     0.000 O
ATOM     12   O  A00 X   1     107.781  71.979  74.0280  0.00  0.00     0.000 OA
ATOM     13   O  A00 X   1     109.167  70.098  74.7040  0.00  0.00     0.000 OA
ATOM     14   O  A00 X   1     109.350  72.191  75.8180  0.00  0.00     0.000 OA
ATOM     15   S  A00 X   1     108.486  71.304  75.0880  0.00  0.00     0.000 S
ENDBRANCH 2 11
BRANCH 5 16
ATOM     16   C  A00 X   1     106.025  66.578  76.7410  0.00  0.00     0.000 C
ATOM     17   O  A00 X   1     106.545  66.001  77.6730  0.00  0.00     0.000 OA
ATOM     18   O  A00 X   1     106.342  66.271  75.6090  0.00  0.00     0.000 OA
ENDBRANCH 5 16
BRANCH 1 19
ATOM     19  O4  A00 X   2     107.758  68.724  78.4920  0.00  0.00     0.000 O
BRANCH 19 23
ATOM     20  C1  A00 X   2     107.123  71.040  82.0420  0.00  0.00     0.000 C
ATOM     21  C2  A00 X   2     108.209  71.530  81.0530  0.00  0.00     0.000 C
ATOM     22  C3  A00 X   2     108.026  70.876  79.6680  0.00  0.00     0.000 C
ATOM     23  C4  A00 X   2     107.981  69.337  79.7940  0.00  0.00     0.000 C
ATOM     24  C5  A00 X   2     106.872  68.977  80.8210  0.00  0.00     0.000 C
ATOM     25  O5  A00 X   2     107.199  69.590  82.0950  0.00  0.00     0.000 O
ATOM     26   O  A00 X   2     109.013  71.414  78.7700  0.00  0.00     0.000 O
ATOM     28  HD  A00 X   2     109.666  71.266  79.3190  0.00  0.00     0.000 HD
BRANCH 21 30
ATOM     28   N  A00 X   2     108.991  71.998  82.2020  0.00  0.00     0.000 N
ATOM     30  HD  A00 X   2     109.326  72.377  81.4990  0.00  0.00     0.000 HD
ATOM     30   O  A00 X   2     110.202  73.882  81.5390  0.00  0.00     0.000 OA
ATOM     31   S  A00 X   2     110.452  72.547  81.9520  0.00  0.00     0.000 S
ATOM     32   O  A00 X   2     111.085  72.419  83.2290  0.00  0.00     0.000 OA
ATOM     33   O  A00 X   2     111.074  71.678  80.9990  0.00  0.00     0.000 OA
ENDBRANCH 21 30
BRANCH 24 34
ATOM     34   C  A00 X   2     106.466  67.491  80.9600  0.00  0.00     0.000 C
ATOM     35   O  A00 X   2     108.703  64.865  82.1260  0.00  0.00     0.000 OA
ATOM     36   O  A00 X   2     107.625  66.644  81.0950  0.00  0.00     0.000 O
ATOM     37   O  A00 X   2     108.225  66.833  83.3480  0.00  0.00     0.000 OA
ATOM     38   S  A00 X   2     107.717  65.844  82.4460  0.00  0.00     0.000 S
ATOM     39   O  A00 X   2     106.407  65.326  82.7000  0.00  0.00     0.000 OA
ENDBRANCH 24 34
BRANCH 20 40
ATOM     40  O4  A00 X   3     105.869  71.434  81.4660  0.00  0.00     0.000 O
BRANCH 40 44
ATOM     41  C1  A00 X   3     102.467  70.494  80.6490  0.00  0.00     0.000 C
ATOM     42  C2  A00 X   3     103.111  71.855  80.3070  0.00  0.00     0.000 C
ATOM     43  C3  A00 X   3     103.771  72.487  81.5590  0.00  0.00     0.000 C
ATOM     44  C4  A00 X   3     104.709  71.557  82.3180  0.00  0.00     0.000 C
ATOM     45  C5  A00 X   3     103.991  70.214  82.6290  0.00  0.00     0.000 C
ATOM     46  O5  A00 X   3     103.374  69.659  81.4220  0.00  0.00     0.000 O
ATOM     47   O  A00 X   3     104.323  73.790  81.3820  0.00  0.00     0.000 O
ATOM     49  HD  A00 X   3     104.944  73.474  81.8970  0.00  0.00     0.000 HD
BRANCH 42 49
ATOM     49   O  A00 X   3     104.080  71.615  79.2630  0.00  0.00     0.000 O
ATOM     50   O  A00 X   3     105.670  72.923  78.0420  0.00  0.00     0.000 OA
ATOM     51   O  A00 X   3     103.531  73.834  78.4690  0.00  0.00     0.000 OA
ATOM     52   O  A00 X   3     103.701  72.007  76.9790  0.00  0.00     0.000 OA
ATOM     53   S  A00 X   3     104.270  72.648  78.1140  0.00  0.00     0.000 S
ENDBRANCH 42 49
BRANCH 45 54
ATOM     54   C  A00 X   3     103.009  70.353  83.7990  0.00  0.00     0.000 C
ATOM     55   O  A00 X   3     102.485  69.373  84.2860  0.00  0.00     0.000 OA
ATOM     56   O  A00 X   3     102.737  71.451  84.2590  0.00  0.00     0.000 OA
ENDBRANCH 45 54
BRANCH 41 57
ATOM     57  O4  A00 X   4     101.162  70.655  81.2480  0.00  0.00     0.000 O
BRANCH 57 61
ATOM     58  C1  A00 X   4      97.538  68.316  81.0710  0.00  0.00     0.000 C
ATOM     59  C2  A00 X   4      98.813  67.663  81.6600  0.00  0.00     0.000 C
ATOM     60  C3  A00 X   4      99.922  68.679  82.0030  0.00  0.00     0.000 C
ATOM     61  C4  A00 X   4     100.170  69.669  80.8440  0.00  0.00     0.000 C
ATOM     62  C5  A00 X   4      98.813  70.359  80.5620  0.00  0.00     0.000 C
ATOM     63  O5  A00 X   4      97.853  69.363  80.1250  0.00  0.00     0.000 O
BRANCH 59 66
ATOM     64   N  A00 X   4      99.414  66.743  80.6770  0.00  0.00     0.000 N
ATOM     66  HD  A00 X   4      99.281  66.911  79.8380  0.00  0.00     0.000 HD
ATOM     66   O  A00 X   4      97.813  65.093  81.3940  0.00  0.00     0.000 OA
ATOM     67   S  A00 X   4      99.124  65.178  80.8300  0.00  0.00     0.000 S
ATOM     68   O  A00 X   4      99.236  64.759  79.4630  0.00  0.00     0.000 OA
ATOM     69   O  A00 X   4     100.233  64.793  81.6560  0.00  0.00     0.000 OA
ENDBRANCH 59 66
BRANCH 62 70
ATOM     70   C  A00 X   4      98.882  71.477  79.4940  0.00  0.00     0.000 C
ATOM     71   O  A00 X   4      99.434  71.168  75.9290  0.00  0.00     0.000 OA
ATOM     72   O  A00 X   4     100.453  72.569  77.5240  0.00  0.00     0.000 OA
ATOM     73   O  A00 X   4      98.868  70.885  78.1850  0.00  0.00     0.000 O
ATOM     74   O  A00 X   4     101.056  70.209  77.4340  0.00  0.00     0.000 OA
ATOM     75   S  A00 X   4     100.061  71.211  77.2200  0.00  0.00     0.000 S
ENDBRANCH 62 70
ENDBRANCH 57 61
ENDBRANCH 41 57
ENDBRANCH 40 44
ENDBRANCH 20 40
ENDBRANCH 19 23
ENDBRANCH 1 19
TORSDOF 14
ENDMDL
MODEL 64
REMARK VINA RESULT:      -0.3     44.459     48.544
ROOT
ATOM      1  C1  A00 X   1      36.203   9.941  77.3430  0.00  0.00     0.000 C
ATOM      2  C2  A00 X   1      34.711  10.354  77.4500  0.00  0.00     0.000 C
ATOM      3  C3  A00 X   1      34.108  11.083  76.2040  0.00  0.00     0.000 C
ATOM      4  C4  A00 X   1      35.141  11.626  75.1830  0.00  0.00     0.000 C
ATOM      5  C5  A00 X   1      36.518  11.840  75.8130  0.00  0.00     0.000 C
ATOM      6  O5  A00 X   1      36.936  10.523  76.2370  0.00  0.00     0.000 O
ATOM      7   O  A00 X   1      33.353  12.207  76.6520  0.00  0.00     0.000 O
ATOM      9  HD  A00 X   1      33.794  12.459  75.9510  0.00  0.00     0.000 HD
ATOM      9   O  A00 X   1      35.257  10.765  74.0500  0.00  0.00     0.000 O
ATOM     11  HD  A00 X   1      35.698  11.017  73.3490  0.00  0.00     0.000 HD
ENDROOT
BRANCH 2 11
ATOM     11   O  A00 X   1      33.944   9.164  77.7140  0.00  0.00     0.000 O
ATOM     12   O  A00 X   1      31.543   9.163  77.6650  0.00  0.00     0.000 OA
ATOM     13   O  A00 X   1      32.699  10.500  79.3360  0.00  0.00     0.000 OA
ATOM     14   O  A00 X   1      32.762   8.124  79.4390  0.00  0.00     0.000 OA
ATOM     15   S  A00 X   1      32.646   9.276  78.5850  0.00  0.00     0.000 S
ENDBRANCH 2 11
BRANCH 5 16
ATOM     16   C  A00 X   1      36.564  12.887  76.9300  0.00  0.00     0.000 C
ATOM     17   O  A00 X   1      37.563  12.964  77.6140  0.00  0.00     0.000 OA
ATOM     18   O  A00 X   1      35.641  13.646  77.1500  0.00  0.00     0.000 OA
ENDBRANCH 5 16
BRANCH 1 19
ATOM     19  O4  A00 X   2      36.920  10.097  78.5920  0.00  0.00     0.000 O
BRANCH 19 23
ATOM     20  C1  A00 X   2      39.176   6.487  78.1020  0.00  0.00     0.000 C
ATOM     21  C2  A00 X   2      37.915   6.425  78.9970  0.00  0.00     0.000 C
ATOM     22  C3  A00 X   2      36.995   7.635  78.7330  0.00  0.00     0.000 C
ATOM     23  C4  A00 X   2      37.777   8.958  78.8900  0.00  0.00     0.000 C
ATOM     24  C5  A00 X   2      39.020   8.887  77.9610  0.00  0.00     0.000 C
ATOM     25  O5  A00 X   2      39.836   7.755  78.3580  0.00  0.00     0.000 O
ATOM     26   O  A00 X   2      35.809   7.496  79.5350  0.00  0.00     0.000 O
ATOM     28  HD  A00 X   2      36.257   7.348  80.2610  0.00  0.00     0.000 HD
BRANCH 21 30
ATOM     28   N  A00 X   2      38.610   5.455  79.8490  0.00  0.00     0.000 N
ATOM     30  HD  A00 X   2      37.768   5.407  80.0480  0.00  0.00     0.000 HD
ATOM     30   O  A00 X   2      37.017   3.992  80.7330  0.00  0.00     0.000 OA
ATOM     31   S  A00 X   2      37.916   4.991  81.1910  0.00  0.00     0.000 S
ATOM     32   O  A00 X   2      39.003   4.507  81.9840  0.00  0.00     0.000 OA
ATOM     33   O  A00 X   2      37.340   6.156  81.7940  0.00  0.00     0.000 OA
ENDBRANCH 21 30
BRANCH 24 34
ATOM     34   C  A00 X   2      39.848  10.178  77.7570  0.00  0.00     0.000 C
ATOM     35   O  A00 X   2      41.314  12.112  80.4710  0.00  0.00     0.000 OA
ATOM     36   O  A00 X   2      39.992  10.907  78.9920  0.00  0.00     0.000 O
ATOM     37   O  A00 X   2      41.723   9.810  80.1180  0.00  0.00     0.000 OA
ATOM     38   S  A00 X   2      41.469  11.077  79.5030  0.00  0.00     0.000 S
ATOM     39   O  A00 X   2      42.256  11.428  78.3590  0.00  0.00     0.000 OA
ENDBRANCH 24 34
BRANCH 20 40
ATOM     40  O4  A00 X   3      38.695   6.461  76.7500  0.00  0.00     0.000 O
BRANCH 40 44
ATOM     41  C1  A00 X   3      38.907   7.832  73.4030  0.00  0.00     0.000 C
ATOM     42  C2  A00 X   3      37.914   6.735  73.8440  0.00  0.00     0.000 C
ATOM     43  C3  A00 X   3      38.649   5.581  74.5730  0.00  0.00     0.000 C
ATOM     44  C4  A00 X   3      39.578   6.030  75.6930  0.00  0.00     0.000 C
ATOM     45  C5  A00 X   3      40.548   7.128  75.1730  0.00  0.00     0.000 C
ATOM     46  O5  A00 X   3      39.813   8.191  74.4830  0.00  0.00     0.000 O
ATOM     47   O  A00 X   3      37.842   4.467  74.9490  0.00  0.00     0.000 O
ATOM     49  HD  A00 X   3      38.339   4.490  75.6580  0.00  0.00     0.000 HD
BRANCH 42 49
ATOM     49   O  A00 X   3      36.939   7.366  74.7030  0.00  0.00     0.000 O
ATOM     50   O  A00 X   3      35.037   6.662  75.9750  0.00  0.00     0.000 OA
ATOM     51   O  A00 X   3      35.357   5.767  73.8100  0.00  0.00     0.000 OA
ATOM     52   O  A00 X   3      34.804   8.056  74.0120  0.00  0.00     0.000 OA
ATOM     53   S  A00 X   3      35.442   6.947  74.6340  0.00  0.00     0.000 S
ENDBRANCH 42 49
BRANCH 45 54
ATOM     54   C  A00 X   3      41.680   6.532  74.3270  0.00  0.00     0.000 C
ATOM     55   O  A00 X   3      42.611   7.221  73.9660  0.00  0.00     0.000 OA
ATOM     56   O  A00 X   3      41.664   5.355  74.0020  0.00  0.00     0.000 OA
ENDBRANCH 45 54
BRANCH 41 57
ATOM     57  O4  A00 X   4      39.573   7.485  72.1690  0.00  0.00     0.000 O
BRANCH 57 61
ATOM     58  C1  A00 X   4      41.002   9.833  68.8400  0.00  0.00     0.000 C
ATOM     59  C2  A00 X   4      41.611  10.087  70.2410  0.00  0.00     0.000 C
ATOM     60  C3  A00 X   4      41.298   8.971  71.2580  0.00  0.00     0.000 C
ATOM     61  C4  A00 X   4      39.800   8.596  71.2560  0.00  0.00     0.000 C
ATOM     62  C5  A00 X   4      39.459   8.175  69.8040  0.00  0.00     0.000 C
ATOM     63  O5  A00 X   4      39.657   9.308  68.9200  0.00  0.00     0.000 O
BRANCH 59 66
ATOM     64   N  A00 X   4      41.030  11.320  70.8000  0.00  0.00     0.000 N
ATOM     66  HD  A00 X   4      40.238  11.546  70.5330  0.00  0.00     0.000 HD
ATOM     66   O  A00 X   4      42.655  12.549  69.5160  0.00  0.00     0.000 OA
ATOM     67   S  A00 X   4      41.888  12.668  70.7170  0.00  0.00     0.000 S
ATOM     68   O  A00 X   4      40.837  13.642  70.6840  0.00  0.00     0.000 OA
ATOM     69   O  A00 X   4      42.588  12.599  71.9680  0.00  0.00     0.000 OA
ENDBRANCH 59 66
BRANCH 62 70
ATOM     70   C  A00 X   4      38.013   7.655  69.6210  0.00  0.00     0.000 C
ATOM     71   O  A00 X   4      34.905   9.501  69.8030  0.00  0.00     0.000 OA
ATOM     72   O  A00 X   4      35.550   7.479  70.8210  0.00  0.00     0.000 OA
ATOM     73   O  A00 X   4      37.114   8.772  69.5310  0.00  0.00     0.000 O
ATOM     74   O  A00 X   4      36.409   9.589  71.6850  0.00  0.00     0.000 OA
ATOM     75   S  A00 X   4      35.934   8.848  70.5610  0.00  0.00     0.000 S
ENDBRANCH 62 70
ENDBRANCH 57 61
ENDBRANCH 41 57
ENDBRANCH 40 44
ENDBRANCH 20 40
ENDBRANCH 19 23
ENDBRANCH 1 19
TORSDOF 14
ENDMDL
MODEL 65
REMARK VINA RESULT:      -0.3    104.387    108.508
ROOT
ATOM      1  C1  A00 X   1      82.235  77.575  79.0420  0.00  0.00     0.000 C
ATOM      2  C2  A00 X   1      80.943  77.828  79.8640  0.00  0.00     0.000 C
ATOM      3  C3  A00 X   1      79.704  78.339  79.0580  0.00  0.00     0.000 C
ATOM      4  C4  A00 X   1      80.008  78.876  77.6350  0.00  0.00     0.000 C
ATOM      5  C5  A00 X   1      81.465  79.313  77.4820  0.00  0.00     0.000 C
ATOM      6  O5  A00 X   1      82.234  78.108  77.6940  0.00  0.00     0.000 O
ATOM      7   O  A00 X   1      79.103  79.413  79.7760  0.00  0.00     0.000 O
ATOM      9  HD  A00 X   1      79.099  79.633  78.9390  0.00  0.00     0.000 HD
ATOM      9   O  A00 X   1      79.686  77.912  76.6340  0.00  0.00     0.000 O
ATOM     11  HD  A00 X   1      79.682  78.131  75.7960  0.00  0.00     0.000 HD
ENDROOT
BRANCH 2 11
ATOM     11   O  A00 X   1      80.597  76.595  80.5250  0.00  0.00     0.000 O
ATOM     12   O  A00 X   1      78.534  76.336  81.7280  0.00  0.00     0.000 OA
ATOM     13   O  A00 X   1      80.175  77.950  82.5140  0.00  0.00     0.000 OA
ATOM     14   O  A00 X   1      80.621  75.617  82.6450  0.00  0.00     0.000 OA
ATOM     15   S  A00 X   1      79.923  76.657  81.9390  0.00  0.00     0.000 S
ENDBRANCH 2 11
BRANCH 5 16
ATOM     16   C  A00 X   1      81.890  80.478  78.3820  0.00  0.00     0.000 C
ATOM     17   O  A00 X   1      83.071  80.739  78.4760  0.00  0.00     0.000 OA
ATOM     18   O  A00 X   1      81.088  81.152  78.9970  0.00  0.00     0.000 OA
ENDBRANCH 5 16
BRANCH 1 19
ATOM     19  O4  A00 X   2      83.438  77.951  79.7570  0.00  0.00     0.000 O
BRANCH 19 23
ATOM     20  C1  A00 X   2      85.687  74.581  78.3600  0.00  0.00     0.000 C
ATOM     21  C2  A00 X   2      85.052  74.482  79.7680  0.00  0.00     0.000 C
ATOM     22  C3  A00 X   2      83.948  75.545  79.9490  0.00  0.00     0.000 C
ATOM     23  C4  A00 X   2      84.494  76.956  79.6350  0.00  0.00     0.000 C
ATOM     24  C5  A00 X   2      85.117  76.918  78.2120  0.00  0.00     0.000 C
ATOM     25  O5  A00 X   2      86.185  75.936  78.1960  0.00  0.00     0.000 O
ATOM     26   O  A00 X   2      83.345  75.368  81.2420  0.00  0.00     0.000 O
ATOM     28  HD  A00 X   2      84.108  75.354  81.6520  0.00  0.00     0.000 HD
BRANCH 21 30
ATOM     28   N  A00 X   2      86.218  73.714  80.2150  0.00  0.00     0.000 N
ATOM     30  HD  A00 X   2      85.594  73.585  80.8010  0.00  0.00     0.000 HD
ATOM     30   O  A00 X   2      85.505  72.179  81.8250  0.00  0.00     0.000 OA
ATOM     31   S  A00 X   2      86.334  73.329  81.7440  0.00  0.00     0.000 S
ATOM     32   O  A00 X   2      87.730  73.082  81.9260  0.00  0.00     0.000 OA
ATOM     33   O  A00 X   2      85.929  74.476  82.5000  0.00  0.00     0.000 OA
ENDBRANCH 21 30
BRANCH 24 34
ATOM     34   C  A00 X   2      85.530  78.260  77.5650  0.00  0.00     0.000 C
ATOM     35   O  A00 X   2      88.948  79.119  76.6510  0.00  0.00     0.000 OA
ATOM     36   O  A00 X   2      86.955  78.462  77.6430  0.00  0.00     0.000 O
ATOM     37   O  A00 X   2      87.820  77.188  75.8820  0.00  0.00     0.000 OA
ATOM     38   S  A00 X   2      87.695  78.563  76.2590  0.00  0.00     0.000 S
ATOM     39   O  A00 X   2      86.889  79.408  75.4300  0.00  0.00     0.000 OA
ENDBRANCH 24 34
BRANCH 20 40
ATOM     40  O4  A00 X   3      84.616  74.348  77.4350  0.00  0.00     0.000 O
BRANCH 40 44
ATOM     41  C1  A00 X   3      82.939  75.281  74.3620  0.00  0.00     0.000 C
ATOM     42  C2  A00 X   3      82.476  74.154  75.3100  0.00  0.00     0.000 C
ATOM     43  C3  A00 X   3      83.645  73.189  75.6370  0.00  0.00     0.000 C
ATOM     44  C4  A00 X   3      84.921  73.876  76.1050  0.00  0.00     0.000 C
ATOM     45  C5  A00 X   3      85.324  74.992  75.1000  0.00  0.00     0.000 C
ATOM     46  O5  A00 X   3      84.189  75.872  74.8120  0.00  0.00     0.000 O
ATOM     47   O  A00 X   3      83.312  72.056  76.4370  0.00  0.00     0.000 O
ATOM     49  HD  A00 X   3      84.083  72.224  76.7950  0.00  0.00     0.000 HD
BRANCH 42 49
ATOM     49   O  A00 X   3      81.965  74.787  76.5030  0.00  0.00     0.000 O
ATOM     50   O  A00 X   3      81.063  74.062  78.5990  0.00  0.00     0.000 OA
ATOM     51   O  A00 X   3      80.414  72.933  76.6260  0.00  0.00     0.000 OA
ATOM     52   O  A00 X   3      79.688  75.160  76.9410  0.00  0.00     0.000 OA
ATOM     53   S  A00 X   3      80.710  74.212  77.2220  0.00  0.00     0.000 S
ENDBRANCH 42 49
BRANCH 45 54
ATOM     54   C  A00 X   3      85.972  74.411  73.8370  0.00  0.00     0.000 C
ATOM     55   O  A00 X   3      85.986  73.212  73.6440  0.00  0.00     0.000 OA
ATOM     56   O  A00 X   3      86.486  75.142  73.0050  0.00  0.00     0.000 OA
ENDBRANCH 45 54
BRANCH 41 57
ATOM     57  O4  A00 X   4      82.957  74.847  72.9840  0.00  0.00     0.000 O
BRANCH 57 61
ATOM     58  C1  A00 X   4      82.170  76.870  69.2520  0.00  0.00     0.000 C
ATOM     59  C2  A00 X   4      83.345  77.366  70.1310  0.00  0.00     0.000 C
ATOM     60  C3  A00 X   4      83.753  76.368  71.2330  0.00  0.00     0.000 C
ATOM     61  C4  A00 X   4      82.528  75.845  72.0150  0.00  0.00     0.000 C
ATOM     62  C5  A00 X   4      81.584  75.204  70.9670  0.00  0.00     0.000 C
ATOM     63  O5  A00 X   4      81.141  76.225  70.0370  0.00  0.00     0.000 O
BRANCH 59 66
ATOM     64   N  A00 X   4      82.971  78.602  70.8430  0.00  0.00     0.000 N
ATOM     66  HD  A00 X   4      82.133  78.721  71.0250  0.00  0.00     0.000 HD
ATOM     66   O  A00 X   4      83.498  79.806  68.8250  0.00  0.00     0.000 OA
ATOM     67   S  A00 X   4      83.460  80.000  70.2410  0.00  0.00     0.000 S
ATOM     68   O  A00 X   4      82.420  80.865  70.7170  0.00  0.00     0.000 OA
ATOM     69   O  A00 X   4      84.710  80.150  70.9300  0.00  0.00     0.000 OA
ENDBRANCH 59 66
BRANCH 62 70
ATOM     70   C  A00 X   4      80.337  74.519  71.5760  0.00  0.00     0.000 C
ATOM     71   O  A00 X   4      77.477  76.046  73.1870  0.00  0.00     0.000 OA
ATOM     72   O  A00 X   4      78.847  74.256  73.8680  0.00  0.00     0.000 OA
ATOM     73   O  A00 X   4      79.349  75.516  71.8820  0.00  0.00     0.000 O
ATOM     74   O  A00 X   4      79.679  76.540  74.0370  0.00  0.00     0.000 OA
ATOM     75   S  A00 X   4      78.834  75.610  73.3600  0.00  0.00     0.000 S
ENDBRANCH 62 70
ENDBRANCH 57 61
ENDBRANCH 41 57
ENDBRANCH 40 44
ENDBRANCH 20 40
ENDBRANCH 19 23
ENDBRANCH 1 19
TORSDOF 14
ENDMDL
MODEL 66
REMARK VINA RESULT:      -0.3     36.955     40.642
ROOT
ATOM      1  C1  A00 X   1      46.882  20.702  22.3910  0.00  0.00     0.000 C
ATOM      2  C2  A00 X   1      46.333  21.898  23.2140  0.00  0.00     0.000 C
ATOM      3  C3  A00 X   1      45.574  23.000  22.4030  0.00  0.00     0.000 C
ATOM      4  C4  A00 X   1      45.777  22.958  20.8670  0.00  0.00     0.000 C
ATOM      5  C5  A00 X   1      47.064  22.232  20.4740  0.00  0.00     0.000 C
ATOM      6  O5  A00 X   1      46.883  20.880  20.9530  0.00  0.00     0.000 O
ATOM      7   O  A00 X   1      46.027  24.280  22.8370  0.00  0.00     0.000 O
ATOM      9  HD  A00 X   1      45.953  24.314  21.9750  0.00  0.00     0.000 HD
ATOM      9   O  A00 X   1      44.663  22.355  20.2100  0.00  0.00     0.000 O
ATOM     11  HD  A00 X   1      44.589  22.389  19.3470  0.00  0.00     0.000 HD
ENDROOT
BRANCH 2 11
ATOM     11   O  A00 X   1      45.452  21.368  24.2240  0.00  0.00     0.000 O
ATOM     12   O  A00 X   1      44.419  22.774  25.8740  0.00  0.00     0.000 OA
ATOM     13   O  A00 X   1      46.841  22.548  25.8500  0.00  0.00     0.000 OA
ATOM     14   O  A00 X   1      45.466  20.707  26.4630  0.00  0.00     0.000 OA
ATOM     15   S  A00 X   1      45.561  21.915  25.6880  0.00  0.00     0.000 S
ENDBRANCH 2 11
BRANCH 5 16
ATOM     16   C  A00 X   1      48.356  22.890  20.9690  0.00  0.00     0.000 C
ATOM     17   O  A00 X   1      49.398  22.278  20.8590  0.00  0.00     0.000 OA
ATOM     18   O  A00 X   1      48.375  24.001  21.4590  0.00  0.00     0.000 OA
ENDBRANCH 5 16
BRANCH 1 19
ATOM     19  O4  A00 X   2      48.169  20.237  22.8670  0.00  0.00     0.000 O
BRANCH 19 23
ATOM     20  C1  A00 X   2      47.297  16.109  22.1170  0.00  0.00     0.000 C
ATOM     21  C2  A00 X   2      47.106  16.628  23.5620  0.00  0.00     0.000 C
ATOM     22  C3  A00 X   2      47.032  18.169  23.5870  0.00  0.00     0.000 C
ATOM     23  C4  A00 X   2      48.265  18.784  22.8860  0.00  0.00     0.000 C
ATOM     24  C5  A00 X   2      48.355  18.172  21.4620  0.00  0.00     0.000 C
ATOM     25  O5  A00 X   2      48.494  16.732  21.5790  0.00  0.00     0.000 O
ATOM     26   O  A00 X   2      46.786  18.598  24.9370  0.00  0.00     0.000 O
ATOM     28  HD  A00 X   2      47.429  18.115  25.2610  0.00  0.00     0.000 HD
BRANCH 21 30
ATOM     28   N  A00 X   2      47.542  15.316  24.0510  0.00  0.00     0.000 N
ATOM     30  HD  A00 X   2      47.163  15.719  24.7170  0.00  0.00     0.000 HD
ATOM     30   O  A00 X   2      46.436  14.885  26.0630  0.00  0.00     0.000 OA
ATOM     31   S  A00 X   2      47.759  15.119  25.6040  0.00  0.00     0.000 S
ATOM     32   O  A00 X   2      48.635  13.991  25.6830  0.00  0.00     0.000 OA
ATOM     33   O  A00 X   2      48.417  16.294  26.0920  0.00  0.00     0.000 OA
ENDBRANCH 21 30
BRANCH 24 34
ATOM     34   C  A00 X   2      49.368  18.790  20.4690  0.00  0.00     0.000 C
ATOM     35   O  A00 X   2      52.179  16.979  19.0290  0.00  0.00     0.000 OA
ATOM     36   O  A00 X   2      50.549  17.972  20.3500  0.00  0.00     0.000 O
ATOM     37   O  A00 X   2      49.929  16.269  18.8700  0.00  0.00     0.000 OA
ATOM     38   S  A00 X   2      50.818  17.389  18.9140  0.00  0.00     0.000 S
ATOM     39   O  A00 X   2      50.583  18.460  17.9920  0.00  0.00     0.000 OA
ENDBRANCH 24 34
BRANCH 20 40
ATOM     40  O4  A00 X   3      46.149  16.564  21.3860  0.00  0.00     0.000 O
BRANCH 40 44
ATOM     41  C1  A00 X   3      44.804  18.019  18.3530  0.00  0.00     0.000 C
ATOM     42  C2  A00 X   3      43.966  17.636  19.5930  0.00  0.00     0.000 C
ATOM     43  C3  A00 X   3      44.265  16.181  20.0360  0.00  0.00     0.000 C
ATOM     44  C4  A00 X   3      45.745  15.858  20.1930  0.00  0.00     0.000 C
ATOM     45  C5  A00 X   3      46.518  16.267  18.9070  0.00  0.00     0.000 C
ATOM     46  O5  A00 X   3      46.198  17.642  18.5200  0.00  0.00     0.000 O
ATOM     47   O  A00 X   3      43.483  15.688  21.1220  0.00  0.00     0.000 O
ATOM     49  HD  A00 X   3      44.235  15.324  21.3510  0.00  0.00     0.000 HD
BRANCH 42 49
ATOM     49   O  A00 X   3      44.293  18.583  20.6330  0.00  0.00     0.000 O
ATOM     50   O  A00 X   3      43.691  18.913  22.9270  0.00  0.00     0.000 OA
ATOM     51   O  A00 X   3      42.009  18.300  21.3820  0.00  0.00     0.000 OA
ATOM     52   O  A00 X   3      42.980  20.447  21.1980  0.00  0.00     0.000 OA
ATOM     53   S  A00 X   3      43.189  19.099  21.6020  0.00  0.00     0.000 S
ENDBRANCH 42 49
BRANCH 45 54
ATOM     54   C  A00 X   3      46.308  15.256  17.7740  0.00  0.00     0.000 C
ATOM     55   O  A00 X   3      45.473  14.379  17.8730  0.00  0.00     0.000 OA
ATOM     56   O  A00 X   3      46.975  15.314  16.7530  0.00  0.00     0.000 OA
ENDBRANCH 45 54
BRANCH 41 57
ATOM     57  O4  A00 X   4      44.205  17.530  17.1320  0.00  0.00     0.000 O
BRANCH 57 61
ATOM     58  C1  A00 X   4      44.046  19.087  13.1090  0.00  0.00     0.000 C
ATOM     59  C2  A00 X   4      45.429  18.750  13.7190  0.00  0.00     0.000 C
ATOM     60  C3  A00 X   4      45.345  17.881  14.9900  0.00  0.00     0.000 C
ATOM     61  C4  A00 X   4      44.306  18.429  15.9920  0.00  0.00     0.000 C
ATOM     62  C5  A00 X   4      42.957  18.485  15.2320  0.00  0.00     0.000 C
ATOM     63  O5  A00 X   4      43.071  19.415  14.1240  0.00  0.00     0.000 O
BRANCH 59 66
ATOM     64   N  A00 X   4      46.134  19.976  14.1360  0.00  0.00     0.000 N
ATOM     66  HD  A00 X   4      45.650  20.656  14.3670  0.00  0.00     0.000 HD
ATOM     66   O  A00 X   4      46.801  20.254  11.8390  0.00  0.00     0.000 OA
ATOM     67   S  A00 X   4      47.245  20.580  13.1580  0.00  0.00     0.000 S
ATOM     68   O  A00 X   4      47.170  21.969  13.5080  0.00  0.00     0.000 OA
ATOM     69   O  A00 X   4      48.413  19.910  13.6570  0.00  0.00     0.000 OA
ENDBRANCH 59 66
BRANCH 62 70
ATOM     70   C  A00 X   4      41.755  18.911  16.1090  0.00  0.00     0.000 C
ATOM     71   O  A00 X   4      41.044  22.155  17.5510  0.00  0.00     0.000 OA
ATOM     72   O  A00 X   4      41.051  20.011  18.5260  0.00  0.00     0.000 OA
ATOM     73   O  A00 X   4      41.751  20.341  16.2480  0.00  0.00     0.000 O
ATOM     74   O  A00 X   4      43.167  21.118  18.0360  0.00  0.00     0.000 OA
ATOM     75   S  A00 X   4      41.792  20.937  17.6980  0.00  0.00     0.000 S
ENDBRANCH 62 70
ENDBRANCH 57 61
ENDBRANCH 41 57
ENDBRANCH 40 44
ENDBRANCH 20 40
ENDBRANCH 19 23
ENDBRANCH 1 19
TORSDOF 14
ENDMDL
MODEL 67
REMARK VINA RESULT:      -0.3    125.948    129.988
ROOT
ATOM      1  C1  A00 X   1      95.961  99.899   9.9810  0.00  0.00     0.000 C
ATOM      2  C2  A00 X   1      95.260  98.965   8.9600  0.00  0.00     0.000 C
ATOM      3  C3  A00 X   1      93.752  98.653   9.2360  0.00  0.00     0.000 C
ATOM      4  C4  A00 X   1      93.247  99.001  10.6600  0.00  0.00     0.000 C
ATOM      5  C5  A00 X   1      94.387  99.065  11.6760  0.00  0.00     0.000 C
ATOM      6  O5  A00 X   1      95.233 100.140  11.2110  0.00  0.00     0.000 O
ATOM      7   O  A00 X   1      93.533  97.255   9.0590  0.00  0.00     0.000 O
ATOM      9  HD  A00 X   1      93.087  97.497   9.7600  0.00  0.00     0.000 HD
ATOM      9   O  A00 X   1      92.522 100.230  10.6700  0.00  0.00     0.000 O
ATOM     11  HD  A00 X   1      92.075 100.472  11.3720  0.00  0.00     0.000 HD
ENDROOT
BRANCH 2 11
ATOM     11   O  A00 X   1      95.383  99.568   7.6570  0.00  0.00     0.000 O
ATOM     12   O  A00 X   1      94.593  98.474   5.6700  0.00  0.00     0.000 OA
ATOM     13   O  A00 X   1      96.407  97.468   6.9420  0.00  0.00     0.000 OA
ATOM     14   O  A00 X   1      96.747  99.506   5.7630  0.00  0.00     0.000 OA
ATOM     15   S  A00 X   1      95.795  98.668   6.4410  0.00  0.00     0.000 S
ENDBRANCH 2 11
BRANCH 5 16
ATOM     16   C  A00 X   1      95.134  97.746  11.8950  0.00  0.00     0.000 C
ATOM     17   O  A00 X   1      96.168  97.762  12.5300  0.00  0.00     0.000 OA
ATOM     18   O  A00 X   1      94.727  96.686  11.4620  0.00  0.00     0.000 OA
ENDBRANCH 5 16
BRANCH 1 19
ATOM     19  O4  A00 X   2      97.332  99.513  10.2450  0.00  0.00     0.000 O
BRANCH 19 23
ATOM     20  C1  A00 X   2      98.730 103.553  10.5470  0.00  0.00     0.000 C
ATOM     21  C2  A00 X   2      98.943 102.822   9.1990  0.00  0.00     0.000 C
ATOM     22  C3  A00 X   2      98.031 101.582   9.0970  0.00  0.00     0.000 C
ATOM     23  C4  A00 X   2      98.230 100.657  10.3190  0.00  0.00     0.000 C
ATOM     24  C5  A00 X   2      98.008 101.509  11.5990  0.00  0.00     0.000 C
ATOM     25  O5  A00 X   2      98.972 102.594  11.6110  0.00  0.00     0.000 O
ATOM     26   O  A00 X   2      98.215 100.979   7.8040  0.00  0.00     0.000 O
ATOM     28  HD  A00 X   2      99.078 100.970   7.8760  0.00  0.00     0.000 HD
BRANCH 21 30
ATOM     28   N  A00 X   2     100.205 103.552   9.0460  0.00  0.00     0.000 N
ATOM     30  HD  A00 X   2     100.009 103.225   8.2690  0.00  0.00     0.000 HD
ATOM     30   O  A00 X   2     100.570 103.903   6.7650  0.00  0.00     0.000 OA
ATOM     31   S  A00 X   2     101.155 103.179   7.8380  0.00  0.00     0.000 S
ATOM     32   O  A00 X   2     102.438 103.653   8.2580  0.00  0.00     0.000 OA
ATOM     33   O  A00 X   2     101.162 101.751   7.7300  0.00  0.00     0.000 OA
ENDBRANCH 21 30
BRANCH 24 34
ATOM     34   C  A00 X   2      97.924 100.771  12.9560  0.00  0.00     0.000 C
ATOM     35   O  A00 X   2     100.564  98.649  14.2930  0.00  0.00     0.000 OA
ATOM     36   O  A00 X   2      98.934  99.747  13.0580  0.00  0.00     0.000 O
ATOM     37   O  A00 X   2     100.878 100.904  13.6520  0.00  0.00     0.000 OA
ATOM     38   S  A00 X   2      99.977  99.947  14.2170  0.00  0.00     0.000 S
ATOM     39   O  A00 X   2      99.228 100.342  15.3720  0.00  0.00     0.000 OA
ENDBRANCH 24 34
BRANCH 20 40
ATOM     40  O4  A00 X   3      97.350 103.947  10.5610  0.00  0.00     0.000 O
BRANCH 40 44
ATOM     41  C1  A00 X   3      94.259 104.213  12.4300  0.00  0.00     0.000 C
ATOM     42  C2  A00 X   3      94.429 104.615  10.9490  0.00  0.00     0.000 C
ATOM     43  C3  A00 X   3      95.648 105.554  10.7650  0.00  0.00     0.000 C
ATOM     44  C4  A00 X   3      96.938 105.048  11.3990  0.00  0.00     0.000 C
ATOM     45  C5  A00 X   3      96.688 104.670  12.8860  0.00  0.00     0.000 C
ATOM     46  O5  A00 X   3      95.523 103.793  13.0130  0.00  0.00     0.000 O
ATOM     47   O  A00 X   3      95.852 106.060   9.4470  0.00  0.00     0.000 O
ATOM     49  HD  A00 X   3      96.684 105.928   9.6460  0.00  0.00     0.000 HD
BRANCH 42 49
ATOM     49   O  A00 X   3      94.585 103.393  10.1950  0.00  0.00     0.000 O
ATOM     50   O  A00 X   3      94.983 102.807   7.9080  0.00  0.00     0.000 OA
ATOM     51   O  A00 X   3      93.466 104.556   8.3910  0.00  0.00     0.000 OA
ATOM     52   O  A00 X   3      92.866 102.348   8.9830  0.00  0.00     0.000 OA
ATOM     53   S  A00 X   3      93.944 103.253   8.7830  0.00  0.00     0.000 S
ENDBRANCH 42 49
BRANCH 45 54
ATOM     54   C  A00 X   3      96.609 105.913  13.7810  0.00  0.00     0.000 C
ATOM     55   O  A00 X   3      96.570 105.803  14.9900  0.00  0.00     0.000 OA
ATOM     56   O  A00 X   3      96.581 107.033  13.2960  0.00  0.00     0.000 OA
ENDBRANCH 45 54
BRANCH 41 57
ATOM     57  O4  A00 X   4      93.576 105.238  13.1860  0.00  0.00     0.000 O
BRANCH 57 61
ATOM     58  C1  A00 X   4      90.826 105.097  16.5120  0.00  0.00     0.000 C
ATOM     59  C2  A00 X   4      92.254 104.528  16.7060  0.00  0.00     0.000 C
ATOM     60  C3  A00 X   4      93.240 104.951  15.5980  0.00  0.00     0.000 C
ATOM     61  C4  A00 X   4      92.641 104.748  14.1890  0.00  0.00     0.000 C
ATOM     62  C5  A00 X   4      91.331 105.572  14.1500  0.00  0.00     0.000 C
ATOM     63  O5  A00 X   4      90.403 105.041  15.1300  0.00  0.00     0.000 O
BRANCH 59 66
ATOM     64   N  A00 X   4      92.210 103.055  16.6590  0.00  0.00     0.000 N
ATOM     66  HD  A00 X   4      91.576 102.688  16.1980  0.00  0.00     0.000 HD
ATOM     66   O  A00 X   4      91.548 103.102  18.9740  0.00  0.00     0.000 OA
ATOM     67   S  A00 X   4      92.224 102.253  18.0430  0.00  0.00     0.000 S
ATOM     68   O  A00 X   4      91.513 101.068  17.6620  0.00  0.00     0.000 OA
ATOM     69   O  A00 X   4      93.636 102.064  18.2130  0.00  0.00     0.000 OA
ENDBRANCH 59 66
BRANCH 62 70
ATOM     70   C  A00 X   4      90.633 105.584  12.7690  0.00  0.00     0.000 C
ATOM     71   O  A00 X   4      88.961 102.867  11.0570  0.00  0.00     0.000 OA
ATOM     72   O  A00 X   4      90.588 104.390  10.2960  0.00  0.00     0.000 OA
ATOM     73   O  A00 X   4      89.895 104.363  12.5990  0.00  0.00     0.000 O
ATOM     74   O  A00 X   4      91.247 102.555  11.7570  0.00  0.00     0.000 OA
ATOM     75   S  A00 X   4      90.230 103.471  11.3530  0.00  0.00     0.000 S
ENDBRANCH 62 70
ENDBRANCH 57 61
ENDBRANCH 41 57
ENDBRANCH 40 44
ENDBRANCH 20 40
ENDBRANCH 19 23
ENDBRANCH 1 19
TORSDOF 14
ENDMDL
MODEL 68
REMARK VINA RESULT:      -0.3     90.546     95.977
ROOT
ATOM      1  C1  A00 X   1      89.890  60.148  15.3890  0.00  0.00     0.000 C
ATOM      2  C2  A00 X   1      90.528  58.829  14.8790  0.00  0.00     0.000 C
ATOM      3  C3  A00 X   1      89.886  57.505  15.4100  0.00  0.00     0.000 C
ATOM      4  C4  A00 X   1      88.956  57.659  16.6410  0.00  0.00     0.000 C
ATOM      5  C5  A00 X   1      89.251  58.934  17.4310  0.00  0.00     0.000 C
ATOM      6  O5  A00 X   1      88.977  60.011  16.5060  0.00  0.00     0.000 O
ATOM      7   O  A00 X   1      90.930  56.615  15.8010  0.00  0.00     0.000 O
ATOM      9  HD  A00 X   1      90.309  56.559  16.4020  0.00  0.00     0.000 HD
ATOM      9   O  A00 X   1      87.581  57.634  16.2620  0.00  0.00     0.000 O
ATOM     11  HD  A00 X   1      86.959  57.578  16.8620  0.00  0.00     0.000 HD
ENDROOT
BRANCH 2 11
ATOM     11   O  A00 X   1      90.461  58.838  13.4390  0.00  0.00     0.000 O
ATOM     12   O  A00 X   1      91.420  57.081  12.1120  0.00  0.00     0.000 OA
ATOM     13   O  A00 X   1      92.877  58.478  13.4690  0.00  0.00     0.000 OA
ATOM     14   O  A00 X   1      91.758  59.385  11.5770  0.00  0.00     0.000 OA
ATOM     15   S  A00 X   1      91.721  58.395  12.6190  0.00  0.00     0.000 S
ENDBRANCH 2 11
BRANCH 5 16
ATOM     16   C  A00 X   1      90.650  59.002  18.0520  0.00  0.00     0.000 C
ATOM     17   O  A00 X   1      91.027  60.057  18.5200  0.00  0.00     0.000 OA
ATOM     18   O  A00 X   1      91.390  58.040  18.1000  0.00  0.00     0.000 OA
ENDBRANCH 5 16
BRANCH 1 19
ATOM     19  O4  A00 X   2      90.869  61.187  15.6330  0.00  0.00     0.000 O
BRANCH 19 23
ATOM     20  C1  A00 X   2      88.321  64.339  14.2410  0.00  0.00     0.000 C
ATOM     21  C2  A00 X   2      89.374  63.783  13.2530  0.00  0.00     0.000 C
ATOM     22  C3  A00 X   2      89.898  62.410  13.7230  0.00  0.00     0.000 C
ATOM     23  C4  A00 X   2      90.422  62.495  15.1740  0.00  0.00     0.000 C
ATOM     24  C5  A00 X   2      89.286  63.081  16.0560  0.00  0.00     0.000 C
ATOM     25  O5  A00 X   2      88.937  64.398  15.5550  0.00  0.00     0.000 O
ATOM     26   O  A00 X   2      90.819  61.906  12.7400  0.00  0.00     0.000 O
ATOM     28  HD  A00 X   2      91.275  62.642  12.7170  0.00  0.00     0.000 HD
BRANCH 21 30
ATOM     28   N  A00 X   2      89.515  65.134  12.7020  0.00  0.00     0.000 N
ATOM     30  HD  A00 X   2      89.875  64.591  12.1300  0.00  0.00     0.000 HD
ATOM     30   O  A00 X   2      90.033  64.943  10.4310  0.00  0.00     0.000 OA
ATOM     31   S  A00 X   2      90.645  65.401  11.6280  0.00  0.00     0.000 S
ATOM     32   O  A00 X   2      90.851  66.815  11.6980  0.00  0.00     0.000 OA
ATOM     33   O  A00 X   2      91.818  64.705  12.0650  0.00  0.00     0.000 OA
ENDBRANCH 21 30
BRANCH 24 34
ATOM     34   C  A00 X   2      89.472  63.056  17.5910  0.00  0.00     0.000 C
ATOM     35   O  A00 X   2      92.243  64.649  19.3360  0.00  0.00     0.000 OA
ATOM     36   O  A00 X   2      90.809  63.447  17.9610  0.00  0.00     0.000 O
ATOM     37   O  A00 X   2      90.781  65.784  17.8640  0.00  0.00     0.000 OA
ATOM     38   S  A00 X   2      90.909  64.747  18.8410  0.00  0.00     0.000 S
ATOM     39   O  A00 X   2      89.884  64.641  19.8360  0.00  0.00     0.000 OA
ENDBRANCH 24 34
BRANCH 20 40
ATOM     40  O4  A00 X   3      87.256  63.377  14.2530  0.00  0.00     0.000 O
BRANCH 40 44
ATOM     41  C1  A00 X   3      84.864  61.465  16.1910  0.00  0.00     0.000 C
ATOM     42  C2  A00 X   3      85.034  61.370  14.6590  0.00  0.00     0.000 C
ATOM     43  C3  A00 X   3      84.998  62.776  14.0070  0.00  0.00     0.000 C
ATOM     44  C4  A00 X   3      85.931  63.795  14.6480  0.00  0.00     0.000 C
ATOM     45  C5  A00 X   3      85.698  63.837  16.1850  0.00  0.00     0.000 C
ATOM     46  O5  A00 X   3      85.730  62.489  16.7560  0.00  0.00     0.000 O
ATOM     47   O  A00 X   3      85.058  62.804  12.5820  0.00  0.00     0.000 O
ATOM     49  HD  A00 X   3      85.561  63.493  12.7300  0.00  0.00     0.000 HD
BRANCH 42 49
ATOM     49   O  A00 X   3      86.293  60.706  14.4130  0.00  0.00     0.000 O
ATOM     50   O  A00 X   3      87.579  60.087  12.4910  0.00  0.00     0.000 OA
ATOM     51   O  A00 X   3      85.235  59.783  12.4410  0.00  0.00     0.000 OA
ATOM     52   O  A00 X   3      86.516  58.427  13.8920  0.00  0.00     0.000 OA
ATOM     53   S  A00 X   3      86.430  59.689  13.2420  0.00  0.00     0.000 S
ENDBRANCH 42 49
BRANCH 45 54
ATOM     54   C  A00 X   3      84.427  64.615  16.5450  0.00  0.00     0.000 C
ATOM     55   O  A00 X   3      83.657  64.977  15.6790  0.00  0.00     0.000 OA
ATOM     56   O  A00 X   3      84.167  64.885  17.7080  0.00  0.00     0.000 OA
ENDBRANCH 45 54
BRANCH 41 57
ATOM     57  O4  A00 X   4      83.475  61.598  16.5670  0.00  0.00     0.000 O
BRANCH 57 61
ATOM     58  C1  A00 X   4      81.208  60.211  19.9690  0.00  0.00     0.000 C
ATOM     59  C2  A00 X   4      82.387  61.186  20.2120  0.00  0.00     0.000 C
ATOM     60  C3  A00 X   4      82.882  61.884  18.9280  0.00  0.00     0.000 C
ATOM     61  C4  A00 X   4      83.091  60.881  17.7740  0.00  0.00     0.000 C
ATOM     62  C5  A00 X   4      81.732  60.168  17.5640  0.00  0.00     0.000 C
ATOM     63  O5  A00 X   4      81.389  59.431  18.7650  0.00  0.00     0.000 O
BRANCH 59 66
ATOM     64   N  A00 X   4      83.546  60.438  20.7320  0.00  0.00     0.000 N
ATOM     66  HD  A00 X   4      83.613  59.602  20.5140  0.00  0.00     0.000 HD
ATOM     66   O  A00 X   4      82.535  60.585  22.9130  0.00  0.00     0.000 OA
ATOM     67   S  A00 X   4      83.825  60.472  22.3060  0.00  0.00     0.000 S
ATOM     68   O  A00 X   4      84.481  59.209  22.4800  0.00  0.00     0.000 OA
ATOM     69   O  A00 X   4      84.702  61.606  22.3830  0.00  0.00     0.000 OA
ENDBRANCH 59 66
BRANCH 62 70
ATOM     70   C  A00 X   4      81.708  59.191  16.3640  0.00  0.00     0.000 C
ATOM     71   O  A00 X   4      83.397  56.009  16.0060  0.00  0.00     0.000 OA
ATOM     72   O  A00 X   4      83.291  57.861  14.5560  0.00  0.00     0.000 OA
ATOM     73   O  A00 X   4      82.314  57.948  16.7520  0.00  0.00     0.000 O
ATOM     74   O  A00 X   4      84.714  57.959  16.5320  0.00  0.00     0.000 OA
ATOM     75   S  A00 X   4      83.537  57.435  15.9160  0.00  0.00     0.000 S
ENDBRANCH 62 70
ENDBRANCH 57 61
ENDBRANCH 41 57
ENDBRANCH 40 44
ENDBRANCH 20 40
ENDBRANCH 19 23
ENDBRANCH 1 19
TORSDOF 14
ENDMDL
MODEL 69
REMARK VINA RESULT:      -0.3     91.786     97.196
ROOT
ATOM      1  C1  A00 X   1      91.939  60.109  17.3810  0.00  0.00     0.000 C
ATOM      2  C2  A00 X   1      92.577  58.790  16.8710  0.00  0.00     0.000 C
ATOM      3  C3  A00 X   1      91.936  57.466  17.4020  0.00  0.00     0.000 C
ATOM      4  C4  A00 X   1      91.005  57.621  18.6330  0.00  0.00     0.000 C
ATOM      5  C5  A00 X   1      91.301  58.896  19.4230  0.00  0.00     0.000 C
ATOM      6  O5  A00 X   1      91.026  59.972  18.4980  0.00  0.00     0.000 O
ATOM      7   O  A00 X   1      92.979  56.577  17.7930  0.00  0.00     0.000 O
ATOM      9  HD  A00 X   1      92.358  56.520  18.3940  0.00  0.00     0.000 HD
ATOM      9   O  A00 X   1      89.630  57.596  18.2540  0.00  0.00     0.000 O
ATOM     11  HD  A00 X   1      89.008  57.539  18.8540  0.00  0.00     0.000 HD
ENDROOT
BRANCH 2 11
ATOM     11   O  A00 X   1      92.510  58.799  15.4310  0.00  0.00     0.000 O
ATOM     12   O  A00 X   1      93.469  57.042  14.1040  0.00  0.00     0.000 OA
ATOM     13   O  A00 X   1      94.926  58.439  15.4610  0.00  0.00     0.000 OA
ATOM     14   O  A00 X   1      93.807  59.347  13.5690  0.00  0.00     0.000 OA
ATOM     15   S  A00 X   1      93.771  58.357  14.6110  0.00  0.00     0.000 S
ENDBRANCH 2 11
BRANCH 5 16
ATOM     16   C  A00 X   1      92.699  58.964  20.0440  0.00  0.00     0.000 C
ATOM     17   O  A00 X   1      93.076  60.018  20.5120  0.00  0.00     0.000 OA
ATOM     18   O  A00 X   1      93.439  58.001  20.0920  0.00  0.00     0.000 OA
ENDBRANCH 5 16
BRANCH 1 19
ATOM     19  O4  A00 X   2      92.919  61.149  17.6250  0.00  0.00     0.000 O
BRANCH 19 23
ATOM     20  C1  A00 X   2      90.370  64.300  16.2330  0.00  0.00     0.000 C
ATOM     21  C2  A00 X   2      91.424  63.744  15.2450  0.00  0.00     0.000 C
ATOM     22  C3  A00 X   2      91.947  62.371  15.7150  0.00  0.00     0.000 C
ATOM     23  C4  A00 X   2      92.472  62.456  17.1660  0.00  0.00     0.000 C
ATOM     24  C5  A00 X   2      91.335  63.042  18.0480  0.00  0.00     0.000 C
ATOM     25  O5  A00 X   2      90.986  64.359  17.5470  0.00  0.00     0.000 O
ATOM     26   O  A00 X   2      92.868  61.867  14.7320  0.00  0.00     0.000 O
ATOM     28  HD  A00 X   2      93.324  62.603  14.7090  0.00  0.00     0.000 HD
BRANCH 21 30
ATOM     28   N  A00 X   2      91.565  65.095  14.6940  0.00  0.00     0.000 N
ATOM     30  HD  A00 X   2      91.924  64.553  14.1220  0.00  0.00     0.000 HD
ATOM     30   O  A00 X   2      92.082  64.904  12.4230  0.00  0.00     0.000 OA
ATOM     31   S  A00 X   2      92.694  65.363  13.6200  0.00  0.00     0.000 S
ATOM     32   O  A00 X   2      92.900  66.776  13.6900  0.00  0.00     0.000 OA
ATOM     33   O  A00 X   2      93.867  64.666  14.0580  0.00  0.00     0.000 OA
ENDBRANCH 21 30
BRANCH 24 34
ATOM     34   C  A00 X   2      91.521  63.017  19.5830  0.00  0.00     0.000 C
ATOM     35   O  A00 X   2      94.292  64.610  21.3280  0.00  0.00     0.000 OA
ATOM     36   O  A00 X   2      92.859  63.408  19.9530  0.00  0.00     0.000 O
ATOM     37   O  A00 X   2      92.830  65.745  19.8560  0.00  0.00     0.000 OA
ATOM     38   S  A00 X   2      92.958  64.708  20.8330  0.00  0.00     0.000 S
ATOM     39   O  A00 X   2      91.933  64.603  21.8280  0.00  0.00     0.000 OA
ENDBRANCH 24 34
BRANCH 20 40
ATOM     40  O4  A00 X   3      89.305  63.338  16.2450  0.00  0.00     0.000 O
BRANCH 40 44
ATOM     41  C1  A00 X   3      86.913  61.427  18.1830  0.00  0.00     0.000 C
ATOM     42  C2  A00 X   3      87.083  61.331  16.6510  0.00  0.00     0.000 C
ATOM     43  C3  A00 X   3      87.047  62.737  15.9990  0.00  0.00     0.000 C
ATOM     44  C4  A00 X   3      87.980  63.756  16.6400  0.00  0.00     0.000 C
ATOM     45  C5  A00 X   3      87.747  63.798  18.1770  0.00  0.00     0.000 C
ATOM     46  O5  A00 X   3      87.779  62.450  18.7480  0.00  0.00     0.000 O
ATOM     47   O  A00 X   3      87.107  62.765  14.5740  0.00  0.00     0.000 O
ATOM     49  HD  A00 X   3      87.611  63.455  14.7220  0.00  0.00     0.000 HD
BRANCH 42 49
ATOM     49   O  A00 X   3      88.342  60.667  16.4050  0.00  0.00     0.000 O
ATOM     50   O  A00 X   3      89.628  60.048  14.4830  0.00  0.00     0.000 OA
ATOM     51   O  A00 X   3      87.284  59.744  14.4330  0.00  0.00     0.000 OA
ATOM     52   O  A00 X   3      88.565  58.388  15.8840  0.00  0.00     0.000 OA
ATOM     53   S  A00 X   3      88.479  59.650  15.2340  0.00  0.00     0.000 S
ENDBRANCH 42 49
BRANCH 45 54
ATOM     54   C  A00 X   3      86.476  64.576  18.5370  0.00  0.00     0.000 C
ATOM     55   O  A00 X   3      85.706  64.938  17.6710  0.00  0.00     0.000 OA
ATOM     56   O  A00 X   3      86.216  64.846  19.7000  0.00  0.00     0.000 OA
ENDBRANCH 45 54
BRANCH 41 57
ATOM     57  O4  A00 X   4      85.524  61.559  18.5590  0.00  0.00     0.000 O
BRANCH 57 61
ATOM     58  C1  A00 X   4      83.257  60.172  21.9610  0.00  0.00     0.000 C
ATOM     59  C2  A00 X   4      84.436  61.147  22.2040  0.00  0.00     0.000 C
ATOM     60  C3  A00 X   4      84.931  61.845  20.9200  0.00  0.00     0.000 C
ATOM     61  C4  A00 X   4      85.140  60.842  19.7660  0.00  0.00     0.000 C
ATOM     62  C5  A00 X   4      83.781  60.129  19.5560  0.00  0.00     0.000 C
ATOM     63  O5  A00 X   4      83.438  59.392  20.7570  0.00  0.00     0.000 O
BRANCH 59 66
ATOM     64   N  A00 X   4      85.595  60.399  22.7240  0.00  0.00     0.000 N
ATOM     66  HD  A00 X   4      85.663  59.564  22.5060  0.00  0.00     0.000 HD
ATOM     66   O  A00 X   4      84.585  60.546  24.9050  0.00  0.00     0.000 OA
ATOM     67   S  A00 X   4      85.874  60.434  24.2980  0.00  0.00     0.000 S
ATOM     68   O  A00 X   4      86.530  59.171  24.4720  0.00  0.00     0.000 OA
ATOM     69   O  A00 X   4      86.751  61.567  24.3750  0.00  0.00     0.000 OA
ENDBRANCH 59 66
BRANCH 62 70
ATOM     70   C  A00 X   4      83.758  59.153  18.3560  0.00  0.00     0.000 C
ATOM     71   O  A00 X   4      85.446  55.970  17.9980  0.00  0.00     0.000 OA
ATOM     72   O  A00 X   4      85.340  57.822  16.5480  0.00  0.00     0.000 OA
ATOM     73   O  A00 X   4      84.363  57.909  18.7440  0.00  0.00     0.000 O
ATOM     74   O  A00 X   4      86.763  57.920  18.5240  0.00  0.00     0.000 OA
ATOM     75   S  A00 X   4      85.587  57.396  17.9080  0.00  0.00     0.000 S
ENDBRANCH 62 70
ENDBRANCH 57 61
ENDBRANCH 41 57
ENDBRANCH 40 44
ENDBRANCH 20 40
ENDBRANCH 19 23
ENDBRANCH 1 19
TORSDOF 14
ENDMDL
MODEL 70
REMARK VINA RESULT:      -0.3    132.190    136.931
ROOT
ATOM      1  C1  A00 X   1     106.792  99.740   8.9130  0.00  0.00     0.000 C
ATOM      2  C2  A00 X   1     105.863  98.754   8.1550  0.00  0.00     0.000 C
ATOM      3  C3  A00 X   1     105.382  97.504   8.9640  0.00  0.00     0.000 C
ATOM      4  C4  A00 X   1     106.166  97.210  10.2690  0.00  0.00     0.000 C
ATOM      5  C5  A00 X   1     107.564  97.830  10.2550  0.00  0.00     0.000 C
ATOM      6  O5  A00 X   1     107.333  99.254  10.1660  0.00  0.00     0.000 O
ATOM      7   O  A00 X   1     105.517  96.347   8.1420  0.00  0.00     0.000 O
ATOM      9  HD  A00 X   1     105.779  96.127   8.9380  0.00  0.00     0.000 HD
ATOM      9   O  A00 X   1     105.451  97.660  11.4200  0.00  0.00     0.000 O
ATOM     11  HD  A00 X   1     105.714  97.440  12.2150  0.00  0.00     0.000 HD
ENDROOT
BRANCH 2 11
ATOM     11   O  A00 X   1     104.712  99.493   7.7050  0.00  0.00     0.000 O
ATOM     12   O  A00 X   1     102.802  98.405   6.7380  0.00  0.00     0.000 OA
ATOM     13   O  A00 X   1     104.945  98.288   5.5930  0.00  0.00     0.000 OA
ATOM     14   O  A00 X   1     103.772 100.352   5.7480  0.00  0.00     0.000 OA
ATOM     15   S  A00 X   1     104.020  99.075   6.3620  0.00  0.00     0.000 S
ENDBRANCH 2 11
BRANCH 5 16
ATOM     16   C  A00 X   1     108.500  97.291   9.1690  0.00  0.00     0.000 C
ATOM     17   O  A00 X   1     109.510  97.913   8.9120  0.00  0.00     0.000 OA
ATOM     18   O  A00 X   1     108.272  96.263   8.5630  0.00  0.00     0.000 OA
ENDBRANCH 5 16
BRANCH 1 19
ATOM     19  O4  A00 X   2     107.831 100.294   8.0680  0.00  0.00     0.000 O
BRANCH 19 23
ATOM     20  C1  A00 X   2     107.568 104.206   9.7970  0.00  0.00     0.000 C
ATOM     21  C2  A00 X   2     106.834 103.967   8.4550  0.00  0.00     0.000 C
ATOM     22  C3  A00 X   2     106.653 102.458   8.1900  0.00  0.00     0.000 C
ATOM     23  C4  A00 X   2     108.011 101.725   8.2690  0.00  0.00     0.000 C
ATOM     24  C5  A00 X   2     108.650 102.058   9.6450  0.00  0.00     0.000 C
ATOM     25  O5  A00 X   2     108.834 103.495   9.7390  0.00  0.00     0.000 O
ATOM     26   O  A00 X   2     105.908 102.290   6.9710  0.00  0.00     0.000 O
ATOM     28  HD  A00 X   2     106.421 102.826   6.5250  0.00  0.00     0.000 HD
BRANCH 21 30
ATOM     28   N  A00 X   2     107.152 105.348   8.0780  0.00  0.00     0.000 N
ATOM     30  HD  A00 X   2     106.531 105.077   7.5380  0.00  0.00     0.000 HD
ATOM     30   O  A00 X   2     105.425 106.148   6.7230  0.00  0.00     0.000 OA
ATOM     31   S  A00 X   2     106.805 105.833   6.6140  0.00  0.00     0.000 S
ATOM     32   O  A00 X   2     107.668 106.957   6.4160  0.00  0.00     0.000 OA
ATOM     33   O  A00 X   2     107.160 104.770   5.7210  0.00  0.00     0.000 OA
ENDBRANCH 21 30
BRANCH 24 34
ATOM     34   C  A00 X   2     109.909 101.267  10.0710  0.00  0.00     0.000 C
ATOM     35   O  A00 X   2     112.984 101.122   8.1260  0.00  0.00     0.000 OA
ATOM     36   O  A00 X   2     110.820 101.100   8.9660  0.00  0.00     0.000 O
ATOM     37   O  A00 X   2     111.970 103.133   8.8480  0.00  0.00     0.000 OA
ATOM     38   S  A00 X   2     112.234 101.761   9.1570  0.00  0.00     0.000 S
ATOM     39   O  A00 X   2     112.650 101.450  10.4920  0.00  0.00     0.000 OA
ENDBRANCH 24 34
BRANCH 20 40
ATOM     40  O4  A00 X   3     106.734 103.619  10.8060  0.00  0.00     0.000 O
BRANCH 40 44
ATOM     41  C1  A00 X   3     106.511 101.577  13.7890  0.00  0.00     0.000 C
ATOM     42  C2  A00 X   3     105.303 102.200  13.0570  0.00  0.00     0.000 C
ATOM     43  C3  A00 X   3     105.521 103.715  12.8160  0.00  0.00     0.000 C
ATOM     44  C4  A00 X   3     106.856 104.068  12.1730  0.00  0.00     0.000 C
ATOM     45  C5  A00 X   3     108.020 103.411  12.9670  0.00  0.00     0.000 C
ATOM     46  O5  A00 X   3     107.767 101.985  13.1800  0.00  0.00     0.000 O
ATOM     47   O  A00 X   3     104.430 104.415  12.2220  0.00  0.00     0.000 O
ATOM     49  HD  A00 X   3     105.067 104.820  11.7980  0.00  0.00     0.000 HD
BRANCH 42 49
ATOM     49   O  A00 X   3     105.148 101.484  11.8120  0.00  0.00     0.000 O
ATOM     50   O  A00 X   3     103.677 101.587   9.9260  0.00  0.00     0.000 OA
ATOM     51   O  A00 X   3     102.770 101.835  12.0950  0.00  0.00     0.000 OA
ATOM     52   O  A00 X   3     103.630  99.725  11.4680  0.00  0.00     0.000 OA
ATOM     53   S  A00 X   3     103.728 101.131  11.2800  0.00  0.00     0.000 S
ENDBRANCH 42 49
BRANCH 45 54
ATOM     54   C  A00 X   3     108.322 104.171  14.2640  0.00  0.00     0.000 C
ATOM     55   O  A00 X   3     109.337 103.947  14.8910  0.00  0.00     0.000 OA
ATOM     56   O  A00 X   3     107.547 105.013  14.6910  0.00  0.00     0.000 OA
ENDBRANCH 45 54
BRANCH 41 57
ATOM     57  O4  A00 X   4     106.448 101.806  15.2150  0.00  0.00     0.000 O
BRANCH 57 61
ATOM     58  C1  A00 X   4     107.736  99.492  18.6240  0.00  0.00     0.000 C
ATOM     59  C2  A00 X   4     108.801  99.959  17.6000  0.00  0.00     0.000 C
ATOM     60  C3  A00 X   4     108.294 101.058  16.6440  0.00  0.00     0.000 C
ATOM     61  C4  A00 X   4     106.918 100.703  16.0400  0.00  0.00     0.000 C
ATOM     62  C5  A00 X   4     105.960 100.483  17.2370  0.00  0.00     0.000 C
ATOM     63  O5  A00 X   4     106.428  99.356  18.0220  0.00  0.00     0.000 O
BRANCH 59 66
ATOM     64   N  A00 X   4     109.221  98.854  16.7190  0.00  0.00     0.000 N
ATOM     66  HD  A00 X   4     108.646  98.225  16.5640  0.00  0.00     0.000 HD
ATOM     66   O  A00 X   4     110.687  98.134  18.4890  0.00  0.00     0.000 OA
ATOM     67   S  A00 X   4     110.581  98.085  17.0650  0.00  0.00     0.000 S
ATOM     68   O  A00 X   4     110.296  96.794  16.5110  0.00  0.00     0.000 OA
ATOM     69   O  A00 X   4     111.512  98.862  16.2970  0.00  0.00     0.000 OA
ENDBRANCH 59 66
BRANCH 62 70
ATOM     70   C  A00 X   4     104.490 100.222  16.8310  0.00  0.00     0.000 C
ATOM     71   O  A00 X   4     103.079  97.318  15.1920  0.00  0.00     0.000 OA
ATOM     72   O  A00 X   4     102.849  99.613  14.7150  0.00  0.00     0.000 OA
ATOM     73   O  A00 X   4     104.344  98.848  16.4370  0.00  0.00     0.000 O
ATOM     74   O  A00 X   4     104.916  98.463  14.1280  0.00  0.00     0.000 OA
ATOM     75   S  A00 X   4     103.789  98.552  15.0000  0.00  0.00     0.000 S
ENDBRANCH 62 70
ENDBRANCH 57 61
ENDBRANCH 41 57
ENDBRANCH 40 44
ENDBRANCH 20 40
ENDBRANCH 19 23
ENDBRANCH 1 19
TORSDOF 14
ENDMDL
MODEL 71
REMARK VINA RESULT:      -0.3     99.116    103.901
ROOT
ATOM      1  C1  A00 X   1      62.285  96.219  12.1040  0.00  0.00     0.000 C
ATOM      2  C2  A00 X   1      63.046  97.169  11.1420  0.00  0.00     0.000 C
ATOM      3  C3  A00 X   1      64.548  96.819  10.8760  0.00  0.00     0.000 C
ATOM      4  C4  A00 X   1      65.185  95.812  11.8680  0.00  0.00     0.000 C
ATOM      5  C5  A00 X   1      64.439  95.764  13.2010  0.00  0.00     0.000 C
ATOM      6  O5  A00 X   1      63.112  95.301  12.8620  0.00  0.00     0.000 O
ATOM      7   O  A00 X   1      65.318  98.016  10.9630  0.00  0.00     0.000 O
ATOM      9  HD  A00 X   1      65.770  97.392  11.3580  0.00  0.00     0.000 HD
ATOM      9   O  A00 X   1      65.257  94.502  11.3070  0.00  0.00     0.000 O
ATOM     11  HD  A00 X   1      65.709  93.878  11.7030  0.00  0.00     0.000 HD
ENDROOT
BRANCH 2 11
ATOM     11   O  A00 X   1      62.338  97.180   9.8870  0.00  0.00     0.000 O
ATOM     12   O  A00 X   1      63.221  98.276   7.9410  0.00  0.00     0.000 OA
ATOM     13   O  A00 X   1      62.651  99.603   9.8990  0.00  0.00     0.000 OA
ATOM     14   O  A00 X   1      60.945  98.556   8.6150  0.00  0.00     0.000 OA
ATOM     15   S  A00 X   1      62.317  98.500   9.0410  0.00  0.00     0.000 S
ENDBRANCH 2 11
BRANCH 5 16
ATOM     16   C  A00 X   1      64.447  97.074  13.9960  0.00  0.00     0.000 C
ATOM     17   O  A00 X   1      63.705  97.178  14.9510  0.00  0.00     0.000 OA
ATOM     18   O  A00 X   1      65.172  98.005  13.7090  0.00  0.00     0.000 OA
ENDBRANCH 5 16
BRANCH 1 19
ATOM     19  O4  A00 X   2      61.351  96.919  12.9620  0.00  0.00     0.000 O
BRANCH 19 23
ATOM     20  C1  A00 X   2      58.338  93.885  12.6780  0.00  0.00     0.000 C
ATOM     21  C2  A00 X   2      58.202  95.117  11.7500  0.00  0.00     0.000 C
ATOM     22  C3  A00 X   2      59.539  95.880  11.6500  0.00  0.00     0.000 C
ATOM     23  C4  A00 X   2      60.064  96.244  13.0570  0.00  0.00     0.000 C
ATOM     24  C5  A00 X   2      60.138  94.934  13.8890  0.00  0.00     0.000 C
ATOM     25  O5  A00 X   2      58.809  94.356  13.9690  0.00  0.00     0.000 O
ATOM     26   O  A00 X   2      59.379  96.971  10.7270  0.00  0.00     0.000 O
ATOM     28  HD  A00 X   2      58.659  97.258  11.1130  0.00  0.00     0.000 HD
BRANCH 21 30
ATOM     28   N  A00 X   2      56.746  95.014  11.8890  0.00  0.00     0.000 N
ATOM     30  HD  A00 X   2      56.897  95.529  11.2090  0.00  0.00     0.000 HD
ATOM     30   O  A00 X   2      55.772  95.756   9.8990  0.00  0.00     0.000 OA
ATOM     31   S  A00 X   2      55.842  96.150  11.2610  0.00  0.00     0.000 S
ATOM     32   O  A00 X   2      54.613  96.043  11.9850  0.00  0.00     0.000 OA
ATOM     33   O  A00 X   2      56.479  97.402  11.5440  0.00  0.00     0.000 OA
ENDBRANCH 21 30
BRANCH 24 34
ATOM     34   C  A00 X   2      60.850  94.986  15.2610  0.00  0.00     0.000 C
ATOM     35   O  A00 X   2      59.895  97.220  17.9730  0.00  0.00     0.000 OA
ATOM     36   O  A00 X   2      60.499  96.181  15.9880  0.00  0.00     0.000 O
ATOM     37   O  A00 X   2      58.415  95.697  16.9320  0.00  0.00     0.000 OA
ATOM     38   S  A00 X   2      59.760  95.942  17.3550  0.00  0.00     0.000 S
ATOM     39   O  A00 X   2      60.454  94.874  18.0100  0.00  0.00     0.000 OA
ENDBRANCH 24 34
BRANCH 20 40
ATOM     40  O4  A00 X   3      59.342  93.055  12.0750  0.00  0.00     0.000 O
BRANCH 40 44
ATOM     41  C1  A00 X   3      62.287  90.991  12.5080  0.00  0.00     0.000 C
ATOM     42  C2  A00 X   3      61.617  91.295  11.1500  0.00  0.00     0.000 C
ATOM     43  C3  A00 X   3      60.095  91.006  11.2060  0.00  0.00     0.000 C
ATOM     44  C4  A00 X   3      59.372  91.645  12.3850  0.00  0.00     0.000 C
ATOM     45  C5  A00 X   3      60.101  91.291  13.7120  0.00  0.00     0.000 C
ATOM     46  O5  A00 X   3      61.535  91.569  13.6100  0.00  0.00     0.000 O
ATOM     47   O  A00 X   3      59.385  91.169   9.9800  0.00  0.00     0.000 O
ATOM     49  HD  A00 X   3      58.779  91.498  10.5040  0.00  0.00     0.000 HD
BRANCH 42 49
ATOM     49   O  A00 X   3      61.881  92.683  10.8490  0.00  0.00     0.000 O
ATOM     50   O  A00 X   3      61.314  94.213   9.0980  0.00  0.00     0.000 OA
ATOM     51   O  A00 X   3      61.923  92.001   8.5270  0.00  0.00     0.000 OA
ATOM     52   O  A00 X   3      63.581  93.433   9.4140  0.00  0.00     0.000 OA
ATOM     53   S  A00 X   3      62.193  93.125   9.3890  0.00  0.00     0.000 S
ENDBRANCH 42 49
BRANCH 45 54
ATOM     54   C  A00 X   3      59.795  89.858  14.1620  0.00  0.00     0.000 C
ATOM     55   O  A00 X   3      60.037  89.501  15.2970  0.00  0.00     0.000 OA
ATOM     56   O  A00 X   3      59.304  89.050  13.3890  0.00  0.00     0.000 OA
ENDBRANCH 45 54
BRANCH 41 57
ATOM     57  O4  A00 X   4      62.566  89.582  12.6620  0.00  0.00     0.000 O
BRANCH 57 61
ATOM     58  C1  A00 X   4      65.672  87.407  14.7270  0.00  0.00     0.000 C
ATOM     59  C2  A00 X   4      64.715  88.300  15.5560  0.00  0.00     0.000 C
ATOM     60  C3  A00 X   4      63.452  88.730  14.7840  0.00  0.00     0.000 C
ATOM     61  C4  A00 X   4      63.795  89.270  13.3790  0.00  0.00     0.000 C
ATOM     62  C5  A00 X   4      64.565  88.139  12.6530  0.00  0.00     0.000 C
ATOM     63  O5  A00 X   4      65.802  87.872  13.3640  0.00  0.00     0.000 O
BRANCH 59 66
ATOM     64   N  A00 X   4      65.485  89.519  15.8630  0.00  0.00     0.000 N
ATOM     66  HD  A00 X   4      66.132  89.729  15.3270  0.00  0.00     0.000 HD
ATOM     66   O  A00 X   4      66.404  88.343  17.7530  0.00  0.00     0.000 OA
ATOM     67   S  A00 X   4      66.104  89.675  17.3290  0.00  0.00     0.000 S
ATOM     68   O  A00 X   4      67.240  90.502  17.0440  0.00  0.00     0.000 OA
ATOM     69   O  A00 X   4      65.028  90.360  17.9870  0.00  0.00     0.000 OA
ENDBRANCH 59 66
BRANCH 62 70
ATOM     70   C  A00 X   4      64.905  88.452  11.1760  0.00  0.00     0.000 C
ATOM     71   O  A00 X   4      67.249  90.876   9.8590  0.00  0.00     0.000 OA
ATOM     72   O  A00 X   4      65.001  90.453   9.2980  0.00  0.00     0.000 OA
ATOM     73   O  A00 X   4      66.061  89.302  11.1250  0.00  0.00     0.000 O
ATOM     74   O  A00 X   4      65.524  91.639  11.3620  0.00  0.00     0.000 OA
ATOM     75   S  A00 X   4      65.927  90.679  10.3860  0.00  0.00     0.000 S
ENDBRANCH 62 70
ENDBRANCH 57 61
ENDBRANCH 41 57
ENDBRANCH 40 44
ENDBRANCH 20 40
ENDBRANCH 19 23
ENDBRANCH 1 19
TORSDOF 14
ENDMDL
MODEL 72
REMARK VINA RESULT:      -0.3     39.844     43.901
ROOT
ATOM      1  C1  A00 X   1      28.640  21.016  73.8570  0.00  0.00     0.000 C
ATOM      2  C2  A00 X   1      27.163  21.280  74.2540  0.00  0.00     0.000 C
ATOM      3  C3  A00 X   1      26.097  21.041  73.1340  0.00  0.00     0.000 C
ATOM      4  C4  A00 X   1      26.656  20.933  71.6910  0.00  0.00     0.000 C
ATOM      5  C5  A00 X   1      28.022  21.604  71.5500  0.00  0.00     0.000 C
ATOM      6  O5  A00 X   1      28.889  20.862  72.4370  0.00  0.00     0.000 O
ATOM      7   O  A00 X   1      25.182  22.134  73.1320  0.00  0.00     0.000 O
ATOM      9  HD  A00 X   1      25.351  21.942  72.3050  0.00  0.00     0.000 HD
ATOM      9   O  A00 X   1      26.740  19.574  71.2640  0.00  0.00     0.000 O
ATOM     11  HD  A00 X   1      26.909  19.382  70.4370  0.00  0.00     0.000 HD
ENDROOT
BRANCH 2 11
ATOM     11   O  A00 X   1      26.855  20.438  75.3810  0.00  0.00     0.000 O
ATOM     12   O  A00 X   1      24.619  20.217  76.2290  0.00  0.00     0.000 OA
ATOM     13   O  A00 X   1      25.726  22.380  76.3390  0.00  0.00     0.000 OA
ATOM     14   O  A00 X   1      26.483  20.569  77.6830  0.00  0.00     0.000 OA
ATOM     15   S  A00 X   1      25.837  20.952  76.4560  0.00  0.00     0.000 S
ENDBRANCH 2 11
BRANCH 5 16
ATOM     16   C  A00 X   1      28.032  23.115  71.8050  0.00  0.00     0.000 C
ATOM     17   O  A00 X   1      26.979  23.717  71.7660  0.00  0.00     0.000 OA
ATOM     18   O  A00 X   1      29.052  23.727  72.0510  0.00  0.00     0.000 OA
ENDBRANCH 5 16
BRANCH 1 19
ATOM     19  O4  A00 X   2      29.559  21.964  74.4540  0.00  0.00     0.000 O
BRANCH 19 23
ATOM     20  C1  A00 X   2      32.564  19.013  75.2510  0.00  0.00     0.000 C
ATOM     21  C2  A00 X   2      31.619  19.404  76.4140  0.00  0.00     0.000 C
ATOM     22  C3  A00 X   2      30.359  20.118  75.8820  0.00  0.00     0.000 C
ATOM     23  C4  A00 X   2      30.749  21.322  74.9960  0.00  0.00     0.000 C
ATOM     24  C5  A00 X   2      31.706  20.805  73.8870  0.00  0.00     0.000 C
ATOM     25  O5  A00 X   2      32.879  20.225  74.5140  0.00  0.00     0.000 O
ATOM     26   O  A00 X   2      29.485  20.397  76.9890  0.00  0.00     0.000 O
ATOM     28  HD  A00 X   2      30.115  20.762  77.4590  0.00  0.00     0.000 HD
BRANCH 21 30
ATOM     28   N  A00 X   2      32.741  19.216  77.3390  0.00  0.00     0.000 N
ATOM     30  HD  A00 X   2      32.020  19.231  77.8190  0.00  0.00     0.000 HD
ATOM     30   O  A00 X   2      31.883  18.472  79.3810  0.00  0.00     0.000 OA
ATOM     31   S  A00 X   2      32.547  19.612  78.8570  0.00  0.00     0.000 S
ATOM     32   O  A00 X   2      33.883  19.803  79.3300  0.00  0.00     0.000 OA
ATOM     33   O  A00 X   2      31.828  20.851  78.8820  0.00  0.00     0.000 OA
ENDBRANCH 21 30
BRANCH 24 34
ATOM     34   C  A00 X   2      32.062  21.767  72.7290  0.00  0.00     0.000 C
ATOM     35   O  A00 X   2      35.437  22.925  72.0030  0.00  0.00     0.000 OA
ATOM     36   O  A00 X   2      33.382  22.322  72.8980  0.00  0.00     0.000 O
ATOM     37   O  A00 X   2      34.821  20.645  72.1300  0.00  0.00     0.000 OA
ATOM     38   S  A00 X   2      34.409  21.965  71.7620  0.00  0.00     0.000 S
ATOM     39   O  A00 X   2      33.712  22.121  70.5210  0.00  0.00     0.000 OA
ENDBRANCH 24 34
BRANCH 20 40
ATOM     40  O4  A00 X   3      31.804  18.127  74.4160  0.00  0.00     0.000 O
BRANCH 40 44
ATOM     41  C1  A00 X   3      30.823  17.163  71.0650  0.00  0.00     0.000 C
ATOM     42  C2  A00 X   3      30.316  16.490  72.3580  0.00  0.00     0.000 C
ATOM     43  C3  A00 X   3      31.499  16.094  73.2790  0.00  0.00     0.000 C
ATOM     44  C4  A00 X   3      32.499  17.213  73.5410  0.00  0.00     0.000 C
ATOM     45  C5  A00 X   3      32.966  17.836  72.1950  0.00  0.00     0.000 C
ATOM     46  O5  A00 X   3      31.818  18.184  71.3540  0.00  0.00     0.000 O
ATOM     47   O  A00 X   3      31.154  15.385  74.4670  0.00  0.00     0.000 O
ATOM     49  HD  A00 X   3      31.776  15.880  74.8090  0.00  0.00     0.000 HD
BRANCH 42 49
ATOM     49   O  A00 X   3      29.434  17.431  73.0070  0.00  0.00     0.000 O
ATOM     50   O  A00 X   3      28.174  17.506  75.0410  0.00  0.00     0.000 OA
ATOM     51   O  A00 X   3      28.216  15.495  73.7980  0.00  0.00     0.000 OA
ATOM     52   O  A00 X   3      27.090  17.362  72.8840  0.00  0.00     0.000 OA
ATOM     53   S  A00 X   3      28.149  16.934  73.7320  0.00  0.00     0.000 S
ENDBRANCH 42 49
BRANCH 45 54
ATOM     54   C  A00 X   3      33.988  16.943  71.4810  0.00  0.00     0.000 C
ATOM     55   O  A00 X   3      34.231  15.828  71.8940  0.00  0.00     0.000 OA
ATOM     56   O  A00 X   3      34.576  17.338  70.4850  0.00  0.00     0.000 OA
ENDBRANCH 45 54
BRANCH 41 57
ATOM     57  O4  A00 X   4      31.250  16.187  70.0870  0.00  0.00     0.000 O
BRANCH 57 61
ATOM     58  C1  A00 X   4      31.127  16.103  65.7730  0.00  0.00     0.000 C
ATOM     59  C2  A00 X   4      31.950  17.215  66.4690  0.00  0.00     0.000 C
ATOM     60  C3  A00 X   4      32.216  16.939  67.9630  0.00  0.00     0.000 C
ATOM     61  C4  A00 X   4      30.930  16.516  68.7050  0.00  0.00     0.000 C
ATOM     62  C5  A00 X   4      30.393  15.265  67.9670  0.00  0.00     0.000 C
ATOM     63  O5  A00 X   4      30.046  15.626  66.6060  0.00  0.00     0.000 O
BRANCH 59 66
ATOM     64   N  A00 X   4      31.225  18.498  66.4350  0.00  0.00     0.000 N
ATOM     66  HD  A00 X   4      30.360  18.468  66.4100  0.00  0.00     0.000 HD
ATOM     66   O  A00 X   4      32.048  18.789  64.1910  0.00  0.00     0.000 OA
ATOM     67   S  A00 X   4      31.628  19.566  65.3140  0.00  0.00     0.000 S
ATOM     68   O  A00 X   4      30.381  20.257  65.1550  0.00  0.00     0.000 OA
ATOM     69   O  A00 X   4      32.627  20.313  66.0240  0.00  0.00     0.000 OA
ENDBRANCH 59 66
BRANCH 62 70
ATOM     70   C  A00 X   4      29.155  14.621  68.6350  0.00  0.00     0.000 C
ATOM     71   O  A00 X   4      25.784  15.918  68.8780  0.00  0.00     0.000 OA
ATOM     72   O  A00 X   4      27.200  15.009  70.5250  0.00  0.00     0.000 OA
ATOM     73   O  A00 X   4      27.980  15.367  68.2780  0.00  0.00     0.000 O
ATOM     74   O  A00 X   4      27.601  17.269  69.7070  0.00  0.00     0.000 OA
ATOM     75   S  A00 X   4      27.105  15.958  69.4380  0.00  0.00     0.000 S
ENDBRANCH 62 70
ENDBRANCH 57 61
ENDBRANCH 41 57
ENDBRANCH 40 44
ENDBRANCH 20 40
ENDBRANCH 19 23
ENDBRANCH 1 19
TORSDOF 14
ENDMDL
MODEL 73
REMARK VINA RESULT:      -0.3     93.757     98.852
ROOT
ATOM      1  C1  A00 X   1      78.909  77.014  29.3030  0.00  0.00     0.000 C
ATOM      2  C2  A00 X   1      78.704  77.877  30.5760  0.00  0.00     0.000 C
ATOM      3  C3  A00 X   1      79.372  79.292  30.5620  0.00  0.00     0.000 C
ATOM      4  C4  A00 X   1      80.443  79.515  29.4630  0.00  0.00     0.000 C
ATOM      5  C5  A00 X   1      81.037  78.199  28.9600  0.00  0.00     0.000 C
ATOM      6  O5  A00 X   1      79.919  77.490  28.3790  0.00  0.00     0.000 O
ATOM      7   O  A00 X   1      80.025  79.502  31.8120  0.00  0.00     0.000 O
ATOM      9  HD  A00 X   1      80.550  79.808  31.1950  0.00  0.00     0.000 HD
ATOM      9   O  A00 X   1      79.916  80.257  28.3630  0.00  0.00     0.000 O
ATOM     11  HD  A00 X   1      80.441  80.563  27.7460  0.00  0.00     0.000 HD
ENDROOT
BRANCH 2 11
ATOM     11   O  A00 X   1      77.286  78.030  30.7790  0.00  0.00     0.000 O
ATOM     12   O  A00 X   1      76.394  79.507  32.4490  0.00  0.00     0.000 OA
ATOM     13   O  A00 X   1      77.723  77.591  33.1420  0.00  0.00     0.000 OA
ATOM     14   O  A00 X   1      75.572  77.279  32.1760  0.00  0.00     0.000 OA
ATOM     15   S  A00 X   1      76.735  78.122  32.2440  0.00  0.00     0.000 S
ENDBRANCH 2 11
BRANCH 5 16
ATOM     16   C  A00 X   1      81.796  77.386  30.0140  0.00  0.00     0.000 C
ATOM     17   O  A00 X   1      82.069  76.229  29.7700  0.00  0.00     0.000 OA
ATOM     18   O  A00 X   1      82.140  77.860  31.0790  0.00  0.00     0.000 OA
ENDBRANCH 5 16
BRANCH 1 19
ATOM     19  O4  A00 X   2      79.087  75.607  29.6010  0.00  0.00     0.000 O
BRANCH 19 23
ATOM     20  C1  A00 X   2      76.728  74.291  26.2750  0.00  0.00     0.000 C
ATOM     21  C2  A00 X   2      76.041  74.344  27.6610  0.00  0.00     0.000 C
ATOM     22  C3  A00 X   2      76.848  75.223  28.6400  0.00  0.00     0.000 C
ATOM     23  C4  A00 X   2      78.316  74.746  28.7150  0.00  0.00     0.000 C
ATOM     24  C5  A00 X   2      78.881  74.719  27.2690  0.00  0.00     0.000 C
ATOM     25  O5  A00 X   2      78.082  73.805  26.4730  0.00  0.00     0.000 O
ATOM     26   O  A00 X   2      76.136  75.296  29.8870  0.00  0.00     0.000 O
ATOM     28  HD  A00 X   2      76.038  74.438  29.9390  0.00  0.00     0.000 HD
BRANCH 21 30
ATOM     28   N  A00 X   2      75.263  73.162  27.2810  0.00  0.00     0.000 N
ATOM     30  HD  A00 X   2      74.870  73.509  27.9700  0.00  0.00     0.000 HD
ATOM     30   O  A00 X   2      73.180  73.294  28.3300  0.00  0.00     0.000 OA
ATOM     31   S  A00 X   2      74.342  72.478  28.3680  0.00  0.00     0.000 S
ATOM     32   O  A00 X   2      74.163  71.148  27.8730  0.00  0.00     0.000 OA
ATOM     33   O  A00 X   2      75.080  72.456  29.5950  0.00  0.00     0.000 OA
ENDBRANCH 21 30
BRANCH 24 34
ATOM     34   C  A00 X   2      80.401  74.497  27.0880  0.00  0.00     0.000 C
ATOM     35   O  A00 X   2      81.851  71.697  25.2660  0.00  0.00     0.000 OA
ATOM     36   O  A00 X   2      80.684  73.154  26.6460  0.00  0.00     0.000 O
ATOM     37   O  A00 X   2      80.277  73.201  24.3430  0.00  0.00     0.000 OA
ATOM     38   S  A00 X   2      81.380  73.043  25.2400  0.00  0.00     0.000 S
ATOM     39   O  A00 X   2      82.404  74.044  25.2150  0.00  0.00     0.000 OA
ENDBRANCH 24 34
BRANCH 20 40
ATOM     40  O4  A00 X   3      76.768  75.648  25.8090  0.00  0.00     0.000 O
BRANCH 40 44
ATOM     41  C1  A00 X   3      78.574  78.342  24.1950  0.00  0.00     0.000 C
ATOM     42  C2  A00 X   3      77.135  78.452  24.7440  0.00  0.00     0.000 C
ATOM     43  C3  A00 X   3      76.249  77.294  24.2160  0.00  0.00     0.000 C
ATOM     44  C4  A00 X   3      76.850  75.906  24.3910  0.00  0.00     0.000 C
ATOM     45  C5  A00 X   3      78.293  75.874  23.8110  0.00  0.00     0.000 C
ATOM     46  O5  A00 X   3      79.089  76.989  24.3280  0.00  0.00     0.000 O
ATOM     47   O  A00 X   3      74.873  77.342  24.5900  0.00  0.00     0.000 O
ATOM     49  HD  A00 X   3      74.981  76.486  24.6660  0.00  0.00     0.000 HD
BRANCH 42 49
ATOM     49   O  A00 X   3      77.229  78.429  26.1860  0.00  0.00     0.000 O
ATOM     50   O  A00 X   3      75.698  78.514  28.0240  0.00  0.00     0.000 OA
ATOM     51   O  A00 X   3      75.336  79.937  26.1710  0.00  0.00     0.000 OA
ATOM     52   O  A00 X   3      77.212  80.339  27.5510  0.00  0.00     0.000 OA
ATOM     53   S  A00 X   3      76.320  79.352  27.0480  0.00  0.00     0.000 S
ENDBRANCH 42 49
BRANCH 45 54
ATOM     54   C  A00 X   3      78.287  75.796  22.2790  0.00  0.00     0.000 C
ATOM     55   O  A00 X   3      77.255  75.942  21.6560  0.00  0.00     0.000 OA
ATOM     56   O  A00 X   3      79.318  75.584  21.6600  0.00  0.00     0.000 OA
ENDBRANCH 45 54
BRANCH 41 57
ATOM     57  O4  A00 X   4      78.677  78.881  22.8580  0.00  0.00     0.000 O
BRANCH 57 61
ATOM     58  C1  A00 X   4      81.851  80.901  20.7390  0.00  0.00     0.000 C
ATOM     59  C2  A00 X   4      82.087  79.446  21.2170  0.00  0.00     0.000 C
ATOM     60  C3  A00 X   4      80.792  78.716  21.6280  0.00  0.00     0.000 C
ATOM     61  C4  A00 X   4      79.921  79.579  22.5670  0.00  0.00     0.000 C
ATOM     62  C5  A00 X   4      79.632  80.896  21.8060  0.00  0.00     0.000 C
ATOM     63  O5  A00 X   4      80.882  81.591  21.5620  0.00  0.00     0.000 O
BRANCH 59 66
ATOM     64   N  A00 X   4      82.957  79.147  22.3690  0.00  0.00     0.000 N
ATOM     66  HD  A00 X   4      82.955  79.709  23.0280  0.00  0.00     0.000 HD
ATOM     66   O  A00 X   4      84.838  79.636  20.9470  0.00  0.00     0.000 OA
ATOM     67   S  A00 X   4      84.503  78.848  22.0920  0.00  0.00     0.000 S
ATOM     68   O  A00 X   4      85.077  79.286  23.3310  0.00  0.00     0.000 OA
ATOM     69   O  A00 X   4      84.462  77.422  21.9350  0.00  0.00     0.000 OA
ENDBRANCH 59 66
BRANCH 62 70
ATOM     70   C  A00 X   4      78.672  81.857  22.5470  0.00  0.00     0.000 C
ATOM     71   O  A00 X   4      79.269  83.765  25.5660  0.00  0.00     0.000 OA
ATOM     72   O  A00 X   4      77.473  82.366  24.9650  0.00  0.00     0.000 OA
ATOM     73   O  A00 X   4      79.405  82.581  23.5490  0.00  0.00     0.000 O
ATOM     74   O  A00 X   4      79.600  81.377  25.6280  0.00  0.00     0.000 OA
ATOM     75   S  A00 X   4      78.913  82.479  25.0350  0.00  0.00     0.000 S
ENDBRANCH 62 70
ENDBRANCH 57 61
ENDBRANCH 41 57
ENDBRANCH 40 44
ENDBRANCH 20 40
ENDBRANCH 19 23
ENDBRANCH 1 19
TORSDOF 14
ENDMDL
MODEL 74
REMARK VINA RESULT:      -0.3    105.575    108.869
ROOT
ATOM      1  C1  A00 X   1      53.740  86.989  93.9120  0.00  0.00     0.000 C
ATOM      2  C2  A00 X   1      54.407  85.590  93.9810  0.00  0.00     0.000 C
ATOM      3  C3  A00 X   1      54.128  84.758  95.2760  0.00  0.00     0.000 C
ATOM      4  C4  A00 X   1      53.540  85.556  96.4690  0.00  0.00     0.000 C
ATOM      5  C5  A00 X   1      53.842  87.051  96.3680  0.00  0.00     0.000 C
ATOM      6  O5  A00 X   1      53.181  87.478  95.1560  0.00  0.00     0.000 O
ATOM      7   O  A00 X   1      55.355  84.194  95.7320  0.00  0.00     0.000 O
ATOM      9  HD  A00 X   1      54.928  84.475  96.4310  0.00  0.00     0.000 HD
ATOM      9   O  A00 X   1      52.132  85.355  96.5870  0.00  0.00     0.000 O
ATOM     11  HD  A00 X   1      51.704  85.635  97.2860  0.00  0.00     0.000 HD
ENDROOT
BRANCH 2 11
ATOM     11   O  A00 X   1      53.966  84.836  92.8350  0.00  0.00     0.000 O
ATOM     12   O  A00 X   1      54.466  82.501  92.5800  0.00  0.00     0.000 OA
ATOM     13   O  A00 X   1      56.287  84.114  92.5960  0.00  0.00     0.000 OA
ATOM     14   O  A00 X   1      54.750  84.049  90.7820  0.00  0.00     0.000 OA
ATOM     15   S  A00 X   1      54.946  83.801  92.1840  0.00  0.00     0.000 S
ENDBRANCH 2 11
BRANCH 5 16
ATOM     16   C  A00 X   1      55.329  87.416  96.4170  0.00  0.00     0.000 C
ATOM     17   O  A00 X   1      56.116  86.593  96.8390  0.00  0.00     0.000 OA
ATOM     18   O  A00 X   1      55.749  88.493  96.0420  0.00  0.00     0.000 OA
ENDBRANCH 5 16
BRANCH 1 19
ATOM     19  O4  A00 X   2      54.587  87.984  93.2860  0.00  0.00     0.000 O
BRANCH 19 23
ATOM     20  C1  A00 X   2      51.357  89.856  91.1820  0.00  0.00     0.000 C
ATOM     21  C2  A00 X   2      52.215  88.828  90.4050  0.00  0.00     0.000 C
ATOM     22  C3  A00 X   2      53.026  87.945  91.3760  0.00  0.00     0.000 C
ATOM     23  C4  A00 X   2      53.861  88.819  92.3380  0.00  0.00     0.000 C
ATOM     24  C5  A00 X   2      52.894  89.813  93.0370  0.00  0.00     0.000 C
ATOM     25  O5  A00 X   2      52.252  90.630  92.0240  0.00  0.00     0.000 O
ATOM     26   O  A00 X   2      53.750  86.965  90.6120  0.00  0.00     0.000 O
ATOM     28  HD  A00 X   2      54.077  87.556  90.0700  0.00  0.00     0.000 HD
BRANCH 21 30
ATOM     28   N  A00 X   2      52.026  89.639  89.1980  0.00  0.00     0.000 N
ATOM     30  HD  A00 X   2      52.314  88.865  88.9380  0.00  0.00     0.000 HD
ATOM     30   O  A00 X   2      52.013  88.205  87.3540  0.00  0.00     0.000 OA
ATOM     31   S  A00 X   2      52.819  89.245  87.8880  0.00  0.00     0.000 S
ATOM     32   O  A00 X   2      52.831  90.454  87.1240  0.00  0.00     0.000 OA
ATOM     33   O  A00 X   2      54.149  88.896  88.2880  0.00  0.00     0.000 OA
ENDBRANCH 21 30
BRANCH 24 34
ATOM     34   C  A00 X   2      53.441  90.648  94.2190  0.00  0.00     0.000 C
ATOM     35   O  A00 X   2      53.720  94.278  94.1970  0.00  0.00     0.000 OA
ATOM     36   O  A00 X   2      53.764  91.991  93.8060  0.00  0.00     0.000 O
ATOM     37   O  A00 X   2      51.707  93.105  93.7910  0.00  0.00     0.000 OA
ATOM     38   S  A00 X   2      52.941  93.127  94.5160  0.00  0.00     0.000 S
ATOM     39   O  A00 X   2      52.899  92.788  95.9070  0.00  0.00     0.000 OA
ENDBRANCH 24 34
BRANCH 20 40
ATOM     40  O4  A00 X   3      50.474  89.081  92.0060  0.00  0.00     0.000 O
BRANCH 40 44
ATOM     41  C1  A00 X   3      48.947  88.615  95.2570  0.00  0.00     0.000 C
ATOM     42  C2  A00 X   3      48.738  87.681  94.0450  0.00  0.00     0.000 C
ATOM     43  C3  A00 X   3      48.338  88.490  92.7840  0.00  0.00     0.000 C
ATOM     44  C4  A00 X   3      49.245  89.675  92.4770  0.00  0.00     0.000 C
ATOM     45  C5  A00 X   3      49.401  90.567  93.7400  0.00  0.00     0.000 C
ATOM     46  O5  A00 X   3      49.769  89.762  94.9070  0.00  0.00     0.000 O
ATOM     47   O  A00 X   3      48.034  87.721  91.6220  0.00  0.00     0.000 O
ATOM     49  HD  A00 X   3      48.454  88.366  91.2230  0.00  0.00     0.000 HD
BRANCH 42 49
ATOM     49   O  A00 X   3      49.978  86.967  93.8430  0.00  0.00     0.000 O
ATOM     50   O  A00 X   3      50.821  85.371  92.2710  0.00  0.00     0.000 OA
ATOM     51   O  A00 X   3      48.605  85.135  93.0600  0.00  0.00     0.000 OA
ATOM     52   O  A00 X   3      50.384  84.773  94.5720  0.00  0.00     0.000 OA
ATOM     53   S  A00 X   3      49.962  85.473  93.4090  0.00  0.00     0.000 S
ENDBRANCH 42 49
BRANCH 45 54
ATOM     54   C  A00 X   3      48.162  91.439  93.9760  0.00  0.00     0.000 C
ATOM     55   O  A00 X   3      48.158  92.287  94.8450  0.00  0.00     0.000 OA
ATOM     56   O  A00 X   3      47.159  91.296  93.2950  0.00  0.00     0.000 OA
ENDBRANCH 45 54
BRANCH 41 57
ATOM     57  O4  A00 X   4      47.692  88.962  95.8850  0.00  0.00     0.000 O
BRANCH 57 61
ATOM     58  C1  A00 X   4      46.568  89.726  99.9830  0.00  0.00     0.000 C
ATOM     59  C2  A00 X   4      47.604  90.662  99.3120  0.00  0.00     0.000 C
ATOM     60  C3  A00 X   4      47.655  90.522  97.7770  0.00  0.00     0.000 C
ATOM     61  C4  A00 X   4      47.730  89.043  97.3390  0.00  0.00     0.000 C
ATOM     62  C5  A00 X   4      46.489  88.344  97.9480  0.00  0.00     0.000 C
ATOM     63  O5  A00 X   4      46.570  88.406  99.3950  0.00  0.00     0.000 O
BRANCH 59 66
ATOM     64   N  A00 X   4      48.965  90.344  99.7780  0.00  0.00     0.000 N
ATOM     66  HD  A00 X   4      49.122  89.530 100.0280  0.00  0.00     0.000 HD
ATOM     66   O  A00 X   4      48.498  91.671 101.7330  0.00  0.00     0.000 OA
ATOM     67   S  A00 X   4      49.604  91.253 100.9280  0.00  0.00     0.000 S
ATOM     68   O  A00 X   4      50.491  90.309 101.5420  0.00  0.00     0.000 OA
ATOM     69   O  A00 X   4      50.263  92.247 100.1290  0.00  0.00     0.000 OA
ENDBRANCH 59 66
BRANCH 62 70
ATOM     70   C  A00 X   4      46.327  86.864  97.5260  0.00  0.00     0.000 C
ATOM     71   O  A00 X   4      48.349  84.012  98.4640  0.00  0.00     0.000 OA
ATOM     72   O  A00 X   4      47.609  84.739  96.3510  0.00  0.00     0.000 OA
ATOM     73   O  A00 X   4      47.194  86.045  98.3270  0.00  0.00     0.000 O
ATOM     74   O  A00 X   4      49.436  85.913  97.4560  0.00  0.00     0.000 OA
ATOM     75   S  A00 X   4      48.242  85.143  97.5870  0.00  0.00     0.000 S
ENDBRANCH 62 70
ENDBRANCH 57 61
ENDBRANCH 41 57
ENDBRANCH 40 44
ENDBRANCH 20 40
ENDBRANCH 19 23
ENDBRANCH 1 19
TORSDOF 14
ENDMDL
MODEL 75
REMARK VINA RESULT:      -0.3     46.764     52.040
ROOT
ATOM      1  C1  A00 X   1      37.714  46.354  25.1590  0.00  0.00     0.000 C
ATOM      2  C2  A00 X   1      36.377  46.765  25.8300  0.00  0.00     0.000 C
ATOM      3  C3  A00 X   1      36.199  48.290  26.1320  0.00  0.00     0.000 C
ATOM      4  C4  A00 X   1      37.495  49.139  26.0710  0.00  0.00     0.000 C
ATOM      5  C5  A00 X   1      38.751  48.290  26.2660  0.00  0.00     0.000 C
ATOM      6  O5  A00 X   1      38.749  47.369  25.1520  0.00  0.00     0.000 O
ATOM      7   O  A00 X   1      35.681  48.437  27.4530  0.00  0.00     0.000 O
ATOM      9  HD  A00 X   1      36.285  49.048  27.3460  0.00  0.00     0.000 HD
ATOM      9   O  A00 X   1      37.587  49.861  24.8430  0.00  0.00     0.000 O
ATOM     11  HD  A00 X   1      38.191  50.473  24.7360  0.00  0.00     0.000 HD
ENDROOT
BRANCH 2 11
ATOM     11   O  A00 X   1      35.304  46.329  24.9730  0.00  0.00     0.000 O
ATOM     12   O  A00 X   1      33.016  46.919  25.4010  0.00  0.00     0.000 OA
ATOM     13   O  A00 X   1      34.204  45.525  27.0010  0.00  0.00     0.000 OA
ATOM     14   O  A00 X   1      33.652  44.683  24.8460  0.00  0.00     0.000 OA
ATOM     15   S  A00 X   1      33.959  45.853  25.6230  0.00  0.00     0.000 S
ENDBRANCH 2 11
BRANCH 5 16
ATOM     16   C  A00 X   1      38.862  47.602  27.6310  0.00  0.00     0.000 C
ATOM     17   O  A00 X   1      38.169  48.004  28.5430  0.00  0.00     0.000 OA
ATOM     18   O  A00 X   1      39.610  46.666  27.8290  0.00  0.00     0.000 OA
ENDBRANCH 5 16
BRANCH 1 19
ATOM     19  O4  A00 X   2      38.220  45.087  25.6450  0.00  0.00     0.000 O
BRANCH 19 23
ATOM     20  C1  A00 X   2      39.568  43.797  21.7870  0.00  0.00     0.000 C
ATOM     21  C2  A00 X   2      38.195  43.274  22.2770  0.00  0.00     0.000 C
ATOM     22  C3  A00 X   2      37.661  44.137  23.4380  0.00  0.00     0.000 C
ATOM     23  C4  A00 X   2      38.707  44.231  24.5720  0.00  0.00     0.000 C
ATOM     24  C5  A00 X   2      40.034  44.746  23.9520  0.00  0.00     0.000 C
ATOM     25  O5  A00 X   2      40.466  43.812  22.9290  0.00  0.00     0.000 O
ATOM     26   O  A00 X   2      36.358  43.655  23.8100  0.00  0.00     0.000 O
ATOM     28  HD  A00 X   2      36.624  42.833  23.8690  0.00  0.00     0.000 HD
BRANCH 21 30
ATOM     28   N  A00 X   2      38.473  42.010  21.5870  0.00  0.00     0.000 N
ATOM     30  HD  A00 X   2      37.625  42.019  21.7620  0.00  0.00     0.000 HD
ATOM     30   O  A00 X   2      36.441  41.120  20.8540  0.00  0.00     0.000 OA
ATOM     31   S  A00 X   2      37.470  40.804  21.7800  0.00  0.00     0.000 S
ATOM     32   O  A00 X   2      38.253  39.655  21.4450  0.00  0.00     0.000 OA
ATOM     33   O  A00 X   2      37.108  40.772  23.1660  0.00  0.00     0.000 OA
ENDBRANCH 21 30
BRANCH 24 34
ATOM     34   C  A00 X   2      41.177  45.147  24.9150  0.00  0.00     0.000 C
ATOM     35   O  A00 X   2      42.663  42.902  27.3660  0.00  0.00     0.000 OA
ATOM     36   O  A00 X   2      41.314  44.195  25.9880  0.00  0.00     0.000 O
ATOM     37   O  A00 X   2      42.536  42.434  25.0510  0.00  0.00     0.000 OA
ATOM     38   S  A00 X   2      42.697  43.447  26.0480  0.00  0.00     0.000 S
ATOM     39   O  A00 X   2      43.704  44.440  25.8290  0.00  0.00     0.000 OA
ENDBRANCH 24 34
BRANCH 20 40
ATOM     40  O4  A00 X   3      39.334  45.141  21.3420  0.00  0.00     0.000 O
BRANCH 40 44
ATOM     41  C1  A00 X   3      40.455  48.586  21.3350  0.00  0.00     0.000 C
ATOM     42  C2  A00 X   3      39.164  48.079  20.6560  0.00  0.00     0.000 C
ATOM     43  C3  A00 X   3      39.459  46.859  19.7450  0.00  0.00     0.000 C
ATOM     44  C4  A00 X   3      40.258  45.748  20.4130  0.00  0.00     0.000 C
ATOM     45  C5  A00 X   3      41.541  46.334  21.0680  0.00  0.00     0.000 C
ATOM     46  O5  A00 X   3      41.217  47.488  21.9090  0.00  0.00     0.000 O
ATOM     47   O  A00 X   3      38.352  46.359  18.9970  0.00  0.00     0.000 O
ATOM     49  HD  A00 X   3      38.708  45.594  19.1960  0.00  0.00     0.000 HD
BRANCH 42 49
ATOM     49   O  A00 X   3      38.237  47.739  21.7100  0.00  0.00     0.000 O
ATOM     50   O  A00 X   3      36.028  46.826  21.8460  0.00  0.00     0.000 OA
ATOM     51   O  A00 X   3      36.496  48.438  20.1800  0.00  0.00     0.000 OA
ATOM     52   O  A00 X   3      36.488  49.124  22.4420  0.00  0.00     0.000 OA
ATOM     53   S  A00 X   3      36.719  48.042  21.5490  0.00  0.00     0.000 S
ENDBRANCH 42 49
BRANCH 45 54
ATOM     54   C  A00 X   3      42.624  46.633  20.0250  0.00  0.00     0.000 C
ATOM     55   O  A00 X   3      42.384  46.540  18.8390  0.00  0.00     0.000 OA
ATOM     56   O  A00 X   3      43.747  46.968  20.3680  0.00  0.00     0.000 OA
ENDBRANCH 45 54
BRANCH 41 57
ATOM     57  O4  A00 X   4      41.223  49.436  20.4540  0.00  0.00     0.000 O
BRANCH 57 61
ATOM     58  C1  A00 X   4      43.763  52.857  21.1520  0.00  0.00     0.000 C
ATOM     59  C2  A00 X   4      44.151  51.502  21.7950  0.00  0.00     0.000 C
ATOM     60  C3  A00 X   4      43.395  50.298  21.1960  0.00  0.00     0.000 C
ATOM     61  C4  A00 X   4      41.877  50.565  21.1010  0.00  0.00     0.000 C
ATOM     62  C5  A00 X   4      41.713  51.844  20.2420  0.00  0.00     0.000 C
ATOM     63  O5  A00 X   4      42.339  52.960  20.9240  0.00  0.00     0.000 O
BRANCH 59 66
ATOM     64   N  A00 X   4      43.810  51.509  23.2290  0.00  0.00     0.000 N
ATOM     66  HD  A00 X   4      43.155  52.016  23.4820  0.00  0.00     0.000 HD
ATOM     66   O  A00 X   4      45.880  52.679  23.6120  0.00  0.00     0.000 OA
ATOM     67   S  A00 X   4      44.978  51.795  24.2830  0.00  0.00     0.000 S
ATOM     68   O  A00 X   4      44.223  52.380  25.3530  0.00  0.00     0.000 OA
ATOM     69   O  A00 X   4      45.422  50.455  24.5410  0.00  0.00     0.000 OA
ENDBRANCH 59 66
BRANCH 62 70
ATOM     70   C  A00 X   4      40.242  52.216  19.9380  0.00  0.00     0.000 C
ATOM     71   O  A00 X   4      37.698  53.423  22.2140  0.00  0.00     0.000 OA
ATOM     72   O  A00 X   4      37.634  51.690  20.6210  0.00  0.00     0.000 OA
ATOM     73   O  A00 X   4      39.674  52.879  21.0790  0.00  0.00     0.000 O
ATOM     74   O  A00 X   4      38.811  51.347  22.7270  0.00  0.00     0.000 OA
ATOM     75   S  A00 X   4      38.382  52.262  21.7190  0.00  0.00     0.000 S
ENDBRANCH 62 70
ENDBRANCH 57 61
ENDBRANCH 41 57
ENDBRANCH 40 44
ENDBRANCH 20 40
ENDBRANCH 19 23
ENDBRANCH 1 19
TORSDOF 14
ENDMDL
MODEL 76
REMARK VINA RESULT:      -0.3     39.618     44.952
ROOT
ATOM      1  C1  A00 X   1      38.506  34.661  16.3350  0.00  0.00     0.000 C
ATOM      2  C2  A00 X   1      39.981  34.223  16.5400  0.00  0.00     0.000 C
ATOM      3  C3  A00 X   1      41.069  35.159  15.9160  0.00  0.00     0.000 C
ATOM      4  C4  A00 X   1      40.551  36.184  14.8750  0.00  0.00     0.000 C
ATOM      5  C5  A00 X   1      39.223  35.754  14.2520  0.00  0.00     0.000 C
ATOM      6  O5  A00 X   1      38.295  35.711  15.3590  0.00  0.00     0.000 O
ATOM      7   O  A00 X   1      42.034  34.353  15.2450  0.00  0.00     0.000 O
ATOM      9  HD  A00 X   1      41.882  35.041  14.7420  0.00  0.00     0.000 HD
ATOM      9   O  A00 X   1      40.416  37.485  15.4470  0.00  0.00     0.000 O
ATOM     11  HD  A00 X   1      40.264  38.174  14.9440  0.00  0.00     0.000 HD
ENDROOT
BRANCH 2 11
ATOM     11   O  A00 X   1      40.213  34.114  17.9580  0.00  0.00     0.000 O
ATOM     12   O  A00 X   1      42.325  33.397  18.8470  0.00  0.00     0.000 OA
ATOM     13   O  A00 X   1      41.013  31.850  17.5060  0.00  0.00     0.000 OA
ATOM     14   O  A00 X   1      40.258  32.517  19.6600  0.00  0.00     0.000 OA
ATOM     15   S  A00 X   1      41.023  32.887  18.5010  0.00  0.00     0.000 S
ENDBRANCH 2 11
BRANCH 5 16
ATOM     16   C  A00 X   1      39.277  34.452  13.4460  0.00  0.00     0.000 C
ATOM     17   O  A00 X   1      38.233  33.939  13.1000  0.00  0.00     0.000 OA
ATOM     18   O  A00 X   1      40.325  33.921  13.1370  0.00  0.00     0.000 OA
ENDBRANCH 5 16
BRANCH 1 19
ATOM     19  O4  A00 X   2      37.615  33.542  16.1080  0.00  0.00     0.000 O
BRANCH 19 23
ATOM     20  C1  A00 X   2      34.393  35.259  18.3510  0.00  0.00     0.000 C
ATOM     21  C2  A00 X   2      35.286  34.217  19.0670  0.00  0.00     0.000 C
ATOM     22  C3  A00 X   2      36.618  34.024  18.3120  0.00  0.00     0.000 C
ATOM     23  C4  A00 X   2      36.357  33.674  16.8300  0.00  0.00     0.000 C
ATOM     24  C5  A00 X   2      35.441  34.778  16.2350  0.00  0.00     0.000 C
ATOM     25  O5  A00 X   2      34.198  34.807  16.9850  0.00  0.00     0.000 O
ATOM     26   O  A00 X   2      37.438  33.102  19.0510  0.00  0.00     0.000 O
ATOM     28  HD  A00 X   2      36.804  32.516  19.1200  0.00  0.00     0.000 HD
BRANCH 21 30
ATOM     28   N  A00 X   2      34.100  33.756  19.7960  0.00  0.00     0.000 N
ATOM     30  HD  A00 X   2      34.790  33.439  20.2130  0.00  0.00     0.000 HD
ATOM     30   O  A00 X   2      34.785  33.011  21.9020  0.00  0.00     0.000 OA
ATOM     31   S  A00 X   2      34.224  32.475  20.7130  0.00  0.00     0.000 S
ATOM     32   O  A00 X   2      32.875  32.015  20.8360  0.00  0.00     0.000 OA
ATOM     33   O  A00 X   2      35.013  31.517  19.9980  0.00  0.00     0.000 OA
ENDBRANCH 21 30
BRANCH 24 34
ATOM     34   C  A00 X   2      35.215  34.788  14.7050  0.00  0.00     0.000 C
ATOM     35   O  A00 X   2      31.971  34.330  13.1170  0.00  0.00     0.000 OA
ATOM     36   O  A00 X   2      33.927  34.238  14.3630  0.00  0.00     0.000 O
ATOM     37   O  A00 X   2      32.428  35.995  14.7340  0.00  0.00     0.000 OA
ATOM     38   S  A00 X   2      32.945  35.231  13.6400  0.00  0.00     0.000 S
ATOM     39   O  A00 X   2      33.721  35.923  12.6550  0.00  0.00     0.000 OA
ENDBRANCH 24 34
BRANCH 20 40
ATOM     40  O4  A00 X   3      35.146  36.480  18.3500  0.00  0.00     0.000 O
BRANCH 40 44
ATOM     41  C1  A00 X   3      36.258  39.435  16.5740  0.00  0.00     0.000 C
ATOM     42  C2  A00 X   3      36.648  39.082  18.0250  0.00  0.00     0.000 C
ATOM     43  C3  A00 X   3      35.393  38.757  18.8750  0.00  0.00     0.000 C
ATOM     44  C4  A00 X   3      34.449  37.740  18.2460  0.00  0.00     0.000 C
ATOM     45  C5  A00 X   3      34.099  38.166  16.7920  0.00  0.00     0.000 C
ATOM     46  O5  A00 X   3      35.312  38.473  16.0310  0.00  0.00     0.000 O
ATOM     47   O  A00 X   3      35.626  38.499  20.2580  0.00  0.00     0.000 O
ATOM     49  HD  A00 X   3      35.016  37.897  20.1330  0.00  0.00     0.000 HD
BRANCH 42 49
ATOM     49   O  A00 X   3      37.547  37.953  17.9590  0.00  0.00     0.000 O
ATOM     50   O  A00 X   3      38.710  36.569  19.5290  0.00  0.00     0.000 OA
ATOM     51   O  A00 X   3      38.621  38.901  19.9100  0.00  0.00     0.000 OA
ATOM     52   O  A00 X   3      39.887  38.106  18.0800  0.00  0.00     0.000 OA
ATOM     53   S  A00 X   3      38.767  37.861  18.9220  0.00  0.00     0.000 S
ENDBRANCH 42 49
BRANCH 45 54
ATOM     54   C  A00 X   3      33.067  39.300  16.7660  0.00  0.00     0.000 C
ATOM     55   O  A00 X   3      32.564  39.655  15.7200  0.00  0.00     0.000 OA
ATOM     56   O  A00 X   3      32.735  39.867  17.7960  0.00  0.00     0.000 OA
ENDBRANCH 45 54
BRANCH 41 57
ATOM     57  O4  A00 X   4      35.830  40.810  16.4560  0.00  0.00     0.000 O
BRANCH 57 61
ATOM     58  C1  A00 X   4      36.213  43.750  13.3170  0.00  0.00     0.000 C
ATOM     59  C2  A00 X   4      35.414  42.455  13.0270  0.00  0.00     0.000 C
ATOM     60  C3  A00 X   4      35.041  41.664  14.2970  0.00  0.00     0.000 C
ATOM     61  C4  A00 X   4      36.252  41.487  15.2380  0.00  0.00     0.000 C
ATOM     62  C5  A00 X   4      36.762  42.912  15.5660  0.00  0.00     0.000 C
ATOM     63  O5  A00 X   4      37.212  43.551  14.3440  0.00  0.00     0.000 O
BRANCH 59 66
ATOM     64   N  A00 X   4      35.920  41.363  12.1760  0.00  0.00     0.000 N
ATOM     66  HD  A00 X   4      36.765  41.179  12.2210  0.00  0.00     0.000 HD
ATOM     66   O  A00 X   4      35.547  42.801  10.2810  0.00  0.00     0.000 OA
ATOM     67   S  A00 X   4      35.597  41.411  10.6100  0.00  0.00     0.000 S
ATOM     68   O  A00 X   4      36.725  40.694  10.0910  0.00  0.00     0.000 OA
ATOM     69   O  A00 X   4      34.367  40.672  10.5830  0.00  0.00     0.000 OA
ENDBRANCH 59 66
BRANCH 62 70
ATOM     70   C  A00 X   4      37.918  42.950  16.5950  0.00  0.00     0.000 C
ATOM     71   O  A00 X   4      41.352  41.883  16.1770  0.00  0.00     0.000 OA
ATOM     72   O  A00 X   4      39.795  41.410  17.8790  0.00  0.00     0.000 OA
ATOM     73   O  A00 X   4      39.157  42.662  15.9270  0.00  0.00     0.000 O
ATOM     74   O  A00 X   4      39.590  40.301  15.7180  0.00  0.00     0.000 OA
ATOM     75   S  A00 X   4      40.009  41.454  16.4490  0.00  0.00     0.000 S
ENDBRANCH 62 70
ENDBRANCH 57 61
ENDBRANCH 41 57
ENDBRANCH 40 44
ENDBRANCH 20 40
ENDBRANCH 19 23
ENDBRANCH 1 19
TORSDOF 14
ENDMDL
MODEL 77
REMARK VINA RESULT:      -0.3     55.294     59.058
ROOT
ATOM      1  C1  A00 X   1      34.512  17.229  86.8050  0.00  0.00     0.000 C
ATOM      2  C2  A00 X   1      33.466  17.976  85.9340  0.00  0.00     0.000 C
ATOM      3  C3  A00 X   1      32.291  17.107  85.3760  0.00  0.00     0.000 C
ATOM      4  C4  A00 X   1      32.502  15.573  85.4440  0.00  0.00     0.000 C
ATOM      5  C5  A00 X   1      33.982  15.197  85.5250  0.00  0.00     0.000 C
ATOM      6  O5  A00 X   1      34.442  15.782  86.7640  0.00  0.00     0.000 O
ATOM      7   O  A00 X   1      32.097  17.429  84.0010  0.00  0.00     0.000 O
ATOM      9  HD  A00 X   1      32.023  16.569  84.0750  0.00  0.00     0.000 HD
ATOM      9   O  A00 X   1      31.798  14.997  86.5440  0.00  0.00     0.000 O
ATOM     11  HD  A00 X   1      31.724  14.138  86.6190  0.00  0.00     0.000 HD
ENDROOT
BRANCH 2 11
ATOM     11   O  A00 X   1      32.921  19.049  86.7270  0.00  0.00     0.000 O
ATOM     12   O  A00 X   1      31.064  20.370  85.9710  0.00  0.00     0.000 OA
ATOM     13   O  A00 X   1      33.159  20.445  84.7370  0.00  0.00     0.000 OA
ATOM     14   O  A00 X   1      33.014  21.374  86.9220  0.00  0.00     0.000 OA
ATOM     15   S  A00 X   1      32.504  20.381  86.0140  0.00  0.00     0.000 S
ENDBRANCH 2 11
BRANCH 5 16
ATOM     16   C  A00 X   1      34.820  15.601  84.3080  0.00  0.00     0.000 C
ATOM     17   O  A00 X   1      34.247  15.875  83.2730  0.00  0.00     0.000 OA
ATOM     18   O  A00 X   1      36.033  15.664  84.3440  0.00  0.00     0.000 OA
ENDBRANCH 5 16
BRANCH 1 19
ATOM     19  O4  A00 X   2      35.864  17.700  86.5840  0.00  0.00     0.000 O
BRANCH 19 23
ATOM     20  C1  A00 X   2      36.956  17.452  90.7210  0.00  0.00     0.000 C
ATOM     21  C2  A00 X   2      36.520  18.834  90.1790  0.00  0.00     0.000 C
ATOM     22  C3  A00 X   2      35.761  18.686  88.8430  0.00  0.00     0.000 C
ATOM     23  C4  A00 X   2      36.602  17.881  87.8270  0.00  0.00     0.000 C
ATOM     24  C5  A00 X   2      36.989  16.533  88.4930  0.00  0.00     0.000 C
ATOM     25  O5  A00 X   2      37.757  16.809  89.6940  0.00  0.00     0.000 O
ATOM     26   O  A00 X   2      35.319  19.986  88.4170  0.00  0.00     0.000 O
ATOM     28  HD  A00 X   2      36.102  20.342  88.5200  0.00  0.00     0.000 HD
BRANCH 21 30
ATOM     28   N  A00 X   2      37.488  19.455  91.0880  0.00  0.00     0.000 N
ATOM     30  HD  A00 X   2      36.953  20.083  90.8250  0.00  0.00     0.000 HD
ATOM     30   O  A00 X   2      36.648  21.537  91.7350  0.00  0.00     0.000 OA
ATOM     31   S  A00 X   2      37.734  21.013  90.9850  0.00  0.00     0.000 S
ATOM     32   O  A00 X   2      39.022  21.193  91.5810  0.00  0.00     0.000 OA
ATOM     33   O  A00 X   2      37.781  21.343  89.5920  0.00  0.00     0.000 OA
ENDBRANCH 21 30
BRANCH 24 34
ATOM     34   C  A00 X   2      37.639  15.445  87.6060  0.00  0.00     0.000 C
ATOM     35   O  A00 X   2      40.718  15.919  85.7210  0.00  0.00     0.000 OA
ATOM     36   O  A00 X   2      38.625  16.012  86.7210  0.00  0.00     0.000 O
ATOM     37   O  A00 X   2      40.531  16.259  88.0540  0.00  0.00     0.000 OA
ATOM     38   S  A00 X   2      40.093  15.490  86.9290  0.00  0.00     0.000 S
ATOM     39   O  A00 X   2      39.999  14.070  87.0920  0.00  0.00     0.000 OA
ENDBRANCH 24 34
BRANCH 20 40
ATOM     40  O4  A00 X   3      35.743  16.711  90.9160  0.00  0.00     0.000 O
BRANCH 40 44
ATOM     41  C1  A00 X   3      33.992  13.566  90.5030  0.00  0.00     0.000 C
ATOM     42  C2  A00 X   3      33.372  14.847  91.1020  0.00  0.00     0.000 C
ATOM     43  C3  A00 X   3      34.271  15.428  92.2230  0.00  0.00     0.000 C
ATOM     44  C4  A00 X   3      35.735  15.598  91.8360  0.00  0.00     0.000 C
ATOM     45  C5  A00 X   3      36.288  14.270  91.2480  0.00  0.00     0.000 C
ATOM     46  O5  A00 X   3      35.403  13.753  90.2020  0.00  0.00     0.000 O
ATOM     47   O  A00 X   3      33.754  16.566  92.9100  0.00  0.00     0.000 O
ATOM     49  HD  A00 X   3      34.581  16.821  92.8770  0.00  0.00     0.000 HD
BRANCH 42 49
ATOM     49   O  A00 X   3      33.208  15.786  90.0170  0.00  0.00     0.000 O
ATOM     50   O  A00 X   3      32.448  18.043  89.7780  0.00  0.00     0.000 OA
ATOM     51   O  A00 X   3      31.266  16.587  91.2180  0.00  0.00     0.000 OA
ATOM     52   O  A00 X   3      31.186  16.181  88.8910  0.00  0.00     0.000 OA
ATOM     53   S  A00 X   3      31.959  16.713  89.9600  0.00  0.00     0.000 S
ENDBRANCH 42 49
BRANCH 45 54
ATOM     54   C  A00 X   3      36.587  13.243  92.3470  0.00  0.00     0.000 C
ATOM     55   O  A00 X   3      36.197  13.422  93.4830  0.00  0.00     0.000 OA
ATOM     56   O  A00 X   3      37.222  12.230  92.1010  0.00  0.00     0.000 OA
ENDBRANCH 45 54
BRANCH 41 57
ATOM     57  O4  A00 X   4      33.714  12.406  91.3190  0.00  0.00     0.000 O
BRANCH 57 61
ATOM     58  C1  A00 X   4      33.034   8.247  90.3820  0.00  0.00     0.000 C
ATOM     59  C2  A00 X   4      34.404   8.874  90.0230  0.00  0.00     0.000 C
ATOM     60  C3  A00 X   4      34.662  10.228  90.7150  0.00  0.00     0.000 C
ATOM     61  C4  A00 X   4      33.454  11.179  90.5810  0.00  0.00     0.000 C
ATOM     62  C5  A00 X   4      32.241  10.433  91.1910  0.00  0.00     0.000 C
ATOM     63  O5  A00 X   4      31.979   9.235  90.4160  0.00  0.00     0.000 O
BRANCH 59 66
ATOM     64   N  A00 X   4      34.462   9.150  88.5760  0.00  0.00     0.000 N
ATOM     66  HD  A00 X   4      33.714   9.303  88.1680  0.00  0.00     0.000 HD
ATOM     66   O  A00 X   4      35.050   6.836  88.2600  0.00  0.00     0.000 OA
ATOM     67   S  A00 X   4      35.233   8.110  87.6370  0.00  0.00     0.000 S
ATOM     68   O  A00 X   4      34.526   8.301  86.4040  0.00  0.00     0.000 OA
ATOM     69   O  A00 X   4      36.550   8.681  87.6540  0.00  0.00     0.000 OA
ENDBRANCH 59 66
BRANCH 62 70
ATOM     70   C  A00 X   4      30.945  11.275  91.2500  0.00  0.00     0.000 C
ATOM     71   O  A00 X   4      28.862  12.413  88.5160  0.00  0.00     0.000 OA
ATOM     72   O  A00 X   4      29.756  13.583  90.3530  0.00  0.00     0.000 OA
ATOM     73   O  A00 X   4      30.323  11.280  89.9550  0.00  0.00     0.000 O
ATOM     74   O  A00 X   4      31.206  12.977  88.4900  0.00  0.00     0.000 OA
ATOM     75   S  A00 X   4      30.054  12.667  89.2740  0.00  0.00     0.000 S
ENDBRANCH 62 70
ENDBRANCH 57 61
ENDBRANCH 41 57
ENDBRANCH 40 44
ENDBRANCH 20 40
ENDBRANCH 19 23
ENDBRANCH 1 19
TORSDOF 14
ENDMDL
MODEL 78
REMARK VINA RESULT:      -0.3    117.635    121.418
ROOT
ATOM      1  C1  A00 X   1     106.071  57.052  94.4330  0.00  0.00     0.000 C
ATOM      2  C2  A00 X   1     107.623  57.049  94.4260  0.00  0.00     0.000 C
ATOM      3  C3  A00 X   1     108.307  57.973  93.3650  0.00  0.00     0.000 C
ATOM      4  C4  A00 X   1     107.384  58.485  92.2300  0.00  0.00     0.000 C
ATOM      5  C5  A00 X   1     106.158  57.593  92.0360  0.00  0.00     0.000 C
ATOM      6  O5  A00 X   1     105.441  57.677  93.2880  0.00  0.00     0.000 O
ATOM      7   O  A00 X   1     109.359  57.245  92.7340  0.00  0.00     0.000 O
ATOM      9  HD  A00 X   1     108.951  57.693  92.1150  0.00  0.00     0.000 HD
ATOM      9   O  A00 X   1     106.969  59.831  92.4610  0.00  0.00     0.000 O
ATOM     11  HD  A00 X   1     106.562  60.279  91.8420  0.00  0.00     0.000 HD
ENDROOT
BRANCH 2 11
ATOM     11   O  A00 X   1     108.070  57.433  95.7400  0.00  0.00     0.000 O
ATOM     12   O  A00 X   1     110.393  57.419  96.3480  0.00  0.00     0.000 OA
ATOM     13   O  A00 X   1     109.297  55.322  95.7840  0.00  0.00     0.000 OA
ATOM     14   O  A00 X   1     108.716  56.487  97.7740  0.00  0.00     0.000 OA
ATOM     15   S  A00 X   1     109.208  56.603  96.4280  0.00  0.00     0.000 S
ENDBRANCH 2 11
BRANCH 5 16
ATOM     16   C  A00 X   1     106.465  56.156  91.6010  0.00  0.00     0.000 C
ATOM     17   O  A00 X   1     107.559  55.910  91.1360  0.00  0.00     0.000 OA
ATOM     18   O  A00 X   1     105.657  55.255  91.7110  0.00  0.00     0.000 OA
ENDBRANCH 5 16
BRANCH 1 19
ATOM     19  O4  A00 X   2     105.508  55.744  94.6980  0.00  0.00     0.000 O
BRANCH 19 23
ATOM     20  C1  A00 X   2     102.239  57.281  97.0030  0.00  0.00     0.000 C
ATOM     21  C2  A00 X   2     103.469  56.746  97.7760  0.00  0.00     0.000 C
ATOM     22  C3  A00 X   2     104.697  56.641  96.8490  0.00  0.00     0.000 C
ATOM     23  C4  A00 X   2     104.363  55.800  95.5960  0.00  0.00     0.000 C
ATOM     24  C5  A00 X   2     103.109  56.425  94.9250  0.00  0.00     0.000 C
ATOM     25  O5  A00 X   2     102.010  56.398  95.8730  0.00  0.00     0.000 O
ATOM     26   O  A00 X   2     105.826  56.206  97.6260  0.00  0.00     0.000 O
ATOM     28  HD  A00 X   2     105.394  55.541  97.9730  0.00  0.00     0.000 HD
BRANCH 21 30
ATOM     28   N  A00 X   2     102.557  56.274  98.8230  0.00  0.00     0.000 N
ATOM     30  HD  A00 X   2     103.354  56.268  99.1630  0.00  0.00     0.000 HD
ATOM     30   O  A00 X   2     103.678  56.393 100.8700  0.00  0.00     0.000 OA
ATOM     31   S  A00 X   2     103.145  55.402 100.0040  0.00  0.00     0.000 S
ATOM     32   O  A00 X   2     102.003  54.707 100.5120  0.00  0.00     0.000 OA
ATOM     33   O  A00 X   2     104.074  54.477  99.4250  0.00  0.00     0.000 OA
ENDBRANCH 21 30
BRANCH 24 34
ATOM     34   C  A00 X   2     102.702  55.910  93.5250  0.00  0.00     0.000 C
ATOM     35   O  A00 X   2      99.554  54.229  92.8030  0.00  0.00     0.000 OA
ATOM     36   O  A00 X   2     101.594  54.992  93.6070  0.00  0.00     0.000 O
ATOM     37   O  A00 X   2      99.712  56.368  93.7990  0.00  0.00     0.000 OA
ATOM     38   S  A00 X   2     100.287  55.451  92.8630  0.00  0.00     0.000 S
ATOM     39   O  A00 X   2     100.703  55.971  91.5950  0.00  0.00     0.000 OA
ENDBRANCH 24 34
BRANCH 20 40
ATOM     40  O4  A00 X   3     102.616  58.581  96.5270  0.00  0.00     0.000 O
BRANCH 40 44
ATOM     41  C1  A00 X   3     102.626  60.976  93.8090  0.00  0.00     0.000 C
ATOM     42  C2  A00 X   3     103.280  61.208  95.1880  0.00  0.00     0.000 C
ATOM     43  C3  A00 X   3     102.283  60.899  96.3340  0.00  0.00     0.000 C
ATOM     44  C4  A00 X   3     101.588  59.548  96.2220  0.00  0.00     0.000 C
ATOM     45  C5  A00 X   3     100.952  59.392  94.8120  0.00  0.00     0.000 C
ATOM     46  O5  A00 X   3     101.925  59.703  93.7630  0.00  0.00     0.000 O
ATOM     47   O  A00 X   3     102.752  61.161  97.6550  0.00  0.00     0.000 O
ATOM     49  HD  A00 X   3     102.323  60.430  97.8320  0.00  0.00     0.000 HD
BRANCH 42 49
ATOM     49   O  A00 X   3     104.442  60.352  95.2540  0.00  0.00     0.000 O
ATOM     50   O  A00 X   3     106.119  59.831  96.8810  0.00  0.00     0.000 OA
ATOM     51   O  A00 X   3     105.433  62.079  96.6300  0.00  0.00     0.000 OA
ATOM     52   O  A00 X   3     106.646  61.068  94.8710  0.00  0.00     0.000 OA
ATOM     53   S  A00 X   3     105.744  60.847  95.9490  0.00  0.00     0.000 S
ENDBRANCH 42 49
BRANCH 45 54
ATOM     54   C  A00 X   3      99.651  60.192  94.6850  0.00  0.00     0.000 C
ATOM     55   O  A00 X   3      99.331  60.994  95.5390  0.00  0.00     0.000 OA
ATOM     56   O  A00 X   3      98.913  60.038  93.7240  0.00  0.00     0.000 OA
ENDBRANCH 45 54
BRANCH 41 57
ATOM     57  O4  A00 X   4     101.820  62.105  93.4040  0.00  0.00     0.000 O
BRANCH 57 61
ATOM     58  C1  A00 X   4     100.954  63.869  89.5600  0.00  0.00     0.000 C
ATOM     59  C2  A00 X   4     100.521  62.404  89.8170  0.00  0.00     0.000 C
ATOM     60  C3  A00 X   4     100.553  62.007  91.3070  0.00  0.00     0.000 C
ATOM     61  C4  A00 X   4     101.875  62.426  91.9850  0.00  0.00     0.000 C
ATOM     62  C5  A00 X   4     102.000  63.957  91.7860  0.00  0.00     0.000 C
ATOM     63  O5  A00 X   4     102.091  64.249  90.3680  0.00  0.00     0.000 O
BRANCH 59 66
ATOM     64   N  A00 X   4     101.454  61.486  89.1400  0.00  0.00     0.000 N
ATOM     66  HD  A00 X   4     102.266  61.760  89.0150  0.00  0.00     0.000 HD
ATOM     66   O  A00 X   4     100.198  61.859  87.1200  0.00  0.00     0.000 OA
ATOM     67   S  A00 X   4     101.015  60.860  87.7350  0.00  0.00     0.000 S
ATOM     68   O  A00 X   4     102.299  60.656  87.1300  0.00  0.00     0.000 OA
ATOM     69   O  A00 X   4     100.377  59.655  88.1830  0.00  0.00     0.000 OA
ENDBRANCH 59 66
BRANCH 62 70
ATOM     70   C  A00 X   4     103.221  64.589  92.4970  0.00  0.00     0.000 C
ATOM     71   O  A00 X   4     106.735  64.228  91.7060  0.00  0.00     0.000 OA
ATOM     72   O  A00 X   4     105.595  64.020  93.7560  0.00  0.00     0.000 OA
ATOM     73   O  A00 X   4     104.397  64.376  91.7000  0.00  0.00     0.000 O
ATOM     74   O  A00 X   4     105.433  62.238  92.1020  0.00  0.00     0.000 OA
ATOM     75   S  A00 X   4     105.607  63.630  92.3630  0.00  0.00     0.000 S
ENDBRANCH 62 70
ENDBRANCH 57 61
ENDBRANCH 41 57
ENDBRANCH 40 44
ENDBRANCH 20 40
ENDBRANCH 19 23
ENDBRANCH 1 19
TORSDOF 14
ENDMDL
MODEL 79
REMARK VINA RESULT:      -0.3    110.850    114.801
ROOT
ATOM      1  C1  A00 X   1      72.647  95.929  75.8700  0.00  0.00     0.000 C
ATOM      2  C2  A00 X   1      72.103  96.919  76.9340  0.00  0.00     0.000 C
ATOM      3  C3  A00 X   1      72.060  98.425  76.5130  0.00  0.00     0.000 C
ATOM      4  C4  A00 X   1      72.891  98.792  75.2560  0.00  0.00     0.000 C
ATOM      5  C5  A00 X   1      74.003  97.779  74.9840  0.00  0.00     0.000 C
ATOM      6  O5  A00 X   1      73.313  96.534  74.7350  0.00  0.00     0.000 O
ATOM      7   O  A00 X   1      72.575  99.214  77.5830  0.00  0.00     0.000 O
ATOM      9  HD  A00 X   1      72.892  99.544  76.8470  0.00  0.00     0.000 HD
ATOM      9   O  A00 X   1      72.062  98.919  74.1010  0.00  0.00     0.000 O
ATOM     11  HD  A00 X   1      72.379  99.248  73.3660  0.00  0.00     0.000 HD
ENDROOT
BRANCH 2 11
ATOM     11   O  A00 X   1      70.773  96.493  77.2900  0.00  0.00     0.000 O
ATOM     12   O  A00 X   1      69.352  97.815  78.7040  0.00  0.00     0.000 OA
ATOM     13   O  A00 X   1      71.418  96.904  79.6090  0.00  0.00     0.000 OA
ATOM     14   O  A00 X   1      69.616  95.462  79.0360  0.00  0.00     0.000 OA
ATOM     15   S  A00 X   1      70.275  96.710  78.7600  0.00  0.00     0.000 S
ENDBRANCH 2 11
BRANCH 5 16
ATOM     16   C  A00 X   1      75.071  97.680  76.0790  0.00  0.00     0.000 C
ATOM     17   O  A00 X   1      75.160  98.581  76.8870  0.00  0.00     0.000 OA
ATOM     18   O  A00 X   1      75.824  96.731  76.1710  0.00  0.00     0.000 OA
ENDBRANCH 5 16
BRANCH 1 19
ATOM     19  O4  A00 X   2      73.447  94.868  76.4490  0.00  0.00     0.000 O
BRANCH 19 23
ATOM     20  C1  A00 X   2      71.895  91.853  73.8300  0.00  0.00     0.000 C
ATOM     21  C2  A00 X   2      71.272  91.961  75.2430  0.00  0.00     0.000 C
ATOM     22  C3  A00 X   2      71.609  93.322  75.8880  0.00  0.00     0.000 C
ATOM     23  C4  A00 X   2      73.135  93.562  75.8850  0.00  0.00     0.000 C
ATOM     24  C5  A00 X   2      73.637  93.408  74.4230  0.00  0.00     0.000 C
ATOM     25  O5  A00 X   2      73.325  92.068  73.9610  0.00  0.00     0.000 O
ATOM     26   O  A00 X   2      70.953  93.401  77.1650  0.00  0.00     0.000 O
ATOM     28  HD  A00 X   2      71.252  92.630  77.4230  0.00  0.00     0.000 HD
BRANCH 21 30
ATOM     28   N  A00 X   2      71.102  90.505  75.2390  0.00  0.00     0.000 N
ATOM     30  HD  A00 X   2      70.604  90.814  75.8770  0.00  0.00     0.000 HD
ATOM     30   O  A00 X   2      69.195  89.992  76.4870  0.00  0.00     0.000 OA
ATOM     31   S  A00 X   2      70.599  89.797  76.5600  0.00  0.00     0.000 S
ATOM     32   O  A00 X   2      71.029  88.442  76.4020  0.00  0.00     0.000 OA
ATOM     33   O  A00 X   2      71.284  90.412  77.6570  0.00  0.00     0.000 OA
ENDBRANCH 21 30
BRANCH 24 34
ATOM     34   C  A00 X   2      75.093  93.825  74.1070  0.00  0.00     0.000 C
ATOM     35   O  A00 X   2      78.020  92.421  75.7570  0.00  0.00     0.000 OA
ATOM     36   O  A00 X   2      75.998  93.379  75.1370  0.00  0.00     0.000 O
ATOM     37   O  A00 X   2      76.388  91.128  74.6350  0.00  0.00     0.000 OA
ATOM     38   S  A00 X   2      77.105  92.366  74.6640  0.00  0.00     0.000 S
ATOM     39   O  A00 X   2      77.611  92.870  73.4230  0.00  0.00     0.000 OA
ENDBRANCH 24 34
BRANCH 20 40
ATOM     40  O4  A00 X   3      71.316  92.922  73.0680  0.00  0.00     0.000 O
BRANCH 40 44
ATOM     41  C1  A00 X   3      71.819  95.624  70.7070  0.00  0.00     0.000 C
ATOM     42  C2  A00 X   3      70.467  95.266  71.3600  0.00  0.00     0.000 C
ATOM     43  C3  A00 X   3      70.156  93.756  71.2030  0.00  0.00     0.000 C
ATOM     44  C4  A00 X   3      71.288  92.828  71.6270  0.00  0.00     0.000 C
ATOM     45  C5  A00 X   3      72.610  93.248  70.9260  0.00  0.00     0.000 C
ATOM     46  O5  A00 X   3      72.858  94.681  71.0910  0.00  0.00     0.000 O
ATOM     47   O  A00 X   3      68.888  93.326  71.6940  0.00  0.00     0.000 O
ATOM     49  HD  A00 X   3      69.347  92.638  71.9520  0.00  0.00     0.000 HD
BRANCH 42 49
ATOM     49   O  A00 X   3      70.556  95.645  72.7510  0.00  0.00     0.000 O
ATOM     50   O  A00 X   3      69.140  95.511  74.6770  0.00  0.00     0.000 OA
ATOM     51   O  A00 X   3      68.189  96.129  72.6030  0.00  0.00     0.000 OA
ATOM     52   O  A00 X   3      69.683  97.631  73.6490  0.00  0.00     0.000 OA
ATOM     53   S  A00 X   3      69.327  96.265  73.4780  0.00  0.00     0.000 S
ENDBRANCH 42 49
BRANCH 45 54
ATOM     54   C  A00 X   3      72.644  92.795  69.4610  0.00  0.00     0.000 C
ATOM     55   O  A00 X   3      71.654  92.332  68.9340  0.00  0.00     0.000 OA
ATOM     56   O  A00 X   3      73.667  92.890  68.8010  0.00  0.00     0.000 OA
ENDBRANCH 45 54
BRANCH 41 57
ATOM     57  O4  A00 X   4      71.691  95.805  69.2790  0.00  0.00     0.000 O
BRANCH 57 61
ATOM     58  C1  A00 X   4      73.698  98.376  66.4500  0.00  0.00     0.000 C
ATOM     59  C2  A00 X   4      74.538  97.333  67.2300  0.00  0.00     0.000 C
ATOM     60  C3  A00 X   4      73.685  96.252  67.9240  0.00  0.00     0.000 C
ATOM     61  C4  A00 X   4      72.510  96.868  68.7140  0.00  0.00     0.000 C
ATOM     62  C5  A00 X   4      71.687  97.697  67.6970  0.00  0.00     0.000 C
ATOM     63  O5  A00 X   4      72.513  98.771  67.1780  0.00  0.00     0.000 O
BRANCH 59 66
ATOM     64   N  A00 X   4      75.280  98.012  68.3080  0.00  0.00     0.000 N
ATOM     66  HD  A00 X   4      74.940  98.740  68.6310  0.00  0.00     0.000 HD
ATOM     66   O  A00 X   4      76.934  98.602  66.6600  0.00  0.00     0.000 OA
ATOM     67   S  A00 X   4      76.823  98.357  68.0640  0.00  0.00     0.000 S
ATOM     68   O  A00 X   4      76.967  99.509  68.9050  0.00  0.00     0.000 OA
ATOM     69   O  A00 X   4      77.434  97.167  68.5860  0.00  0.00     0.000 OA
ENDBRANCH 59 66
BRANCH 62 70
ATOM     70   C  A00 X   4      70.393  98.310  68.2820  0.00  0.00     0.000 C
ATOM     71   O  A00 X   4      70.048 100.973  70.7100  0.00  0.00     0.000 OA
ATOM     72   O  A00 X   4      69.048  98.844  70.6160  0.00  0.00     0.000 OA
ATOM     73   O  A00 X   4      70.721  99.500  69.0170  0.00  0.00     0.000 O
ATOM     74   O  A00 X   4      71.381  99.050  71.2900  0.00  0.00     0.000 OA
ATOM     75   S  A00 X   4      70.295  99.571  70.5250  0.00  0.00     0.000 S
ENDBRANCH 62 70
ENDBRANCH 57 61
ENDBRANCH 41 57
ENDBRANCH 40 44
ENDBRANCH 20 40
ENDBRANCH 19 23
ENDBRANCH 1 19
TORSDOF 14
ENDMDL
MODEL 80
REMARK VINA RESULT:      -0.3     83.800     88.411
ROOT
ATOM      1  C1  A00 X   1      76.566  66.521  32.8170  0.00  0.00     0.000 C
ATOM      2  C2  A00 X   1      77.267  67.753  33.4490  0.00  0.00     0.000 C
ATOM      3  C3  A00 X   1      78.831  67.748  33.4090  0.00  0.00     0.000 C
ATOM      4  C4  A00 X   1      79.488  66.381  33.0890  0.00  0.00     0.000 C
ATOM      5  C5  A00 X   1      78.561  65.207  33.4030  0.00  0.00     0.000 C
ATOM      6  O5  A00 X   1      77.426  65.391  32.5260  0.00  0.00     0.000 O
ATOM      7   O  A00 X   1      79.322  68.143  34.6880  0.00  0.00     0.000 O
ATOM      9  HD  A00 X   1      79.820  67.490  34.4140  0.00  0.00     0.000 HD
ATOM      9   O  A00 X   1      79.910  66.312  31.7270  0.00  0.00     0.000 O
ATOM     11  HD  A00 X   1      80.407  65.658  31.4530  0.00  0.00     0.000 HD
ENDROOT
BRANCH 2 11
ATOM     11   O  A00 X   1      76.784  68.928  32.7720  0.00  0.00     0.000 O
ATOM     12   O  A00 X   1      77.392  71.142  33.4780  0.00  0.00     0.000 OA
ATOM     13   O  A00 X   1      76.087  69.732  34.9700  0.00  0.00     0.000 OA
ATOM     14   O  A00 X   1      75.131  70.567  32.9580  0.00  0.00     0.000 OA
ATOM     15   S  A00 X   1      76.341  70.167  33.6240  0.00  0.00     0.000 S
ENDBRANCH 2 11
BRANCH 5 16
ATOM     16   C  A00 X   1      78.178  65.061  34.8790  0.00  0.00     0.000 C
ATOM     17   O  A00 X   1      78.844  65.640  35.7120  0.00  0.00     0.000 OA
ATOM     18   O  A00 X   1      77.230  64.394  35.2430  0.00  0.00     0.000 OA
ENDBRANCH 5 16
BRANCH 1 19
ATOM     19  O4  A00 X   2      75.385  66.111  33.5480  0.00  0.00     0.000 O
BRANCH 19 23
ATOM     20  C1  A00 X   2      73.206  65.032  30.0190  0.00  0.00     0.000 C
ATOM     21  C2  A00 X   2      72.914  66.418  30.6440  0.00  0.00     0.000 C
ATOM     22  C3  A00 X   2      74.043  66.835  31.6090  0.00  0.00     0.000 C
ATOM     23  C4  A00 X   2      74.285  65.738  32.6700  0.00  0.00     0.000 C
ATOM     24  C5  A00 X   2      74.546  64.403  31.9200  0.00  0.00     0.000 C
ATOM     25  O5  A00 X   2      73.385  64.088  31.1080  0.00  0.00     0.000 O
ATOM     26   O  A00 X   2      73.760  68.154  32.1080  0.00  0.00     0.000 O
ATOM     28  HD  A00 X   2      72.949  67.949  32.3340  0.00  0.00     0.000 HD
BRANCH 21 30
ATOM     28   N  A00 X   2      71.524  66.264  30.2010  0.00  0.00     0.000 N
ATOM     30  HD  A00 X   2      71.629  67.098  30.4120  0.00  0.00     0.000 HD
ATOM     30   O  A00 X   2      70.663  68.390  29.7570  0.00  0.00     0.000 OA
ATOM     31   S  A00 X   2      70.455  67.328  30.6750  0.00  0.00     0.000 S
ATOM     32   O  A00 X   2      69.208  66.641  30.5320  0.00  0.00     0.000 OA
ATOM     33   O  A00 X   2      70.716  67.603  32.0570  0.00  0.00     0.000 OA
ENDBRANCH 21 30
BRANCH 24 34
ATOM     34   C  A00 X   2      75.043  63.193  32.7460  0.00  0.00     0.000 C
ATOM     35   O  A00 X   2      73.234  61.763  35.5640  0.00  0.00     0.000 OA
ATOM     36   O  A00 X   2      74.322  63.076  33.9880  0.00  0.00     0.000 O
ATOM     37   O  A00 X   2      72.316  62.026  33.4000  0.00  0.00     0.000 OA
ATOM     38   S  A00 X   2      73.495  61.749  34.1620  0.00  0.00     0.000 S
ATOM     39   O  A00 X   2      74.340  60.684  33.7130  0.00  0.00     0.000 OA
ENDBRANCH 24 34
BRANCH 20 40
ATOM     40  O4  A00 X   3      74.442  65.182  29.3050  0.00  0.00     0.000 O
BRANCH 40 44
ATOM     41  C1  A00 X   3      77.692  63.802  28.4940  0.00  0.00     0.000 C
ATOM     42  C2  A00 X   3      77.165  65.165  27.9960  0.00  0.00     0.000 C
ATOM     43  C3  A00 X   3      75.756  65.020  27.3650  0.00  0.00     0.000 C
ATOM     44  C4  A00 X   3      74.750  64.270  28.2290  0.00  0.00     0.000 C
ATOM     45  C5  A00 X   3      75.349  62.910  28.6850  0.00  0.00     0.000 C
ATOM     46  O5  A00 X   3      76.681  63.094  29.2640  0.00  0.00     0.000 O
ATOM     47   O  A00 X   3      75.205  66.203  26.7910  0.00  0.00     0.000 O
ATOM     49  HD  A00 X   3      74.474  65.897  27.1390  0.00  0.00     0.000 HD
BRANCH 42 49
ATOM     49   O  A00 X   3      77.144  66.053  29.1360  0.00  0.00     0.000 O
ATOM     50   O  A00 X   3      76.487  68.316  29.5580  0.00  0.00     0.000 OA
ATOM     51   O  A00 X   3      77.657  67.820  27.5640  0.00  0.00     0.000 OA
ATOM     52   O  A00 X   3      78.807  67.637  29.6200  0.00  0.00     0.000 OA
ATOM     53   S  A00 X   3      77.543  67.548  28.9750  0.00  0.00     0.000 S
ENDBRANCH 42 49
BRANCH 45 54
ATOM     54   C  A00 X   3      75.319  61.870  27.5590  0.00  0.00     0.000 C
ATOM     55   O  A00 X   3      74.981  62.184  26.4360  0.00  0.00     0.000 OA
ATOM     56   O  A00 X   3      75.633  60.709  27.7710  0.00  0.00     0.000 OA
ENDBRANCH 45 54
BRANCH 41 57
ATOM     57  O4  A00 X   4      78.261  63.024  27.4170  0.00  0.00     0.000 O
BRANCH 57 61
ATOM     58  C1  A00 X   4      81.533  60.213  27.2360  0.00  0.00     0.000 C
ATOM     59  C2  A00 X   4      80.328  59.890  28.1550  0.00  0.00     0.000 C
ATOM     60  C3  A00 X   4      79.087  60.761  27.8700  0.00  0.00     0.000 C
ATOM     61  C4  A00 X   4      79.448  62.258  27.7680  0.00  0.00     0.000 C
ATOM     62  C5  A00 X   4      80.512  62.375  26.6490  0.00  0.00     0.000 C
ATOM     63  O5  A00 X   4      81.698  61.636  27.0390  0.00  0.00     0.000 O
BRANCH 59 66
ATOM     64   N  A00 X   4      80.677  60.153  29.5630  0.00  0.00     0.000 N
ATOM     66  HD  A00 X   4      81.278  60.757  29.7200  0.00  0.00     0.000 HD
ATOM     66   O  A00 X   4      81.737  57.991  29.5990  0.00  0.00     0.000 OA
ATOM     67   S  A00 X   4      81.096  58.913  30.4830  0.00  0.00     0.000 S
ATOM     68   O  A00 X   4      81.960  59.569  31.4220  0.00  0.00     0.000 OA
ATOM     69   O  A00 X   4      79.814  58.550  31.0170  0.00  0.00     0.000 OA
ENDBRANCH 59 66
BRANCH 62 70
ATOM     70   C  A00 X   4      80.925  63.829  26.3190  0.00  0.00     0.000 C
ATOM     71   O  A00 X   4      82.837  66.150  28.3360  0.00  0.00     0.000 OA
ATOM     72   O  A00 X   4      80.793  66.427  27.2000  0.00  0.00     0.000 OA
ATOM     73   O  A00 X   4      81.880  64.284  27.2910  0.00  0.00     0.000 O
ATOM     74   O  A00 X   4      80.850  65.165  29.2830  0.00  0.00     0.000 OA
ATOM     75   S  A00 X   4      81.539  65.581  28.1040  0.00  0.00     0.000 S
ENDBRANCH 62 70
ENDBRANCH 57 61
ENDBRANCH 41 57
ENDBRANCH 40 44
ENDBRANCH 20 40
ENDBRANCH 19 23
ENDBRANCH 1 19
TORSDOF 14
ENDMDL
MODEL 81
REMARK VINA RESULT:      -0.3    112.027    115.848
ROOT
ATOM      1  C1  A00 X   1      61.908 104.549  70.8100  0.00  0.00     0.000 C
ATOM      2  C2  A00 X   1      61.630 104.086  72.2650  0.00  0.00     0.000 C
ATOM      3  C3  A00 X   1      60.503 104.857  73.0280  0.00  0.00     0.000 C
ATOM      4  C4  A00 X   1      60.065 106.202  72.3920  0.00  0.00     0.000 C
ATOM      5  C5  A00 X   1      61.144 106.788  71.4810  0.00  0.00     0.000 C
ATOM      6  O5  A00 X   1      61.306 105.811  70.4290  0.00  0.00     0.000 O
ATOM      7   O  A00 X   1      60.967 105.162  74.3410  0.00  0.00     0.000 O
ATOM      9  HD  A00 X   1      60.545 105.861  74.0510  0.00  0.00     0.000 HD
ATOM      9   O  A00 X   1      58.844 106.062  71.6670  0.00  0.00     0.000 O
ATOM     11  HD  A00 X   1      58.423 106.761  71.3760  0.00  0.00     0.000 HD
ENDROOT
BRANCH 2 11
ATOM     11   O  A00 X   1      61.293 102.685  72.2220  0.00  0.00     0.000 O
ATOM     12   O  A00 X   1      60.956 101.398  74.2210  0.00  0.00     0.000 OA
ATOM     13   O  A00 X   1      63.152 102.339  73.7680  0.00  0.00     0.000 OA
ATOM     14   O  A00 X   1      62.291 100.583  72.4140  0.00  0.00     0.000 OA
ATOM     15   S  A00 X   1      61.970 101.711  73.2460  0.00  0.00     0.000 S
ENDBRANCH 2 11
BRANCH 5 16
ATOM     16   C  A00 X   1      62.455 107.156  72.1830  0.00  0.00     0.000 C
ATOM     17   O  A00 X   1      62.456 107.266  73.3920  0.00  0.00     0.000 OA
ATOM     18   O  A00 X   1      63.491 107.335  71.5750  0.00  0.00     0.000 OA
ENDBRANCH 5 16
BRANCH 1 19
ATOM     19  O4  A00 X   2      63.316 104.511  70.4690  0.00  0.00     0.000 O
BRANCH 19 23
ATOM     20  C1  A00 X   2      62.613 103.259  66.4310  0.00  0.00     0.000 C
ATOM     21  C2  A00 X   2      62.996 102.169  67.4610  0.00  0.00     0.000 C
ATOM     22  C3  A00 X   2      62.791 102.679  68.9030  0.00  0.00     0.000 C
ATOM     23  C4  A00 X   2      63.551 104.006  69.1240  0.00  0.00     0.000 C
ATOM     24  C5  A00 X   2      63.095 105.003  68.0230  0.00  0.00     0.000 C
ATOM     25  O5  A00 X   2      63.409 104.439  66.7230  0.00  0.00     0.000 O
ATOM     26   O  A00 X   2      63.093 101.611  69.8170  0.00  0.00     0.000 O
ATOM     28  HD  A00 X   2      63.855 101.439  69.4430  0.00  0.00     0.000 HD
BRANCH 21 30
ATOM     28   N  A00 X   2      63.723 101.471  66.3960  0.00  0.00     0.000 N
ATOM     30  HD  A00 X   2      63.620 100.904  67.0430  0.00  0.00     0.000 HD
ATOM     30   O  A00 X   2      63.607  99.176  66.8200  0.00  0.00     0.000 OA
ATOM     31   S  A00 X   2      64.587 100.202  66.7740  0.00  0.00     0.000 S
ATOM     32   O  A00 X   2      65.521 100.096  65.6960  0.00  0.00     0.000 OA
ATOM     33   O  A00 X   2      65.270 100.504  67.9960  0.00  0.00     0.000 OA
ENDBRANCH 21 30
BRANCH 24 34
ATOM     34   C  A00 X   2      63.535 106.480  68.1550  0.00  0.00     0.000 C
ATOM     35   O  A00 X   2      67.005 107.570  68.3270  0.00  0.00     0.000 OA
ATOM     36   O  A00 X   2      64.917 106.581  68.5530  0.00  0.00     0.000 O
ATOM     37   O  A00 X   2      66.117 106.257  66.5710  0.00  0.00     0.000 OA
ATOM     38   S  A00 X   2      65.861 107.298  67.5190  0.00  0.00     0.000 S
ATOM     39   O  A00 X   2      65.154 108.455  67.0600  0.00  0.00     0.000 OA
ENDBRANCH 24 34
BRANCH 20 40
ATOM     40  O4  A00 X   3      61.227 103.545  66.6660  0.00  0.00     0.000 O
BRANCH 40 44
ATOM     41  C1  A00 X   3      58.641 106.059  67.0070  0.00  0.00     0.000 C
ATOM     42  C2  A00 X   3      58.418 104.540  67.1690  0.00  0.00     0.000 C
ATOM     43  C3  A00 X   3      58.997 103.761  65.9600  0.00  0.00     0.000 C
ATOM     44  C4  A00 X   3      60.435 104.120  65.6050  0.00  0.00     0.000 C
ATOM     45  C5  A00 X   3      60.577 105.661  65.4540  0.00  0.00     0.000 C
ATOM     46  O5  A00 X   3      60.009 106.354  66.6120  0.00  0.00     0.000 O
ATOM     47   O  A00 X   3      58.772 102.353  65.9600  0.00  0.00     0.000 O
ATOM     49  HD  A00 X   3      59.580 102.337  65.6490  0.00  0.00     0.000 HD
BRANCH 42 49
ATOM     49   O  A00 X   3      59.057 104.148  68.4040  0.00  0.00     0.000 O
ATOM     50   O  A00 X   3      59.420 102.103  69.5940  0.00  0.00     0.000 OA
ATOM     51   O  A00 X   3      57.315 102.478  68.5860  0.00  0.00     0.000 OA
ATOM     52   O  A00 X   3      57.932 103.812  70.4370  0.00  0.00     0.000 OA
ATOM     53   S  A00 X   3      58.406 103.071  69.3190  0.00  0.00     0.000 S
ENDBRANCH 42 49
BRANCH 45 54
ATOM     54   C  A00 X   3      60.011 106.155  64.1170  0.00  0.00     0.000 C
ATOM     55   O  A00 X   3      60.190 107.299  63.7550  0.00  0.00     0.000 OA
ATOM     56   O  A00 X   3      59.369 105.407  63.3960  0.00  0.00     0.000 OA
ENDBRANCH 45 54
BRANCH 41 57
ATOM     57  O4  A00 X   4      57.641 106.657  66.1520  0.00  0.00     0.000 O
BRANCH 57 61
ATOM     58  C1  A00 X   4      55.726 110.526  66.1300  0.00  0.00     0.000 C
ATOM     59  C2  A00 X   4      57.261 110.458  65.9400  0.00  0.00     0.000 C
ATOM     60  C3  A00 X   4      57.778 109.043  65.6070  0.00  0.00     0.000 C
ATOM     61  C4  A00 X   4      57.190 107.980  66.5590  0.00  0.00     0.000 C
ATOM     62  C5  A00 X   4      55.650 108.084  66.4310  0.00  0.00     0.000 C
ATOM     63  O5  A00 X   4      55.221 109.396  66.8780  0.00  0.00     0.000 O
BRANCH 59 66
ATOM     64   N  A00 X   4      57.937 110.843  67.1920  0.00  0.00     0.000 N
ATOM     66  HD  A00 X   4      57.514 110.703  67.9340  0.00  0.00     0.000 HD
ATOM     66   O  A00 X   4      57.613 113.139  66.5440  0.00  0.00     0.000 OA
ATOM     67   S  A00 X   4      58.503 112.333  67.3200  0.00  0.00     0.000 S
ATOM     68   O  A00 X   4      58.423 112.519  68.7400  0.00  0.00     0.000 OA
ATOM     69   O  A00 X   4      59.837 112.141  66.8260  0.00  0.00     0.000 OA
ENDBRANCH 59 66
BRANCH 62 70
ATOM     70   C  A00 X   4      54.875 107.013  67.2360  0.00  0.00     0.000 C
ATOM     71   O  A00 X   4      54.535 106.689  70.8250  0.00  0.00     0.000 OA
ATOM     72   O  A00 X   4      55.119 105.099  69.1900  0.00  0.00     0.000 OA
ATOM     73   O  A00 X   4      54.805 107.413  68.6140  0.00  0.00     0.000 O
ATOM     74   O  A00 X   4      56.752 106.771  69.8800  0.00  0.00     0.000 OA
ATOM     75   S  A00 X   4      55.379 106.429  69.6930  0.00  0.00     0.000 S
ENDBRANCH 62 70
ENDBRANCH 57 61
ENDBRANCH 41 57
ENDBRANCH 40 44
ENDBRANCH 20 40
ENDBRANCH 19 23
ENDBRANCH 1 19
TORSDOF 14
ENDMDL
MODEL 82
REMARK VINA RESULT:      -0.3    126.783    131.921
ROOT
ATOM      1  C1  A00 X   1      94.904 101.585   8.6780  0.00  0.00     0.000 C
ATOM      2  C2  A00 X   1      93.779 100.686   9.2550  0.00  0.00     0.000 C
ATOM      3  C3  A00 X   1      92.543 101.433   9.8570  0.00  0.00     0.000 C
ATOM      4  C4  A00 X   1      92.747 102.945  10.1370  0.00  0.00     0.000 C
ATOM      5  C5  A00 X   1      94.223 103.308  10.2950  0.00  0.00     0.000 C
ATOM      6  O5  A00 X   1      94.818 102.992   9.0170  0.00  0.00     0.000 O
ATOM      7   O  A00 X   1      92.207 100.831  11.1050  0.00  0.00     0.000 O
ATOM      9  HD  A00 X   1      92.134 101.688  11.2070  0.00  0.00     0.000 HD
ATOM      9   O  A00 X   1      92.159 103.749   9.1160  0.00  0.00     0.000 O
ATOM     11  HD  A00 X   1      92.085 104.606   9.2180  0.00  0.00     0.000 HD
ENDROOT
BRANCH 2 11
ATOM     11   O  A00 X   1      93.331  99.812   8.2010  0.00  0.00     0.000 O
ATOM     12   O  A00 X   1      91.407  98.398   8.4540  0.00  0.00     0.000 OA
ATOM     13   O  A00 X   1      93.351  98.028   9.8680  0.00  0.00     0.000 OA
ATOM     14   O  A00 X   1      93.455  97.578   7.5350  0.00  0.00     0.000 OA
ATOM     15   S  A00 X   1      92.843  98.369   8.5680  0.00  0.00     0.000 S
ENDBRANCH 2 11
BRANCH 5 16
ATOM     16   C  A00 X   1      94.930 102.644  11.4820  0.00  0.00     0.000 C
ATOM     17   O  A00 X   1      96.141 102.704  11.5440  0.00  0.00     0.000 OA
ATOM     18   O  A00 X   1      94.324 102.069  12.3630  0.00  0.00     0.000 OA
ENDBRANCH 5 16
BRANCH 1 19
ATOM     19  O4  A00 X   2      96.230 101.060   8.9370  0.00  0.00     0.000 O
BRANCH 19 23
ATOM     20  C1  A00 X   2      97.670 101.966   5.0030  0.00  0.00     0.000 C
ATOM     21  C2  A00 X   2      97.268 100.501   5.2970  0.00  0.00     0.000 C
ATOM     22  C3  A00 X   2      96.386 100.415   6.5600  0.00  0.00     0.000 C
ATOM     23  C4  A00 X   2      97.085 101.098   7.7580  0.00  0.00     0.000 C
ATOM     24  C5  A00 X   2      97.451 102.546   7.3320  0.00  0.00     0.000 C
ATOM     25  O5  A00 X   2      98.338 102.485   6.1850  0.00  0.00     0.000 O
ATOM     26   O  A00 X   2      95.984  99.048   6.7510  0.00  0.00     0.000 O
ATOM     28  HD  A00 X   2      96.792  98.747   6.6750  0.00  0.00     0.000 HD
BRANCH 21 30
ATOM     28   N  A00 X   2      98.335 100.081   4.3830  0.00  0.00     0.000 N
ATOM     30  HD  A00 X   2      97.831  99.389   4.5150  0.00  0.00     0.000 HD
ATOM     30   O  A00 X   2      97.691  98.067   3.3900  0.00  0.00     0.000 OA
ATOM     31   S  A00 X   2      98.687  98.543   4.2830  0.00  0.00     0.000 S
ATOM     32   O  A00 X   2     100.019  98.534   3.7630  0.00  0.00     0.000 OA
ATOM     33   O  A00 X   2      98.669  98.017   5.6150  0.00  0.00     0.000 OA
ENDBRANCH 21 30
BRANCH 24 34
ATOM     34   C  A00 X   2      97.955 103.518   8.4250  0.00  0.00     0.000 C
ATOM     35   O  A00 X   2     100.935 102.957  10.4400  0.00  0.00     0.000 OA
ATOM     36   O  A00 X   2      98.924 102.883   9.2830  0.00  0.00     0.000 O
ATOM     37   O  A00 X   2     100.925 102.986   8.0750  0.00  0.00     0.000 OA
ATOM     38   S  A00 X   2     100.357 103.532   9.2700  0.00  0.00     0.000 S
ATOM     39   O  A00 X   2     100.161 104.949   9.3240  0.00  0.00     0.000 OA
ENDBRANCH 24 34
BRANCH 20 40
ATOM     40  O4  A00 X   3      96.438 102.673   4.8000  0.00  0.00     0.000 O
BRANCH 40 44
ATOM     41  C1  A00 X   3      94.473 105.624   5.5420  0.00  0.00     0.000 C
ATOM     42  C2  A00 X   3      93.989 104.440   4.6780  0.00  0.00     0.000 C
ATOM     43  C3  A00 X   3      95.025 104.097   3.5760  0.00  0.00     0.000 C
ATOM     44  C4  A00 X   3      96.452 103.925   4.0800  0.00  0.00     0.000 C
ATOM     45  C5  A00 X   3      96.867 105.156   4.9350  0.00  0.00     0.000 C
ATOM     46  O5  A00 X   3      95.856 105.449   5.9540  0.00  0.00     0.000 O
ATOM     47   O  A00 X   3      94.645 103.071   2.6610  0.00  0.00     0.000 O
ATOM     49  HD  A00 X   3      95.478 102.850   2.7370  0.00  0.00     0.000 HD
BRANCH 42 49
ATOM     49   O  A00 X   3      93.779 103.323   5.5700  0.00  0.00     0.000 O
ATOM     50   O  A00 X   3      92.979 101.075   5.3740  0.00  0.00     0.000 OA
ATOM     51   O  A00 X   3      91.865 102.790   4.1880  0.00  0.00     0.000 OA
ATOM     52   O  A00 X   3      91.716 102.771   6.5470  0.00  0.00     0.000 OA
ATOM     53   S  A00 X   3      92.515 102.426   5.4220  0.00  0.00     0.000 S
ENDBRANCH 42 49
BRANCH 45 54
ATOM     54   C  A00 X   3      97.208 106.367   4.0570  0.00  0.00     0.000 C
ATOM     55   O  A00 X   3      97.062 106.319   2.8530  0.00  0.00     0.000 OA
ATOM     56   O  A00 X   3      97.633 107.398   4.5540  0.00  0.00     0.000 OA
ENDBRANCH 45 54
BRANCH 41 57
ATOM     57  O4  A00 X   4      94.206 106.894   4.9040  0.00  0.00     0.000 O
BRANCH 57 61
ATOM     58  C1  A00 X   4      93.188 110.797   6.4430  0.00  0.00     0.000 C
ATOM     59  C2  A00 X   4      94.540 110.165   6.8590  0.00  0.00     0.000 C
ATOM     60  C3  A00 X   4      94.952 108.964   5.9850  0.00  0.00     0.000 C
ATOM     61  C4  A00 X   4      93.792 107.962   5.8030  0.00  0.00     0.000 C
ATOM     62  C5  A00 X   4      92.620 108.761   5.1810  0.00  0.00     0.000 C
ATOM     63  O5  A00 X   4      92.201 109.794   6.1100  0.00  0.00     0.000 O
BRANCH 59 66
ATOM     64   N  A00 X   4      94.392 109.651   8.2330  0.00  0.00     0.000 N
ATOM     66  HD  A00 X   4      93.597 109.429   8.4940  0.00  0.00     0.000 HD
ATOM     66   O  A00 X   4      94.860 111.882   9.0110  0.00  0.00     0.000 OA
ATOM     67   S  A00 X   4      94.986 110.523   9.4360  0.00  0.00     0.000 S
ATOM     68   O  A00 X   4      94.111 110.126  10.5000  0.00  0.00     0.000 OA
ATOM     69   O  A00 X   4      96.307 109.968   9.5220  0.00  0.00     0.000 OA
ENDBRANCH 59 66
BRANCH 62 70
ATOM     70   C  A00 X   4      91.388 107.897   4.8190  0.00  0.00     0.000 C
ATOM     71   O  A00 X   4      88.919 106.439   7.0290  0.00  0.00     0.000 OA
ATOM     72   O  A00 X   4      90.161 105.482   5.2720  0.00  0.00     0.000 OA
ATOM     73   O  A00 X   4      90.555 107.747   5.9800  0.00  0.00     0.000 O
ATOM     74   O  A00 X   4      91.246 105.933   7.4070  0.00  0.00     0.000 OA
ATOM     75   S  A00 X   4      90.233 106.292   6.4680  0.00  0.00     0.000 S
ENDBRANCH 62 70
ENDBRANCH 57 61
ENDBRANCH 41 57
ENDBRANCH 40 44
ENDBRANCH 20 40
ENDBRANCH 19 23
ENDBRANCH 1 19
TORSDOF 14
ENDMDL
MODEL 83
REMARK VINA RESULT:      -0.3     97.266    101.779
ROOT
ATOM      1  C1  A00 X   1     101.876  46.823  65.4040  0.00  0.00     0.000 C
ATOM      2  C2  A00 X   1     102.872  46.139  64.4290  0.00  0.00     0.000 C
ATOM      3  C3  A00 X   1     102.240  45.217  63.3350  0.00  0.00     0.000 C
ATOM      4  C4  A00 X   1     100.764  44.809  63.5760  0.00  0.00     0.000 C
ATOM      5  C5  A00 X   1     100.370  44.911  65.0500  0.00  0.00     0.000 C
ATOM      6  O5  A00 X   1     100.521  46.311  65.3740  0.00  0.00     0.000 O
ATOM      7   O  A00 X   1     102.989  44.006  63.2670  0.00  0.00     0.000 O
ATOM      9  HD  A00 X   1     102.152  43.792  63.2080  0.00  0.00     0.000 HD
ATOM      9   O  A00 X   1      99.869  45.589  62.7830  0.00  0.00     0.000 O
ATOM     11  HD  A00 X   1      99.032  45.375  62.7240  0.00  0.00     0.000 HD
ENDROOT
BRANCH 2 11
ATOM     11   O  A00 X   1     103.636  47.176  63.7840  0.00  0.00     0.000 O
ATOM     12   O  A00 X   1     105.151  46.704  61.9810  0.00  0.00     0.000 OA
ATOM     13   O  A00 X   1     105.599  45.779  64.1860  0.00  0.00     0.000 OA
ATOM     14   O  A00 X   1     105.772  48.121  63.8030  0.00  0.00     0.000 OA
ATOM     15   S  A00 X   1     105.132  46.894  63.4090  0.00  0.00     0.000 S
ENDBRANCH 2 11
BRANCH 5 16
ATOM     16   C  A00 X   1     101.139  43.978  65.9920  0.00  0.00     0.000 C
ATOM     17   O  A00 X   1     101.037  44.149  67.1890  0.00  0.00     0.000 OA
ATOM     18   O  A00 X   1     101.838  43.072  65.5840  0.00  0.00     0.000 OA
ENDBRANCH 5 16
BRANCH 1 19
ATOM     19  O4  A00 X   2     102.382  46.900  66.7590  0.00  0.00     0.000 O
BRANCH 19 23
ATOM     20  C1  A00 X   2     100.794  50.819  67.4550  0.00  0.00     0.000 C
ATOM     21  C2  A00 X   2     102.282  50.714  67.0430  0.00  0.00     0.000 C
ATOM     22  C3  A00 X   2     102.583  49.336  66.4190  0.00  0.00     0.000 C
ATOM     23  C4  A00 X   2     102.143  48.200  67.3700  0.00  0.00     0.000 C
ATOM     24  C5  A00 X   2     100.647  48.429  67.7220  0.00  0.00     0.000 C
ATOM     25  O5  A00 X   2     100.511  49.723  68.3650  0.00  0.00     0.000 O
ATOM     26   O  A00 X   2     103.956  49.313  65.9910  0.00  0.00     0.000 O
ATOM     28  HD  A00 X   2     104.250  49.601  66.7530  0.00  0.00     0.000 HD
BRANCH 21 30
ATOM     28   N  A00 X   2     102.560  51.868  67.9030  0.00  0.00     0.000 N
ATOM     30  HD  A00 X   2     103.247  51.770  67.3850  0.00  0.00     0.000 HD
ATOM     30   O  A00 X   2     104.332  53.067  66.9620  0.00  0.00     0.000 OA
ATOM     31   S  A00 X   2     104.064  52.301  68.1280  0.00  0.00     0.000 S
ATOM     32   O  A00 X   2     104.022  53.051  69.3450  0.00  0.00     0.000 OA
ATOM     33   O  A00 X   2     104.828  51.103  68.3070  0.00  0.00     0.000 OA
ENDBRANCH 21 30
BRANCH 24 34
ATOM     34   C  A00 X   2      99.899  47.305  68.4770  0.00  0.00     0.000 C
ATOM     35   O  A00 X   2      98.519  47.665  71.8270  0.00  0.00     0.000 OA
ATOM     36   O  A00 X   2      99.785  47.606  69.8820  0.00  0.00     0.000 O
ATOM     37   O  A00 X   2      97.979  49.086  70.0150  0.00  0.00     0.000 OA
ATOM     38   S  A00 X   2      98.314  47.755  70.4190  0.00  0.00     0.000 S
ATOM     39   O  A00 X   2      97.563  46.679  69.8450  0.00  0.00     0.000 OA
ENDBRANCH 24 34
BRANCH 20 40
ATOM     40  O4  A00 X   3     100.042  50.645  66.2450  0.00  0.00     0.000 O
BRANCH 40 44
ATOM     41  C1  A00 X   3      97.223  49.062  64.6110  0.00  0.00     0.000 C
ATOM     42  C2  A00 X   3      98.244  49.983  63.9090  0.00  0.00     0.000 C
ATOM     43  C3  A00 X   3      98.418  51.314  64.6850  0.00  0.00     0.000 C
ATOM     44  C4  A00 X   3      98.690  51.147  66.1750  0.00  0.00     0.000 C
ATOM     45  C5  A00 X   3      97.621  50.214  66.8100  0.00  0.00     0.000 C
ATOM     46  O5  A00 X   3      97.483  48.976  66.0400  0.00  0.00     0.000 O
ATOM     47   O  A00 X   3      99.275  52.280  64.0800  0.00  0.00     0.000 O
ATOM     49  HD  A00 X   3      99.518  52.412  64.9010  0.00  0.00     0.000 HD
BRANCH 42 49
ATOM     49   O  A00 X   3      99.487  49.252  63.8280  0.00  0.00     0.000 O
ATOM     50   O  A00 X   3     101.710  49.694  63.0560  0.00  0.00     0.000 OA
ATOM     51   O  A00 X   3      99.882  50.470  61.7740  0.00  0.00     0.000 OA
ATOM     52   O  A00 X   3     100.256  48.140  61.9080  0.00  0.00     0.000 OA
ATOM     53   S  A00 X   3     100.400  49.388  62.5740  0.00  0.00     0.000 S
ENDBRANCH 42 49
BRANCH 45 54
ATOM     54   C  A00 X   3      96.289  50.942  67.0250  0.00  0.00     0.000 C
ATOM     55   O  A00 X   3      96.027  51.951  66.4020  0.00  0.00     0.000 OA
ATOM     56   O  A00 X   3      95.469  50.523  67.8280  0.00  0.00     0.000 OA
ENDBRANCH 45 54
BRANCH 41 57
ATOM     57  O4  A00 X   4      95.863  49.425  64.2830  0.00  0.00     0.000 O
BRANCH 57 61
ATOM     58  C1  A00 X   4      92.152  47.221  64.2080  0.00  0.00     0.000 C
ATOM     59  C2  A00 X   4      92.702  47.699  65.5750  0.00  0.00     0.000 C
ATOM     60  C3  A00 X   4      93.812  48.763  65.4520  0.00  0.00     0.000 C
ATOM     61  C4  A00 X   4      94.887  48.354  64.4220  0.00  0.00     0.000 C
ATOM     62  C5  A00 X   4      94.143  48.129  63.0820  0.00  0.00     0.000 C
ATOM     63  O5  A00 X   4      93.204  47.034  63.2350  0.00  0.00     0.000 O
BRANCH 59 66
ATOM     64   N  A00 X   4      93.320  46.590  66.3240  0.00  0.00     0.000 N
ATOM     66  HD  A00 X   4      93.666  45.941  65.8660  0.00  0.00     0.000 HD
ATOM     66   O  A00 X   4      91.102  45.950  67.0100  0.00  0.00     0.000 OA
ATOM     67   S  A00 X   4      92.456  45.870  67.4620  0.00  0.00     0.000 S
ATOM     68   O  A00 X   4      93.038  44.560  67.4390  0.00  0.00     0.000 OA
ATOM     69   O  A00 X   4      92.830  46.660  68.6010  0.00  0.00     0.000 OA
ENDBRANCH 59 66
BRANCH 62 70
ATOM     70   C  A00 X   4      95.074  47.816  61.8860  0.00  0.00     0.000 C
ATOM     71   O  A00 X   4      96.447  44.625  60.8660  0.00  0.00     0.000 OA
ATOM     72   O  A00 X   4      97.489  46.712  61.1860  0.00  0.00     0.000 OA
ATOM     73   O  A00 X   4      95.165  46.392  61.7160  0.00  0.00     0.000 O
ATOM     74   O  A00 X   4      96.841  45.380  63.1210  0.00  0.00     0.000 OA
ATOM     75   S  A00 X   4      96.589  45.737  61.7620  0.00  0.00     0.000 S
ENDBRANCH 62 70
ENDBRANCH 57 61
ENDBRANCH 41 57
ENDBRANCH 40 44
ENDBRANCH 20 40
ENDBRANCH 19 23
ENDBRANCH 1 19
TORSDOF 14
ENDMDL
MODEL 84
REMARK VINA RESULT:      -0.3    106.868    111.069
ROOT
ATOM      1  C1  A00 X   1     102.002  56.957  72.2450  0.00  0.00     0.000 C
ATOM      2  C2  A00 X   1     102.823  55.739  72.7450  0.00  0.00     0.000 C
ATOM      3  C3  A00 X   1     103.854  55.142  71.7320  0.00  0.00     0.000 C
ATOM      4  C4  A00 X   1     103.677  55.587  70.2570  0.00  0.00     0.000 C
ATOM      5  C5  A00 X   1     102.255  56.068  69.9660  0.00  0.00     0.000 C
ATOM      6  O5  A00 X   1     102.075  57.219  70.8210  0.00  0.00     0.000 O
ATOM      7   O  A00 X   1     103.735  53.721  71.7420  0.00  0.00     0.000 O
ATOM      9  HD  A00 X   1     103.832  53.963  70.9160  0.00  0.00     0.000 HD
ATOM      9   O  A00 X   1     104.612  56.606  69.9040  0.00  0.00     0.000 O
ATOM     11  HD  A00 X   1     104.709  56.848  69.0780  0.00  0.00     0.000 HD
ENDROOT
BRANCH 2 11
ATOM     11   O  A00 X   1     103.519  56.140  73.9410  0.00  0.00     0.000 O
ATOM     12   O  A00 X   1     105.144  54.724  75.0010  0.00  0.00     0.000 OA
ATOM     13   O  A00 X   1     102.824  53.999  74.8900  0.00  0.00     0.000 OA
ATOM     14   O  A00 X   1     103.446  55.844  76.2560  0.00  0.00     0.000 OA
ATOM     15   S  A00 X   1     103.750  55.083  75.0750  0.00  0.00     0.000 S
ENDBRANCH 2 11
BRANCH 5 16
ATOM     16   C  A00 X   1     101.165  55.004  70.1320  0.00  0.00     0.000 C
ATOM     17   O  A00 X   1     100.004  55.356  70.1260  0.00  0.00     0.000 OA
ATOM     18   O  A00 X   1     101.421  53.824  70.2620  0.00  0.00     0.000 OA
ENDBRANCH 5 16
BRANCH 1 19
ATOM     19  O4  A00 X   2     100.630  56.939  72.7100  0.00  0.00     0.000 O
BRANCH 19 23
ATOM     20  C1  A00 X   2     100.473  61.170  73.3720  0.00  0.00     0.000 C
ATOM     21  C2  A00 X   2     100.762  60.266  74.5940  0.00  0.00     0.000 C
ATOM     22  C3  A00 X   2     101.212  58.860  74.1440  0.00  0.00     0.000 C
ATOM     23  C4  A00 X   2     100.180  58.244  73.1730  0.00  0.00     0.000 C
ATOM     24  C5  A00 X   2      99.965  59.250  72.0080  0.00  0.00     0.000 C
ATOM     25  O5  A00 X   2      99.475  60.501  72.5550  0.00  0.00     0.000 O
ATOM     26   O  A00 X   2     101.534  58.083  75.3100  0.00  0.00     0.000 O
ATOM     28  HD  A00 X   2     100.787  58.275  75.7050  0.00  0.00     0.000 HD
BRANCH 21 30
ATOM     28   N  A00 X   2     100.019  61.222  75.4200  0.00  0.00     0.000 N
ATOM     30  HD  A00 X   2     100.465  60.717  75.9630  0.00  0.00     0.000 HD
ATOM     30   O  A00 X   2     100.943  61.204  77.5660  0.00  0.00     0.000 OA
ATOM     31   S  A00 X   2      99.723  60.853  76.9280  0.00  0.00     0.000 S
ATOM     32   O  A00 X   2      98.606  61.679  77.2670  0.00  0.00     0.000 OA
ATOM     33   O  A00 X   2      99.348  59.471  76.9600  0.00  0.00     0.000 OA
ENDBRANCH 21 30
BRANCH 24 34
ATOM     34   C  A00 X   2      99.151  58.775  70.7810  0.00  0.00     0.000 C
ATOM     35   O  A00 X   2      95.973  60.226  69.7560  0.00  0.00     0.000 OA
ATOM     36   O  A00 X   2      97.800  59.274  70.8260  0.00  0.00     0.000 O
ATOM     37   O  A00 X   2      97.963  61.471  70.0410  0.00  0.00     0.000 OA
ATOM     38   S  A00 X   2      97.394  60.222  69.6380  0.00  0.00     0.000 S
ATOM     39   O  A00 X   2      97.903  59.615  68.4450  0.00  0.00     0.000 OA
ENDBRANCH 24 34
BRANCH 20 40
ATOM     40  O4  A00 X   3     101.710  61.251  72.6480  0.00  0.00     0.000 O
BRANCH 40 44
ATOM     41  C1  A00 X   3     103.360  61.137  69.4250  0.00  0.00     0.000 C
ATOM     42  C2  A00 X   3     104.084  61.304  70.7790  0.00  0.00     0.000 C
ATOM     43  C3  A00 X   3     103.446  62.446  71.6120  0.00  0.00     0.000 C
ATOM     44  C4  A00 X   3     101.932  62.360  71.7500  0.00  0.00     0.000 C
ATOM     45  C5  A00 X   3     101.277  62.199  70.3490  0.00  0.00     0.000 C
ATOM     46  O5  A00 X   3     101.916  61.118  69.5950  0.00  0.00     0.000 O
ATOM     47   O  A00 X   3     104.089  62.749  72.8480  0.00  0.00     0.000 O
ATOM     49  HD  A00 X   3     103.273  62.844  73.1200  0.00  0.00     0.000 HD
BRANCH 42 49
ATOM     49   O  A00 X   3     103.994  60.037  71.4660  0.00  0.00     0.000 O
ATOM     50   O  A00 X   3     104.635  59.177  73.6060  0.00  0.00     0.000 OA
ATOM     51   O  A00 X   3     106.126  60.609  72.4580  0.00  0.00     0.000 OA
ATOM     52   O  A00 X   3     105.726  58.455  71.5720  0.00  0.00     0.000 OA
ATOM     53   S  A00 X   3     105.182  59.526  72.3320  0.00  0.00     0.000 S
ENDBRANCH 42 49
BRANCH 45 54
ATOM     54   C  A00 X   3     101.239  63.527  69.5840  0.00  0.00     0.000 C
ATOM     55   O  A00 X   3     100.476  63.683  68.6530  0.00  0.00     0.000 OA
ATOM     56   O  A00 X   3     101.975  64.450  69.8970  0.00  0.00     0.000 OA
ENDBRANCH 45 54
BRANCH 41 57
ATOM     57  O4  A00 X   4     103.823  62.099  68.4500  0.00  0.00     0.000 O
BRANCH 57 61
ATOM     58  C1  A00 X   4     103.952  62.106  64.1350  0.00  0.00     0.000 C
ATOM     59  C2  A00 X   4     102.602  62.394  64.8360  0.00  0.00     0.000 C
ATOM     60  C3  A00 X   4     102.746  62.719  66.3370  0.00  0.00     0.000 C
ATOM     61  C4  A00 X   4     103.653  61.701  67.0600  0.00  0.00     0.000 C
ATOM     62  C5  A00 X   4     105.015  61.730  66.3230  0.00  0.00     0.000 C
ATOM     63  O5  A00 X   4     104.826  61.294  64.9530  0.00  0.00     0.000 O
BRANCH 59 66
ATOM     64   N  A00 X   4     101.832  61.142  64.7230  0.00  0.00     0.000 N
ATOM     66  HD  A00 X   4     102.278  60.406  64.6300  0.00  0.00     0.000 HD
ATOM     66   O  A00 X   4     101.124  61.892  62.5470  0.00  0.00     0.000 OA
ATOM     67   S  A00 X   4     100.676  61.061  63.6200  0.00  0.00     0.000 S
ATOM     68   O  A00 X   4     100.674  59.653  63.3510  0.00  0.00     0.000 OA
ATOM     69   O  A00 X   4      99.555  61.514  64.3950  0.00  0.00     0.000 OA
ENDBRANCH 59 66
BRANCH 62 70
ATOM     70   C  A00 X   4     106.105  60.845  66.9740  0.00  0.00     0.000 C
ATOM     71   O  A00 X   4     106.707  57.303  66.5300  0.00  0.00     0.000 OA
ATOM     72   O  A00 X   4     106.521  58.594  68.4910  0.00  0.00     0.000 OA
ATOM     73   O  A00 X   4     106.127  59.564  66.3250  0.00  0.00     0.000 O
ATOM     74   O  A00 X   4     104.515  58.020  67.2330  0.00  0.00     0.000 OA
ATOM     75   S  A00 X   4     105.917  58.288  67.2130  0.00  0.00     0.000 S
ENDBRANCH 62 70
ENDBRANCH 57 61
ENDBRANCH 41 57
ENDBRANCH 40 44
ENDBRANCH 20 40
ENDBRANCH 19 23
ENDBRANCH 1 19
TORSDOF 14
ENDMDL
MODEL 85
REMARK VINA RESULT:      -0.3    125.477    129.301
ROOT
ATOM      1  C1  A00 X   1      74.066 107.115  89.5420  0.00  0.00     0.000 C
ATOM      2  C2  A00 X   1      73.661 107.898  90.8190  0.00  0.00     0.000 C
ATOM      3  C3  A00 X   1      73.537 109.450  90.6630  0.00  0.00     0.000 C
ATOM      4  C4  A00 X   1      74.179 110.046  89.3850  0.00  0.00     0.000 C
ATOM      5  C5  A00 X   1      75.258 109.134  88.8010  0.00  0.00     0.000 C
ATOM      6  O5  A00 X   1      74.558 107.921  88.4430  0.00  0.00     0.000 O
ATOM      7   O  A00 X   1      74.184 110.074  91.7700  0.00  0.00     0.000 O
ATOM      9  HD  A00 X   1      74.390 110.530  91.0640  0.00  0.00     0.000 HD
ATOM      9   O  A00 X   1      73.195 110.328  88.3900  0.00  0.00     0.000 O
ATOM     11  HD  A00 X   1      73.402 110.784  87.6830  0.00  0.00     0.000 HD
ENDROOT
BRANCH 2 11
ATOM     11   O  A00 X   1      72.400 107.370  91.2750  0.00  0.00     0.000 O
ATOM     12   O  A00 X   1      71.170 108.390  93.0690  0.00  0.00     0.000 OA
ATOM     13   O  A00 X   1      73.356 107.423  93.5230  0.00  0.00     0.000 OA
ATOM     14   O  A00 X   1      71.512 106.026  92.9660  0.00  0.00     0.000 OA
ATOM     15   S  A00 X   1      72.109 107.326  92.8150  0.00  0.00     0.000 S
ENDBRANCH 2 11
BRANCH 5 16
ATOM     16   C  A00 X   1      76.469 108.899  89.7100  0.00  0.00     0.000 C
ATOM     17   O  A00 X   1      77.258 108.027  89.4120  0.00  0.00     0.000 OA
ATOM     18   O  A00 X   1      76.669 109.556  90.7120  0.00  0.00     0.000 OA
ENDBRANCH 5 16
BRANCH 1 19
ATOM     19  O4  A00 X   2      74.955 106.006  89.8230  0.00  0.00     0.000 O
BRANCH 19 23
ATOM     20  C1  A00 X   2      73.109 103.401  86.9640  0.00  0.00     0.000 C
ATOM     21  C2  A00 X   2      72.673 103.262  88.4430  0.00  0.00     0.000 C
ATOM     22  C3  A00 X   2      73.076 104.511  89.2540  0.00  0.00     0.000 C
ATOM     23  C4  A00 X   2      74.587 104.797  89.0980  0.00  0.00     0.000 C
ATOM     24  C5  A00 X   2      74.897 104.895  87.5790  0.00  0.00     0.000 C
ATOM     25  O5  A00 X   2      74.542 103.637  86.9480  0.00  0.00     0.000 O
ATOM     26   O  A00 X   2      72.590 104.364  90.5990  0.00  0.00     0.000 O
ATOM     28  HD  A00 X   2      72.928 103.571  90.6880  0.00  0.00     0.000 HD
BRANCH 21 30
ATOM     28   N  A00 X   2      72.520 101.820  88.2230  0.00  0.00     0.000 N
ATOM     30  HD  A00 X   2      72.106 102.007  88.9610  0.00  0.00     0.000 HD
ATOM     30   O  A00 X   2      70.795 101.054  89.6010  0.00  0.00     0.000 OA
ATOM     31   S  A00 X   2      72.200 100.894  89.4630  0.00  0.00     0.000 S
ATOM     32   O  A00 X   2      72.620  99.596  89.0340  0.00  0.00     0.000 OA
ATOM     33   O  A00 X   2      73.015 101.346  90.5510  0.00  0.00     0.000 OA
ENDBRANCH 21 30
BRANCH 24 34
ATOM     34   C  A00 X   2      76.295 105.403  87.1550  0.00  0.00     0.000 C
ATOM     35   O  A00 X   2      78.727 103.398  85.3320  0.00  0.00     0.000 OA
ATOM     36   O  A00 X   2      77.155 104.310  86.7760  0.00  0.00     0.000 O
ATOM     37   O  A00 X   2      76.521 103.804  84.5820  0.00  0.00     0.000 OA
ATOM     38   S  A00 X   2      77.651 104.332  85.2840  0.00  0.00     0.000 S
ATOM     39   O  A00 X   2      78.033 105.684  85.0050  0.00  0.00     0.000 OA
ENDBRANCH 24 34
BRANCH 20 40
ATOM     40  O4  A00 X   3      72.426 104.560  86.4660  0.00  0.00     0.000 O
BRANCH 40 44
ATOM     41  C1  A00 X   3      72.619 107.623  84.5420  0.00  0.00     0.000 C
ATOM     42  C2  A00 X   3      71.359 107.128  85.2840  0.00  0.00     0.000 C
ATOM     43  C3  A00 X   3      71.041 105.656  84.9170  0.00  0.00     0.000 C
ATOM     44  C4  A00 X   3      72.222 104.702  85.0440  0.00  0.00     0.000 C
ATOM     45  C5  A00 X   3      73.446 105.265  84.2680  0.00  0.00     0.000 C
ATOM     46  O5  A00 X   3      73.703 106.658  84.6380  0.00  0.00     0.000 O
ATOM     47   O  A00 X   3      69.845 105.119  85.4790  0.00  0.00     0.000 O
ATOM     49  HD  A00 X   3      70.336 104.411  85.5620  0.00  0.00     0.000 HD
BRANCH 42 49
ATOM     49   O  A00 X   3      71.616 107.276  86.6980  0.00  0.00     0.000 O
ATOM     50   O  A00 X   3      70.462 106.762  88.7310  0.00  0.00     0.000 OA
ATOM     51   O  A00 X   3      69.238 107.668  86.9230  0.00  0.00     0.000 OA
ATOM     52   O  A00 X   3      70.815 109.045  88.0180  0.00  0.00     0.000 OA
ATOM     53   S  A00 X   3      70.474 107.711  87.6630  0.00  0.00     0.000 S
ENDBRANCH 42 49
BRANCH 45 54
ATOM     54   C  A00 X   3      73.303 105.059  82.7550  0.00  0.00     0.000 C
ATOM     55   O  A00 X   3      72.212 104.878  82.2560  0.00  0.00     0.000 OA
ATOM     56   O  A00 X   3      74.284 105.071  82.0270  0.00  0.00     0.000 OA
ENDBRANCH 45 54
BRANCH 41 57
ATOM     57  O4  A00 X   4      72.316 108.032  83.1890  0.00  0.00     0.000 O
BRANCH 57 61
ATOM     58  C1  A00 X   4      74.202 110.771  80.4360  0.00  0.00     0.000 C
ATOM     59  C2  A00 X   4      74.825 109.366  80.6270  0.00  0.00     0.000 C
ATOM     60  C3  A00 X   4      73.887 108.369  81.3370  0.00  0.00     0.000 C
ATOM     61  C4  A00 X   4      73.254 108.981  82.6050  0.00  0.00     0.000 C
ATOM     62  C5  A00 X   4      72.508 110.259  82.1470  0.00  0.00     0.000 C
ATOM     63  O5  A00 X   4      73.467 111.202  81.6040  0.00  0.00     0.000 O
BRANCH 59 66
ATOM     64   N  A00 X   4      76.026 109.441  81.4780  0.00  0.00     0.000 N
ATOM     66  HD  A00 X   4      76.064 110.080  82.0610  0.00  0.00     0.000 HD
ATOM     66   O  A00 X   4      77.250 110.117  79.5180  0.00  0.00     0.000 OA
ATOM     67   S  A00 X   4      77.459 109.453  80.7660  0.00  0.00     0.000 S
ATOM     68   O  A00 X   4      78.222 110.186  81.7340  0.00  0.00     0.000 OA
ATOM     69   O  A00 X   4      77.740 108.046  80.7390  0.00  0.00     0.000 OA
ENDBRANCH 59 66
BRANCH 62 70
ATOM     70   C  A00 X   4      71.709 110.961  83.2700  0.00  0.00     0.000 C
ATOM     71   O  A00 X   4      72.885 113.337  85.7360  0.00  0.00     0.000 OA
ATOM     72   O  A00 X   4      71.595 111.383  85.9820  0.00  0.00     0.000 OA
ATOM     73   O  A00 X   4      72.515 112.001  83.8470  0.00  0.00     0.000 O
ATOM     74   O  A00 X   4      73.991 111.201  85.5750  0.00  0.00     0.000 OA
ATOM     75   S  A00 X   4      72.788 111.947  85.3900  0.00  0.00     0.000 S
ENDBRANCH 62 70
ENDBRANCH 57 61
ENDBRANCH 41 57
ENDBRANCH 40 44
ENDBRANCH 20 40
ENDBRANCH 19 23
ENDBRANCH 1 19
TORSDOF 14
ENDMDL
MODEL 86
REMARK VINA RESULT:      -0.3     52.790     57.728
ROOT
ATOM      1  C1  A00 X   1      30.374  58.455  23.1610  0.00  0.00     0.000 C
ATOM      2  C2  A00 X   1      29.746  59.797  23.6240  0.00  0.00     0.000 C
ATOM      3  C3  A00 X   1      30.508  61.095  23.1990  0.00  0.00     0.000 C
ATOM      4  C4  A00 X   1      31.960  60.885  22.7010  0.00  0.00     0.000 C
ATOM      5  C5  A00 X   1      32.562  59.576  23.2110  0.00  0.00     0.000 C
ATOM      6  O5  A00 X   1      31.726  58.542  22.6460  0.00  0.00     0.000 O
ATOM      7   O  A00 X   1      30.588  61.967  24.3250  0.00  0.00     0.000 O
ATOM      9  HD  A00 X   1      31.355  61.995  23.9240  0.00  0.00     0.000 HD
ATOM      9   O  A00 X   1      32.034  60.926  21.2760  0.00  0.00     0.000 O
ATOM     11  HD  A00 X   1      32.801  60.955  20.8750  0.00  0.00     0.000 HD
ENDROOT
BRANCH 2 11
ATOM     11   O  A00 X   1      28.401  59.852  23.1090  0.00  0.00     0.000 O
ATOM     12   O  A00 X   1      27.059  61.837  23.2710  0.00  0.00     0.000 OA
ATOM     13   O  A00 X   1      27.748  60.696  25.3060  0.00  0.00     0.000 OA
ATOM     14   O  A00 X   1      26.186  59.683  23.8270  0.00  0.00     0.000 OA
ATOM     15   S  A00 X   1      27.298  60.586  23.9460  0.00  0.00     0.000 S
ENDBRANCH 2 11
BRANCH 5 16
ATOM     16   C  A00 X   1      32.710  59.481  24.7330  0.00  0.00     0.000 C
ATOM     17   O  A00 X   1      32.983  58.405  25.2250  0.00  0.00     0.000 OA
ATOM     18   O  A00 X   1      32.570  60.442  25.4630  0.00  0.00     0.000 OA
ENDBRANCH 5 16
BRANCH 1 19
ATOM     19  O4  A00 X   2      30.253  57.407  24.1530  0.00  0.00     0.000 O
BRANCH 19 23
ATOM     20  C1  A00 X   2      29.399  54.357  21.2660  0.00  0.00     0.000 C
ATOM     21  C2  A00 X   2      28.200  54.986  22.0170  0.00  0.00     0.000 C
ATOM     22  C3  A00 X   2      28.603  56.323  22.6740  0.00  0.00     0.000 C
ATOM     23  C4  A00 X   2      29.844  56.134  23.5750  0.00  0.00     0.000 C
ATOM     24  C5  A00 X   2      30.961  55.484  22.7130  0.00  0.00     0.000 C
ATOM     25  O5  A00 X   2      30.485  54.206  22.2180  0.00  0.00     0.000 O
ATOM     26   O  A00 X   2      27.443  56.898  23.2990  0.00  0.00     0.000 O
ATOM     28  HD  A00 X   2      27.244  56.166  23.7180  0.00  0.00     0.000 HD
BRANCH 21 30
ATOM     28   N  A00 X   2      27.539  53.678  21.9630  0.00  0.00     0.000 N
ATOM     30  HD  A00 X   2      26.931  54.258  22.1720  0.00  0.00     0.000 HD
ATOM     30   O  A00 X   2      25.233  54.033  21.8560  0.00  0.00     0.000 OA
ATOM     31   S  A00 X   2      26.185  53.479  22.7530  0.00  0.00     0.000 S
ATOM     32   O  A00 X   2      26.098  52.062  22.9260  0.00  0.00     0.000 OA
ATOM     33   O  A00 X   2      26.335  54.127  24.0210  0.00  0.00     0.000 OA
ENDBRANCH 21 30
BRANCH 24 34
ATOM     34   C  A00 X   2      32.384  55.398  23.3150  0.00  0.00     0.000 C
ATOM     35   O  A00 X   2      33.177  53.729  26.4520  0.00  0.00     0.000 OA
ATOM     36   O  A00 X   2      32.343  55.004  24.7010  0.00  0.00     0.000 O
ATOM     37   O  A00 X   2      32.081  52.681  24.6370  0.00  0.00     0.000 OA
ATOM     38   S  A00 X   2      33.061  53.645  25.0330  0.00  0.00     0.000 S
ATOM     39   O  A00 X   2      34.304  53.659  24.3210  0.00  0.00     0.000 OA
ENDBRANCH 24 34
BRANCH 20 40
ATOM     40  O4  A00 X   3      29.771  55.313  20.2620  0.00  0.00     0.000 O
BRANCH 40 44
ATOM     41  C1  A00 X   3      32.501  57.105  18.6940  0.00  0.00     0.000 C
ATOM     42  C2  A00 X   3      31.008  57.304  18.3550  0.00  0.00     0.000 C
ATOM     43  C3  A00 X   3      30.318  55.946  18.0670  0.00  0.00     0.000 C
ATOM     44  C4  A00 X   3      30.552  54.879  19.1280  0.00  0.00     0.000 C
ATOM     45  C5  A00 X   3      32.074  54.734  19.4110  0.00  0.00     0.000 C
ATOM     46  O5  A00 X   3      32.685  56.039  19.6670  0.00  0.00     0.000 O
ATOM     47   O  A00 X   3      28.954  56.015  17.6560  0.00  0.00     0.000 O
ATOM     49  HD  A00 X   3      28.885  55.313  18.1590  0.00  0.00     0.000 HD
BRANCH 42 49
ATOM     49   O  A00 X   3      30.404  57.974  19.4830  0.00  0.00     0.000 O
ATOM     50   O  A00 X   3      28.206  58.705  20.0900  0.00  0.00     0.000 OA
ATOM     51   O  A00 X   3      28.942  59.027  17.8660  0.00  0.00     0.000 OA
ATOM     52   O  A00 X   3      29.971  60.280  19.5860  0.00  0.00     0.000 OA
ATOM     53   S  A00 X   3      29.313  59.062  19.2590  0.00  0.00     0.000 S
ENDBRANCH 42 49
BRANCH 45 54
ATOM     54   C  A00 X   3      32.784  53.942  18.3050  0.00  0.00     0.000 C
ATOM     55   O  A00 X   3      33.884  53.465  18.4940  0.00  0.00     0.000 OA
ATOM     56   O  A00 X   3      32.256  53.779  17.2160  0.00  0.00     0.000 OA
ENDBRANCH 45 54
BRANCH 41 57
ATOM     57  O4  A00 X   4      33.304  56.957  17.5020  0.00  0.00     0.000 O
BRANCH 57 61
ATOM     58  C1  A00 X   4      37.434  57.827  16.5920  0.00  0.00     0.000 C
ATOM     59  C2  A00 X   4      37.107  56.549  17.4050  0.00  0.00     0.000 C
ATOM     60  C3  A00 X   4      35.617  56.156  17.3590  0.00  0.00     0.000 C
ATOM     61  C4  A00 X   4      34.696  57.362  17.6400  0.00  0.00     0.000 C
ATOM     62  C5  A00 X   4      35.049  58.436  16.5810  0.00  0.00     0.000 C
ATOM     63  O5  A00 X   4      36.427  58.850  16.7630  0.00  0.00     0.000 O
BRANCH 59 66
ATOM     64   N  A00 X   4      37.438  56.894  18.8000  0.00  0.00     0.000 N
ATOM     66  HD  A00 X   4      37.423  57.731  19.0190  0.00  0.00     0.000 HD
ATOM     66   O  A00 X   4      39.711  56.268  18.3100  0.00  0.00     0.000 OA
ATOM     67   S  A00 X   4      38.806  56.336  19.4140  0.00  0.00     0.000 S
ATOM     68   O  A00 X   4      39.089  57.355  20.3820  0.00  0.00     0.000 OA
ATOM     69   O  A00 X   4      38.344  55.100  19.9780  0.00  0.00     0.000 OA
ENDBRANCH 59 66
BRANCH 62 70
ATOM     70   C  A00 X   4      34.148  59.693  16.6300  0.00  0.00     0.000 C
ATOM     71   O  A00 X   4      34.638  62.757  18.4950  0.00  0.00     0.000 OA
ATOM     72   O  A00 X   4      32.753  61.358  18.3110  0.00  0.00     0.000 OA
ATOM     73   O  A00 X   4      34.849  60.755  17.2970  0.00  0.00     0.000 O
ATOM     74   O  A00 X   4      34.635  60.665  19.6950  0.00  0.00     0.000 OA
ATOM     75   S  A00 X   4      34.177  61.398  18.5590  0.00  0.00     0.000 S
ENDBRANCH 62 70
ENDBRANCH 57 61
ENDBRANCH 41 57
ENDBRANCH 40 44
ENDBRANCH 20 40
ENDBRANCH 19 23
ENDBRANCH 1 19
TORSDOF 14
ENDMDL
MODEL 87
REMARK VINA RESULT:      -0.3     52.309     57.245
ROOT
ATOM      1  C1  A00 X   1      32.069  58.062  25.1630  0.00  0.00     0.000 C
ATOM      2  C2  A00 X   1      31.297  59.399  25.3170  0.00  0.00     0.000 C
ATOM      3  C3  A00 X   1      31.891  60.629  24.5530  0.00  0.00     0.000 C
ATOM      4  C4  A00 X   1      33.347  60.462  24.0490  0.00  0.00     0.000 C
ATOM      5  C5  A00 X   1      34.110  59.394  24.8320  0.00  0.00     0.000 C
ATOM      6  O5  A00 X   1      33.390  58.167  24.5760  0.00  0.00     0.000 O
ATOM      7   O  A00 X   1      31.891  61.754  25.4280  0.00  0.00     0.000 O
ATOM      9  HD  A00 X   1      32.641  61.767  24.9950  0.00  0.00     0.000 HD
ATOM      9   O  A00 X   1      33.385  60.158  22.6550  0.00  0.00     0.000 O
ATOM     11  HD  A00 X   1      34.135  60.171  22.2220  0.00  0.00     0.000 HD
ENDROOT
BRANCH 2 11
ATOM     11   O  A00 X   1      29.944  59.178  24.8710  0.00  0.00     0.000 O
ATOM     12   O  A00 X   1      28.259  60.882  25.0330  0.00  0.00     0.000 OA
ATOM     13   O  A00 X   1      29.242  59.982  27.0680  0.00  0.00     0.000 OA
ATOM     14   O  A00 X   1      27.836  58.628  25.7090  0.00  0.00     0.000 OA
ATOM     15   S  A00 X   1      28.760  59.729  25.7380  0.00  0.00     0.000 S
ENDBRANCH 2 11
BRANCH 5 16
ATOM     16   C  A00 X   1      34.300  59.694  26.3220  0.00  0.00     0.000 C
ATOM     17   O  A00 X   1      34.714  58.811  27.0450  0.00  0.00     0.000 OA
ATOM     18   O  A00 X   1      34.058  60.783  26.8030  0.00  0.00     0.000 OA
ENDBRANCH 5 16
BRANCH 1 19
ATOM     19  O4  A00 X   2      32.094  57.284  26.3850  0.00  0.00     0.000 O
BRANCH 19 23
ATOM     20  C1  A00 X   2      31.740  53.527  24.3540  0.00  0.00     0.000 C
ATOM     21  C2  A00 X   2      30.453  54.134  24.9640  0.00  0.00     0.000 C
ATOM     22  C3  A00 X   2      30.642  55.636  25.2620  0.00  0.00     0.000 C
ATOM     23  C4  A00 X   2      31.889  55.862  26.1460  0.00  0.00     0.000 C
ATOM     24  C5  A00 X   2      33.100  55.195  25.4380  0.00  0.00     0.000 C
ATOM     25  O5  A00 X   2      32.828  53.778  25.2830  0.00  0.00     0.000 O
ATOM     26   O  A00 X   2      29.402  56.167  25.7610  0.00  0.00     0.000 O
ATOM     28  HD  A00 X   2      29.313  55.539  26.3520  0.00  0.00     0.000 HD
BRANCH 21 30
ATOM     28   N  A00 X   2      29.998  52.773  25.2640  0.00  0.00     0.000 N
ATOM     30  HD  A00 X   2      29.306  53.289  25.3310  0.00  0.00     0.000 HD
ATOM     30   O  A00 X   2      27.666  52.738  25.1250  0.00  0.00     0.000 OA
ATOM     31   S  A00 X   2      28.677  52.584  26.1110  0.00  0.00     0.000 S
ATOM     32   O  A00 X   2      28.803  51.264  26.6460  0.00  0.00     0.000 OA
ATOM     33   O  A00 X   2      28.708  53.553  27.1660  0.00  0.00     0.000 OA
ENDBRANCH 21 30
BRANCH 24 34
ATOM     34   C  A00 X   2      34.514  55.474  26.0000  0.00  0.00     0.000 C
ATOM     35   O  A00 X   2      35.535  54.728  29.4150  0.00  0.00     0.000 OA
ATOM     36   O  A00 X   2      34.524  55.413  27.4410  0.00  0.00     0.000 O
ATOM     37   O  A00 X   2      34.631  53.128  27.9260  0.00  0.00     0.000 OA
ATOM     38   S  A00 X   2      35.445  54.298  28.0580  0.00  0.00     0.000 S
ATOM     39   O  A00 X   2      36.675  54.337  27.3260  0.00  0.00     0.000 OA
ENDBRANCH 24 34
BRANCH 20 40
ATOM     40  O4  A00 X   3      31.971  54.252  23.1370  0.00  0.00     0.000 O
BRANCH 40 44
ATOM     41  C1  A00 X   3      34.407  55.958  21.0690  0.00  0.00     0.000 C
ATOM     42  C2  A00 X   3      32.898  55.863  20.7550  0.00  0.00     0.000 C
ATOM     43  C3  A00 X   3      32.407  54.395  20.8330  0.00  0.00     0.000 C
ATOM     44  C4  A00 X   3      32.798  53.663  22.1110  0.00  0.00     0.000 C
ATOM     45  C5  A00 X   3      34.327  53.800  22.3550  0.00  0.00     0.000 C
ATOM     46  O5  A00 X   3      34.748  55.199  22.2620  0.00  0.00     0.000 O
ATOM     47   O  A00 X   3      31.043  54.174  20.4760  0.00  0.00     0.000 O
ATOM     49  HD  A00 X   3      31.078  53.615  21.1360  0.00  0.00     0.000 HD
BRANCH 42 49
ATOM     49   O  A00 X   3      32.213  56.701  21.7110  0.00  0.00     0.000 O
ATOM     50   O  A00 X   3      29.938  57.237  22.2280  0.00  0.00     0.000 OA
ATOM     51   O  A00 X   3      30.589  57.092  19.9600  0.00  0.00     0.000 OA
ATOM     52   O  A00 X   3      31.437  58.872  21.2640  0.00  0.00     0.000 OA
ATOM     53   S  A00 X   3      30.968  57.529  21.2800  0.00  0.00     0.000 S
ENDBRANCH 42 49
BRANCH 45 54
ATOM     54   C  A00 X   3      35.133  52.865  21.4450  0.00  0.00     0.000 C
ATOM     55   O  A00 X   3      36.288  52.595  21.7040  0.00  0.00     0.000 OA
ATOM     56   O  A00 X   3      34.629  52.378  20.4450  0.00  0.00     0.000 OA
ENDBRANCH 45 54
BRANCH 41 57
ATOM     57  O4  A00 X   4      35.214  55.633  19.9150  0.00  0.00     0.000 O
BRANCH 57 61
ATOM     58  C1  A00 X   4      39.169  56.810  18.6460  0.00  0.00     0.000 C
ATOM     59  C2  A00 X   4      39.035  55.739  19.7580  0.00  0.00     0.000 C
ATOM     60  C3  A00 X   4      37.617  55.146  19.8720  0.00  0.00     0.000 C
ATOM     61  C4  A00 X   4      36.534  56.246  19.8910  0.00  0.00     0.000 C
ATOM     62  C5  A00 X   4      36.721  57.064  18.5890  0.00  0.00     0.000 C
ATOM     63  O5  A00 X   4      38.027  57.696  18.6060  0.00  0.00     0.000 O
BRANCH 59 66
ATOM     64   N  A00 X   4      39.319  56.346  21.0710  0.00  0.00     0.000 N
ATOM     66  HD  A00 X   4      39.161  57.193  21.1620  0.00  0.00     0.000 HD
ATOM     66   O  A00 X   4      41.660  56.049  20.5910  0.00  0.00     0.000 OA
ATOM     67   S  A00 X   4      40.770  56.131  21.7070  0.00  0.00     0.000 S
ATOM     68   O  A00 X   4      40.884  57.320  22.5000  0.00  0.00     0.000 OA
ATOM     69   O  A00 X   4      40.539  54.937  22.4680  0.00  0.00     0.000 OA
ENDBRANCH 59 66
BRANCH 62 70
ATOM     70   C  A00 X   4      35.649  58.158  18.3710  0.00  0.00     0.000 C
ATOM     71   O  A00 X   4      35.696  61.617  19.4410  0.00  0.00     0.000 OA
ATOM     72   O  A00 X   4      34.030  59.966  19.6570  0.00  0.00     0.000 OA
ATOM     73   O  A00 X   4      36.191  59.436  18.7430  0.00  0.00     0.000 O
ATOM     74   O  A00 X   4      35.992  59.893  21.1000  0.00  0.00     0.000 OA
ATOM     75   S  A00 X   4      35.434  60.262  19.8400  0.00  0.00     0.000 S
ENDBRANCH 62 70
ENDBRANCH 57 61
ENDBRANCH 41 57
ENDBRANCH 40 44
ENDBRANCH 20 40
ENDBRANCH 19 23
ENDBRANCH 1 19
TORSDOF 14
ENDMDL
MODEL 88
REMARK VINA RESULT:      -0.3     51.866     55.543
ROOT
ATOM      1  C1  A00 X   1      38.609  21.305  84.2720  0.00  0.00     0.000 C
ATOM      2  C2  A00 X   1      39.021  22.683  84.8550  0.00  0.00     0.000 C
ATOM      3  C3  A00 X   1      38.497  23.939  84.0850  0.00  0.00     0.000 C
ATOM      4  C4  A00 X   1      37.955  23.671  82.6570  0.00  0.00     0.000 C
ATOM      5  C5  A00 X   1      38.513  22.379  82.0610  0.00  0.00     0.000 C
ATOM      6  O5  A00 X   1      38.038  21.334  82.9400  0.00  0.00     0.000 O
ATOM      7   O  A00 X   1      39.569  24.869  83.9430  0.00  0.00     0.000 O
ATOM      9  HD  A00 X   1      39.138  24.859  83.1910  0.00  0.00     0.000 HD
ATOM      9   O  A00 X   1      36.528  23.633  82.6400  0.00  0.00     0.000 O
ATOM     11  HD  A00 X   1      36.097  23.623  81.8890  0.00  0.00     0.000 HD
ENDROOT
BRANCH 2 11
ATOM     11   O  A00 X   1      38.556  22.739  86.2170  0.00  0.00     0.000 O
ATOM     12   O  A00 X   1      38.700  24.747  87.5260  0.00  0.00     0.000 OA
ATOM     13   O  A00 X   1      40.746  23.668  86.7740  0.00  0.00     0.000 OA
ATOM     14   O  A00 X   1      39.364  22.626  88.4050  0.00  0.00     0.000 OA
ATOM     15   S  A00 X   1      39.409  23.518  87.2780  0.00  0.00     0.000 S
ENDBRANCH 2 11
BRANCH 5 16
ATOM     16   C  A00 X   1      40.031  22.364  81.8550  0.00  0.00     0.000 C
ATOM     17   O  A00 X   1      40.572  21.308  81.5970  0.00  0.00     0.000 OA
ATOM     18   O  A00 X   1      40.710  23.368  81.9350  0.00  0.00     0.000 OA
ENDBRANCH 5 16
BRANCH 1 19
ATOM     19  O4  A00 X   2      39.662  20.315  84.3730  0.00  0.00     0.000 O
BRANCH 19 23
ATOM     20  C1  A00 X   2      36.980  17.121  85.3600  0.00  0.00     0.000 C
ATOM     21  C2  A00 X   2      37.722  17.817  86.5260  0.00  0.00     0.000 C
ATOM     22  C3  A00 X   2      38.289  19.181  86.0810  0.00  0.00     0.000 C
ATOM     23  C4  A00 X   2      39.169  19.019  84.8210  0.00  0.00     0.000 C
ATOM     24  C5  A00 X   2      38.320  18.297  83.7390  0.00  0.00     0.000 C
ATOM     25  O5  A00 X   2      37.912  17.002  84.2530  0.00  0.00     0.000 O
ATOM     26   O  A00 X   2      38.907  19.815  87.2140  0.00  0.00     0.000 O
ATOM     28  HD  A00 X   2      39.373  19.114  87.4160  0.00  0.00     0.000 HD
BRANCH 21 30
ATOM     28   N  A00 X   2      37.771  16.522  87.2140  0.00  0.00     0.000 N
ATOM     30  HD  A00 X   2      37.953  17.128  87.8060  0.00  0.00     0.000 HD
ATOM     30   O  A00 X   2      37.690  16.918  89.5150  0.00  0.00     0.000 OA
ATOM     31   S  A00 X   2      38.601  16.406  88.5540  0.00  0.00     0.000 S
ATOM     32   O  A00 X   2      38.872  15.006  88.6640  0.00  0.00     0.000 OA
ATOM     33   O  A00 X   2      39.819  17.135  88.3620  0.00  0.00     0.000 OA
ENDBRANCH 21 30
BRANCH 24 34
ATOM     34   C  A00 X   2      38.890  18.217  82.3030  0.00  0.00     0.000 C
ATOM     35   O  A00 X   2      42.054  16.629  81.4500  0.00  0.00     0.000 OA
ATOM     36   O  A00 X   2      40.287  17.862  82.3150  0.00  0.00     0.000 O
ATOM     37   O  A00 X   2      40.295  15.540  82.5950  0.00  0.00     0.000 OA
ATOM     38   S  A00 X   2      40.641  16.507  81.5990  0.00  0.00     0.000 S
ATOM     39   O  A00 X   2      39.900  16.491  80.3740  0.00  0.00     0.000 OA
ENDBRANCH 24 34
BRANCH 20 40
ATOM     40  O4  A00 X   3      35.913  18.009  84.9950  0.00  0.00     0.000 O
BRANCH 40 44
ATOM     41  C1  A00 X   3      34.123  19.630  82.2950  0.00  0.00     0.000 C
ATOM     42  C2  A00 X   3      33.837  19.849  83.7970  0.00  0.00     0.000 C
ATOM     43  C3  A00 X   3      33.662  18.496  84.5320  0.00  0.00     0.000 C
ATOM     44  C4  A00 X   3      34.774  17.487  84.2760  0.00  0.00     0.000 C
ATOM     45  C5  A00 X   3      34.998  17.318  82.7470  0.00  0.00     0.000 C
ATOM     46  O5  A00 X   3      35.149  18.619  82.0930  0.00  0.00     0.000 O
ATOM     47   O  A00 X   3      33.307  18.577  85.9110  0.00  0.00     0.000 O
ATOM     49  HD  A00 X   3      33.855  17.909  85.9750  0.00  0.00     0.000 HD
BRANCH 42 49
ATOM     49   O  A00 X   3      34.948  20.601  84.3330  0.00  0.00     0.000 O
ATOM     50   O  A00 X   3      35.618  21.403  86.4870  0.00  0.00     0.000 OA
ATOM     51   O  A00 X   3      33.343  21.567  85.8660  0.00  0.00     0.000 OA
ATOM     52   O  A00 X   3      34.920  22.915  84.7330  0.00  0.00     0.000 OA
ATOM     53   S  A00 X   3      34.709  21.688  85.4210  0.00  0.00     0.000 S
ENDBRANCH 42 49
BRANCH 45 54
ATOM     54   C  A00 X   3      33.913  16.443  82.1080  0.00  0.00     0.000 C
ATOM     55   O  A00 X   3      34.097  15.918  81.0290  0.00  0.00     0.000 OA
ATOM     56   O  A00 X   3      32.845  16.261  82.6720  0.00  0.00     0.000 OA
ENDBRANCH 45 54
BRANCH 41 57
ATOM     57  O4  A00 X   4      32.908  19.390  81.5500  0.00  0.00     0.000 O
BRANCH 57 61
ATOM     58  C1  A00 X   4      31.789  20.036  77.4310  0.00  0.00     0.000 C
ATOM     59  C2  A00 X   4      32.673  18.812  77.7760  0.00  0.00     0.000 C
ATOM     60  C3  A00 X   4      32.707  18.482  79.2820  0.00  0.00     0.000 C
ATOM     61  C4  A00 X   4      32.969  19.740  80.1380  0.00  0.00     0.000 C
ATOM     62  C5  A00 X   4      31.848  20.749  79.7860  0.00  0.00     0.000 C
ATOM     63  O5  A00 X   4      31.953  21.110  78.3850  0.00  0.00     0.000 O
BRANCH 59 66
ATOM     64   N  A00 X   4      34.055  19.143  77.3850  0.00  0.00     0.000 N
ATOM     66  HD  A00 X   4      34.277  19.980  77.3690  0.00  0.00     0.000 HD
ATOM     66   O  A00 X   4      33.481  18.457  75.1490  0.00  0.00     0.000 OA
ATOM     67   S  A00 X   4      34.618  18.546  76.0110  0.00  0.00     0.000 S
ATOM     68   O  A00 X   4      35.577  19.554  75.6650  0.00  0.00     0.000 OA
ATOM     69   O  A00 X   4      35.196  17.321  76.4860  0.00  0.00     0.000 OA
ENDBRANCH 59 66
BRANCH 62 70
ATOM     70   C  A00 X   4      31.875  22.045  80.6310  0.00  0.00     0.000 C
ATOM     71   O  A00 X   4      33.715  25.102  80.0230  0.00  0.00     0.000 OA
ATOM     72   O  A00 X   4      33.525  23.787  81.9670  0.00  0.00     0.000 OA
ATOM     73   O  A00 X   4      32.539  23.081  79.8900  0.00  0.00     0.000 O
ATOM     74   O  A00 X   4      34.936  23.025  80.1310  0.00  0.00     0.000 OA
ATOM     75   S  A00 X   4      33.788  23.767  80.5450  0.00  0.00     0.000 S
ENDBRANCH 62 70
ENDBRANCH 57 61
ENDBRANCH 41 57
ENDBRANCH 40 44
ENDBRANCH 20 40
ENDBRANCH 19 23
ENDBRANCH 1 19
TORSDOF 14
ENDMDL
MODEL 89
REMARK VINA RESULT:      -0.3     40.445     45.798
ROOT
ATOM      1  C1  A00 X   1      38.621  34.694  14.4780  0.00  0.00     0.000 C
ATOM      2  C2  A00 X   1      40.095  34.256  14.6830  0.00  0.00     0.000 C
ATOM      3  C3  A00 X   1      41.183  35.191  14.0590  0.00  0.00     0.000 C
ATOM      4  C4  A00 X   1      40.665  36.217  13.0190  0.00  0.00     0.000 C
ATOM      5  C5  A00 X   1      39.337  35.787  12.3950  0.00  0.00     0.000 C
ATOM      6  O5  A00 X   1      38.409  35.744  13.5020  0.00  0.00     0.000 O
ATOM      7   O  A00 X   1      42.149  34.386  13.3880  0.00  0.00     0.000 O
ATOM      9  HD  A00 X   1      41.997  35.074  12.8850  0.00  0.00     0.000 HD
ATOM      9   O  A00 X   1      40.531  37.518  13.5910  0.00  0.00     0.000 O
ATOM     11  HD  A00 X   1      40.378  38.207  13.0880  0.00  0.00     0.000 HD
ENDROOT
BRANCH 2 11
ATOM     11   O  A00 X   1      40.327  34.147  16.1010  0.00  0.00     0.000 O
ATOM     12   O  A00 X   1      42.408  33.341  16.9890  0.00  0.00     0.000 OA
ATOM     13   O  A00 X   1      41.021  31.846  15.6640  0.00  0.00     0.000 OA
ATOM     14   O  A00 X   1      40.305  32.562  17.8160  0.00  0.00     0.000 OA
ATOM     15   S  A00 X   1      41.082  32.888  16.6510  0.00  0.00     0.000 S
ENDBRANCH 2 11
BRANCH 5 16
ATOM     16   C  A00 X   1      39.392  34.485  11.5900  0.00  0.00     0.000 C
ATOM     17   O  A00 X   1      38.348  33.980  11.2310  0.00  0.00     0.000 OA
ATOM     18   O  A00 X   1      40.439  33.946  11.2920  0.00  0.00     0.000 OA
ENDBRANCH 5 16
BRANCH 1 19
ATOM     19  O4  A00 X   2      37.729  33.575  14.2510  0.00  0.00     0.000 O
BRANCH 19 23
ATOM     20  C1  A00 X   2      34.480  35.320  16.4330  0.00  0.00     0.000 C
ATOM     21  C2  A00 X   2      35.371  34.295  17.1760  0.00  0.00     0.000 C
ATOM     22  C3  A00 X   2      36.710  34.093  16.4370  0.00  0.00     0.000 C
ATOM     23  C4  A00 X   2      36.464  33.715  14.9590  0.00  0.00     0.000 C
ATOM     24  C5  A00 X   2      35.550  34.805  14.3360  0.00  0.00     0.000 C
ATOM     25  O5  A00 X   2      34.300  34.843  15.0730  0.00  0.00     0.000 O
ATOM     26   O  A00 X   2      37.526  33.188  17.2000  0.00  0.00     0.000 O
ATOM     28  HD  A00 X   2      36.894  32.601  17.2740  0.00  0.00     0.000 HD
BRANCH 21 30
ATOM     28   N  A00 X   2      34.180  33.843  17.9020  0.00  0.00     0.000 N
ATOM     30  HD  A00 X   2      34.867  33.537  18.3320  0.00  0.00     0.000 HD
ATOM     30   O  A00 X   2      34.848  33.139  20.0280  0.00  0.00     0.000 OA
ATOM     31   S  A00 X   2      34.300  32.579  18.8440  0.00  0.00     0.000 S
ATOM     32   O  A00 X   2      32.952  32.116  18.9620  0.00  0.00     0.000 OA
ATOM     33   O  A00 X   2      35.099  31.611  18.1530  0.00  0.00     0.000 OA
ENDBRANCH 21 30
BRANCH 24 34
ATOM     34   C  A00 X   2      35.338  34.786  12.8040  0.00  0.00     0.000 C
ATOM     35   O  A00 X   2      32.120  34.229  11.1940  0.00  0.00     0.000 OA
ATOM     36   O  A00 X   2      34.067  34.202  12.4590  0.00  0.00     0.000 O
ATOM     37   O  A00 X   2      32.524  35.929  12.7890  0.00  0.00     0.000 OA
ATOM     38   S  A00 X   2      33.069  35.160  11.7110  0.00  0.00     0.000 S
ATOM     39   O  A00 X   2      33.838  35.855  10.7240  0.00  0.00     0.000 OA
ENDBRANCH 24 34
BRANCH 20 40
ATOM     40  O4  A00 X   3      35.229  36.544  16.4170  0.00  0.00     0.000 O
BRANCH 40 44
ATOM     41  C1  A00 X   3      36.342  39.430  14.5300  0.00  0.00     0.000 C
ATOM     42  C2  A00 X   3      36.729  39.133  15.9950  0.00  0.00     0.000 C
ATOM     43  C3  A00 X   3      35.471  38.840  16.8530  0.00  0.00     0.000 C
ATOM     44  C4  A00 X   3      34.531  37.798  16.2620  0.00  0.00     0.000 C
ATOM     45  C5  A00 X   3      34.184  38.167  14.7920  0.00  0.00     0.000 C
ATOM     46  O5  A00 X   3      35.399  38.446  14.0230  0.00  0.00     0.000 O
ATOM     47   O  A00 X   3      35.701  38.637  18.2460  0.00  0.00     0.000 O
ATOM     49  HD  A00 X   3      35.092  38.030  18.1430  0.00  0.00     0.000 HD
BRANCH 42 49
ATOM     49   O  A00 X   3      37.630  38.004  15.9750  0.00  0.00     0.000 O
ATOM     50   O  A00 X   3      38.748  36.651  17.6030  0.00  0.00     0.000 OA
ATOM     51   O  A00 X   3      38.647  38.989  17.9380  0.00  0.00     0.000 OA
ATOM     52   O  A00 X   3      39.966  38.161  16.1600  0.00  0.00     0.000 OA
ATOM     53   S  A00 X   3      38.822  37.932  16.9730  0.00  0.00     0.000 S
ENDBRANCH 42 49
BRANCH 45 54
ATOM     54   C  A00 X   3      33.151  39.298  14.7190  0.00  0.00     0.000 C
ATOM     55   O  A00 X   3      32.477  39.457  13.7220  0.00  0.00     0.000 OA
ATOM     56   O  A00 X   3      32.990  40.059  15.6600  0.00  0.00     0.000 OA
ENDBRANCH 45 54
BRANCH 41 57
ATOM     57  O4  A00 X   4      35.912  40.798  14.3580  0.00  0.00     0.000 O
BRANCH 57 61
ATOM     58  C1  A00 X   4      35.841  43.470  10.9670  0.00  0.00     0.000 C
ATOM     59  C2  A00 X   4      34.739  42.387  11.0810  0.00  0.00     0.000 C
ATOM     60  C3  A00 X   4      34.651  41.744  12.4800  0.00  0.00     0.000 C
ATOM     61  C4  A00 X   4      36.040  41.321  13.0050  0.00  0.00     0.000 C
ATOM     62  C5  A00 X   4      36.915  42.599  13.0040  0.00  0.00     0.000 C
ATOM     63  O5  A00 X   4      37.058  43.078  11.6420  0.00  0.00     0.000 O
BRANCH 59 66
ATOM     64   N  A00 X   4      34.620  41.173  10.2540  0.00  0.00     0.000 N
ATOM     66  HD  A00 X   4      35.350  40.753  10.0520  0.00  0.00     0.000 HD
ATOM     66   O  A00 X   4      34.026  42.607   8.4120  0.00  0.00     0.000 OA
ATOM     67   S  A00 X   4      33.814  41.272   8.8760  0.00  0.00     0.000 S
ATOM     68   O  A00 X   4      34.468  40.245   8.1190  0.00  0.00     0.000 OA
ATOM     69   O  A00 X   4      32.497  40.921   9.3280  0.00  0.00     0.000 OA
ENDBRANCH 59 66
BRANCH 62 70
ATOM     70   C  A00 X   4      38.326  42.399  13.6060  0.00  0.00     0.000 C
ATOM     71   O  A00 X   4      41.314  41.139  11.9960  0.00  0.00     0.000 OA
ATOM     72   O  A00 X   4      40.310  40.551  14.0440  0.00  0.00     0.000 OA
ATOM     73   O  A00 X   4      39.257  42.114  12.5490  0.00  0.00     0.000 O
ATOM     74   O  A00 X   4      39.322  39.781  11.9540  0.00  0.00     0.000 OA
ATOM     75   S  A00 X   4      40.079  40.781  12.6350  0.00  0.00     0.000 S
ENDBRANCH 62 70
ENDBRANCH 57 61
ENDBRANCH 41 57
ENDBRANCH 40 44
ENDBRANCH 20 40
ENDBRANCH 19 23
ENDBRANCH 1 19
TORSDOF 14
ENDMDL
MODEL 90
REMARK VINA RESULT:      -0.3     95.002    100.029
ROOT
ATOM      1  C1  A00 X   1      81.766  76.086  22.0940  0.00  0.00     0.000 C
ATOM      2  C2  A00 X   1      82.490  76.331  23.4450  0.00  0.00     0.000 C
ATOM      3  C3  A00 X   1      83.336  75.137  23.9980  0.00  0.00     0.000 C
ATOM      4  C4  A00 X   1      83.058  73.760  23.3400  0.00  0.00     0.000 C
ATOM      5  C5  A00 X   1      81.678  73.701  22.6860  0.00  0.00     0.000 C
ATOM      6  O5  A00 X   1      81.719  74.708  21.6500  0.00  0.00     0.000 O
ATOM      7   O  A00 X   1      83.058  74.984  25.3880  0.00  0.00     0.000 O
ATOM      9  HD  A00 X   1      83.095  74.189  25.0460  0.00  0.00     0.000 HD
ATOM      9   O  A00 X   1      84.062  73.429  22.3810  0.00  0.00     0.000 O
ATOM     11  HD  A00 X   1      84.099  72.634  22.0390  0.00  0.00     0.000 HD
ENDROOT
BRANCH 2 11
ATOM     11   O  A00 X   1      83.348  77.477  23.2820  0.00  0.00     0.000 O
ATOM     12   O  A00 X   1      84.594  78.402  25.1140  0.00  0.00     0.000 OA
ATOM     13   O  A00 X   1      82.163  78.453  25.1820  0.00  0.00     0.000 OA
ATOM     14   O  A00 X   1      83.353  79.788  23.6140  0.00  0.00     0.000 OA
ATOM     15   S  A00 X   1      83.358  78.581  24.3950  0.00  0.00     0.000 S
ENDBRANCH 2 11
BRANCH 5 16
ATOM     16   C  A00 X   1      80.497  73.860  23.6490  0.00  0.00     0.000 C
ATOM     17   O  A00 X   1      79.388  74.032  23.1850  0.00  0.00     0.000 OA
ATOM     18   O  A00 X   1      80.630  73.814  24.8560  0.00  0.00     0.000 OA
ENDBRANCH 5 16
BRANCH 1 19
ATOM     19  O4  A00 X   2      80.456  76.703  22.0400  0.00  0.00     0.000 O
BRANCH 19 23
ATOM     20  C1  A00 X   2      80.804  77.775  17.9050  0.00  0.00     0.000 C
ATOM     21  C2  A00 X   2      81.095  78.875  18.9550  0.00  0.00     0.000 C
ATOM     22  C3  A00 X   2      81.355  78.253  20.3430  0.00  0.00     0.000 C
ATOM     23  C4  A00 X   2      80.186  77.328  20.7520  0.00  0.00     0.000 C
ATOM     24  C5  A00 X   2      79.984  76.289  19.6150  0.00  0.00     0.000 C
ATOM     25  O5  A00 X   2      79.677  76.996  18.3860  0.00  0.00     0.000 O
ATOM     26   O  A00 X   2      81.687  79.306  21.2650  0.00  0.00     0.000 O
ATOM     28  HD  A00 X   2      81.001  79.785  21.0440  0.00  0.00     0.000 HD
BRANCH 21 30
ATOM     28   N  A00 X   2      80.518  79.856  18.0320  0.00  0.00     0.000 N
ATOM     30  HD  A00 X   2      80.961  80.303  18.6280  0.00  0.00     0.000 HD
ATOM     30   O  A00 X   2      81.619  81.892  18.3530  0.00  0.00     0.000 OA
ATOM     31   S  A00 X   2      80.321  81.343  18.5320  0.00  0.00     0.000 S
ATOM     32   O  A00 X   2      79.319  81.865  17.6560  0.00  0.00     0.000 OA
ATOM     33   O  A00 X   2      79.824  81.277  19.8740  0.00  0.00     0.000 OA
ENDBRANCH 21 30
BRANCH 24 34
ATOM     34   C  A00 X   2      79.026  75.103  19.8780  0.00  0.00     0.000 C
ATOM     35   O  A00 X   2      75.516  75.474  20.7700  0.00  0.00     0.000 OA
ATOM     36   O  A00 X   2      77.825  75.539  20.5450  0.00  0.00     0.000 O
ATOM     37   O  A00 X   2      76.494  76.414  18.8320  0.00  0.00     0.000 OA
ATOM     38   S  A00 X   2      76.492  75.311  19.7430  0.00  0.00     0.000 S
ATOM     39   O  A00 X   2      76.574  73.993  19.1890  0.00  0.00     0.000 OA
ENDBRANCH 24 34
BRANCH 20 40
ATOM     40  O4  A00 X   3      81.978  76.951  17.8700  0.00  0.00     0.000 O
BRANCH 40 44
ATOM     41  C1  A00 X   3      83.280  73.570  17.8420  0.00  0.00     0.000 C
ATOM     42  C2  A00 X   3      84.147  74.847  17.8790  0.00  0.00     0.000 C
ATOM     43  C3  A00 X   3      83.725  75.838  16.7630  0.00  0.00     0.000 C
ATOM     44  C4  A00 X   3      82.231  76.132  16.7090  0.00  0.00     0.000 C
ATOM     45  C5  A00 X   3      81.428  74.801  16.6690  0.00  0.00     0.000 C
ATOM     46  O5  A00 X   3      81.866  73.894  17.7310  0.00  0.00     0.000 O
ATOM     47   O  A00 X   3      84.517  77.018  16.6460  0.00  0.00     0.000 O
ATOM     49  HD  A00 X   3      83.746  77.384  16.4960  0.00  0.00     0.000 HD
BRANCH 42 49
ATOM     49   O  A00 X   3      83.986  75.430  19.1910  0.00  0.00     0.000 O
ATOM     50   O  A00 X   3      84.744  77.403  20.3150  0.00  0.00     0.000 OA
ATOM     51   O  A00 X   3      86.260  76.219  18.9400  0.00  0.00     0.000 OA
ATOM     52   O  A00 X   3      85.529  75.205  20.9460  0.00  0.00     0.000 OA
ATOM     53   S  A00 X   3      85.192  76.110  19.9020  0.00  0.00     0.000 S
ENDBRANCH 42 49
BRANCH 45 54
ATOM     54   C  A00 X   3      81.462  74.160  15.2760  0.00  0.00     0.000 C
ATOM     55   O  A00 X   3      80.647  73.316  14.9640  0.00  0.00     0.000 OA
ATOM     56   O  A00 X   3      82.308  74.485  14.4580  0.00  0.00     0.000 OA
ENDBRANCH 45 54
BRANCH 41 57
ATOM     57  O4  A00 X   4      83.748  72.636  16.8440  0.00  0.00     0.000 O
BRANCH 57 61
ATOM     58  C1  A00 X   4      83.510  68.341  16.4720  0.00  0.00     0.000 C
ATOM     59  C2  A00 X   4      82.252  69.184  16.1450  0.00  0.00     0.000 C
ATOM     60  C3  A00 X   4      82.549  70.687  15.9630  0.00  0.00     0.000 C
ATOM     61  C4  A00 X   4      83.428  71.240  17.1060  0.00  0.00     0.000 C
ATOM     62  C5  A00 X   4      84.720  70.386  17.1140  0.00  0.00     0.000 C
ATOM     63  O5  A00 X   4      84.380  69.008  17.4140  0.00  0.00     0.000 O
BRANCH 59 66
ATOM     64   N  A00 X   4      81.405  69.021  17.3400  0.00  0.00     0.000 N
ATOM     66  HD  A00 X   4      81.798  68.813  18.0840  0.00  0.00     0.000 HD
ATOM     66   O  A00 X   4      80.550  67.006  16.3350  0.00  0.00     0.000 OA
ATOM     67   S  A00 X   4      80.153  68.030  17.2510  0.00  0.00     0.000 S
ATOM     68   O  A00 X   4      80.046  67.624  18.6220  0.00  0.00     0.000 OA
ATOM     69   O  A00 X   4      79.133  68.948  16.8280  0.00  0.00     0.000 OA
ENDBRANCH 59 66
BRANCH 62 70
ATOM     70   C  A00 X   4      85.786  70.862  18.1310  0.00  0.00     0.000 C
ATOM     71   O  A00 X   4      86.186  69.909  21.6000  0.00  0.00     0.000 OA
ATOM     72   O  A00 X   4      86.138  72.035  20.5890  0.00  0.00     0.000 OA
ATOM     73   O  A00 X   4      85.718  70.043  19.3090  0.00  0.00     0.000 O
ATOM     74   O  A00 X   4      84.061  70.796  20.8870  0.00  0.00     0.000 OA
ATOM     75   S  A00 X   4      85.473  70.754  20.6840  0.00  0.00     0.000 S
ENDBRANCH 62 70
ENDBRANCH 57 61
ENDBRANCH 41 57
ENDBRANCH 40 44
ENDBRANCH 20 40
ENDBRANCH 19 23
ENDBRANCH 1 19
TORSDOF 14
ENDMDL
MODEL 91
REMARK VINA RESULT:      -0.3     58.192     61.916
ROOT
ATOM      1  C1  A00 X   1      38.087  20.476  88.4880  0.00  0.00     0.000 C
ATOM      2  C2  A00 X   1      37.364  21.578  87.6680  0.00  0.00     0.000 C
ATOM      3  C3  A00 X   1      36.053  21.140  86.9360  0.00  0.00     0.000 C
ATOM      4  C4  A00 X   1      35.835  19.610  86.8110  0.00  0.00     0.000 C
ATOM      5  C5  A00 X   1      37.145  18.830  86.9220  0.00  0.00     0.000 C
ATOM      6  O5  A00 X   1      37.634  19.120  88.2510  0.00  0.00     0.000 O
ATOM      7   O  A00 X   1      36.077  21.655  85.6060  0.00  0.00     0.000 O
ATOM      9  HD  A00 X   1      35.768  20.848  85.5620  0.00  0.00     0.000 HD
ATOM      9   O  A00 X   1      34.906  19.134  87.7850  0.00  0.00     0.000 O
ATOM     11  HD  A00 X   1      34.597  18.327  87.7400  0.00  0.00     0.000 HD
ENDROOT
BRANCH 2 11
ATOM     11   O  A00 X   1      37.061  22.664  88.5640  0.00  0.00     0.000 O
ATOM     12   O  A00 X   1      35.712  24.531  87.8870  0.00  0.00     0.000 OA
ATOM     13   O  A00 X   1      37.853  24.153  86.7970  0.00  0.00     0.000 OA
ATOM     14   O  A00 X   1      37.764  24.831  89.0750  0.00  0.00     0.000 OA
ATOM     15   S  A00 X   1      37.090  24.132  88.0150  0.00  0.00     0.000 S
ENDBRANCH 2 11
BRANCH 5 16
ATOM     16   C  A00 X   1      38.167  19.118  85.8170  0.00  0.00     0.000 C
ATOM     17   O  A00 X   1      39.301  18.707  85.9530  0.00  0.00     0.000 OA
ATOM     18   O  A00 X   1      37.881  19.735  84.8100  0.00  0.00     0.000 OA
ENDBRANCH 5 16
BRANCH 1 19
ATOM     19  O4  A00 X   2      39.530  20.572  88.4060  0.00  0.00     0.000 O
BRANCH 19 23
ATOM     20  C1  A00 X   2      40.135  19.567  92.5280  0.00  0.00     0.000 C
ATOM     21  C2  A00 X   2      40.162  21.067  92.1470  0.00  0.00     0.000 C
ATOM     22  C3  A00 X   2      39.515  21.295  90.7650  0.00  0.00     0.000 C
ATOM     23  C4  A00 X   2      40.176  20.392  89.6990  0.00  0.00     0.000 C
ATOM     24  C5  A00 X   2      40.101  18.926  90.2050  0.00  0.00     0.000 C
ATOM     25  O5  A00 X   2      40.806  18.832  91.4700  0.00  0.00     0.000 O
ATOM     26   O  A00 X   2      39.503  22.706  90.4880  0.00  0.00     0.000 O
ATOM     28  HD  A00 X   2      40.343  22.801  90.6770  0.00  0.00     0.000 HD
BRANCH 21 30
ATOM     28   N  A00 X   2      41.184  21.272  93.1780  0.00  0.00     0.000 N
ATOM     30  HD  A00 X   2      40.876  22.055  92.9710  0.00  0.00     0.000 HD
ATOM     30   O  A00 X   2      40.920  23.426  94.0440  0.00  0.00     0.000 OA
ATOM     31   S  A00 X   2      41.873  22.690  93.2910  0.00  0.00     0.000 S
ATOM     32   O  A00 X   2      43.101  22.417  93.9730  0.00  0.00     0.000 OA
ATOM     33   O  A00 X   2      42.135  23.141  91.9570  0.00  0.00     0.000 OA
ENDBRANCH 21 30
BRANCH 24 34
ATOM     34   C  A00 X   2      40.488  17.797  89.2200  0.00  0.00     0.000 C
ATOM     35   O  A00 X   2      43.726  17.545  87.5760  0.00  0.00     0.000 OA
ATOM     36   O  A00 X   2      41.668  18.142  88.4680  0.00  0.00     0.000 O
ATOM     37   O  A00 X   2      43.441  17.671  89.9200  0.00  0.00     0.000 OA
ATOM     38   S  A00 X   2      42.902  17.191  88.6840  0.00  0.00     0.000 S
ATOM     39   O  A00 X   2      42.392  15.853  88.6580  0.00  0.00     0.000 OA
ENDBRANCH 24 34
BRANCH 20 40
ATOM     40  O4  A00 X   3      38.748  19.201  92.5610  0.00  0.00     0.000 O
BRANCH 40 44
ATOM     41  C1  A00 X   3      36.248  16.767  91.5850  0.00  0.00     0.000 C
ATOM     42  C2  A00 X   3      35.949  18.086  92.3300  0.00  0.00     0.000 C
ATOM     43  C3  A00 X   3      36.860  18.239  93.5750  0.00  0.00     0.000 C
ATOM     44  C4  A00 X   3      38.344  18.030  93.3040  0.00  0.00     0.000 C
ATOM     45  C5  A00 X   3      38.565  16.684  92.5580  0.00  0.00     0.000 C
ATOM     46  O5  A00 X   3      37.678  16.578  91.3970  0.00  0.00     0.000 O
ATOM     47   O  A00 X   3      36.612  19.381  94.3920  0.00  0.00     0.000 O
ATOM     49  HD  A00 X   3      37.476  19.391  94.4460  0.00  0.00     0.000 HD
BRANCH 42 49
ATOM     49   O  A00 X   3      36.157  19.161  91.3880  0.00  0.00     0.000 O
ATOM     50   O  A00 X   3      36.084  21.553  91.4460  0.00  0.00     0.000 OA
ATOM     51   O  A00 X   3      34.413  20.333  92.5890  0.00  0.00     0.000 OA
ATOM     52   O  A00 X   3      34.440  20.265  90.2270  0.00  0.00     0.000 OA
ATOM     53   S  A00 X   3      35.228  20.409  91.4020  0.00  0.00     0.000 S
ENDBRANCH 42 49
BRANCH 45 54
ATOM     54   C  A00 X   3      38.460  15.485  93.5080  0.00  0.00     0.000 C
ATOM     55   O  A00 X   3      37.914  15.596  94.5860  0.00  0.00     0.000 OA
ATOM     56   O  A00 X   3      38.925  14.399  93.1980  0.00  0.00     0.000 OA
ENDBRANCH 45 54
BRANCH 41 57
ATOM     57  O4  A00 X   4      35.583  15.642  92.2020  0.00  0.00     0.000 O
BRANCH 57 61
ATOM     58  C1  A00 X   4      34.184  11.845  90.6970  0.00  0.00     0.000 C
ATOM     59  C2  A00 X   4      35.698  12.022  90.9710  0.00  0.00     0.000 C
ATOM     60  C3  A00 X   4      36.028  13.260  91.8280  0.00  0.00     0.000 C
ATOM     61  C4  A00 X   4      35.306  14.524  91.3120  0.00  0.00     0.000 C
ATOM     62  C5  A00 X   4      33.793  14.195  91.3200  0.00  0.00     0.000 C
ATOM     63  O5  A00 X   4      33.537  13.104  90.3980  0.00  0.00     0.000 O
BRANCH 59 66
ATOM     64   N  A00 X   4      36.412  12.218  89.6960  0.00  0.00     0.000 N
ATOM     66  HD  A00 X   4      35.970  12.571  89.0400  0.00  0.00     0.000 HD
ATOM     66   O  A00 X   4      36.393   9.824  89.4320  0.00  0.00     0.000 OA
ATOM     67   S  A00 X   4      37.166  10.964  89.0490  0.00  0.00     0.000 S
ATOM     68   O  A00 X   4      37.104  11.313  87.6600  0.00  0.00     0.000 OA
ATOM     69   O  A00 X   4      38.466  11.119  89.6380  0.00  0.00     0.000 OA
ENDBRANCH 59 66
BRANCH 62 70
ATOM     70   C  A00 X   4      32.885  15.387  90.9340  0.00  0.00     0.000 C
ATOM     71   O  A00 X   4      31.774  16.412  87.6440  0.00  0.00     0.000 OA
ATOM     72   O  A00 X   4      32.739  17.657  89.3940  0.00  0.00     0.000 OA
ATOM     73   O  A00 X   4      32.506  15.268  89.5530  0.00  0.00     0.000 O
ATOM     74   O  A00 X   4      34.141  16.191  88.0440  0.00  0.00     0.000 OA
ATOM     75   S  A00 X   4      32.851  16.458  88.5930  0.00  0.00     0.000 S
ENDBRANCH 62 70
ENDBRANCH 57 61
ENDBRANCH 41 57
ENDBRANCH 40 44
ENDBRANCH 20 40
ENDBRANCH 19 23
ENDBRANCH 1 19
TORSDOF 14
ENDMDL
MODEL 92
REMARK VINA RESULT:      -0.3     96.843    101.368
ROOT
ATOM      1  C1  A00 X   1     100.871  48.831  65.8320  0.00  0.00     0.000 C
ATOM      2  C2  A00 X   1     102.099  48.632  64.9040  0.00  0.00     0.000 C
ATOM      3  C3  A00 X   1     101.875  47.717  63.6560  0.00  0.00     0.000 C
ATOM      4  C4  A00 X   1     100.598  46.839  63.6900  0.00  0.00     0.000 C
ATOM      5  C5  A00 X   1     100.092  46.612  65.1150  0.00  0.00     0.000 C
ATOM      6  O5  A00 X   1      99.758  47.932  65.6010  0.00  0.00     0.000 O
ATOM      7   O  A00 X   1     102.979  46.821  63.5420  0.00  0.00     0.000 O
ATOM      9  HD  A00 X   1     102.262  46.367  63.3690  0.00  0.00     0.000 HD
ATOM      9   O  A00 X   1      99.556  47.401  62.8930  0.00  0.00     0.000 O
ATOM     11  HD  A00 X   1      98.840  46.947  62.7200  0.00  0.00     0.000 HD
ENDROOT
BRANCH 2 11
ATOM     11   O  A00 X   1     102.529  49.934  64.4610  0.00  0.00     0.000 O
ATOM     12   O  A00 X   1     104.249  50.208  62.8080  0.00  0.00     0.000 OA
ATOM     13   O  A00 X   1     104.804  49.187  64.9450  0.00  0.00     0.000 OA
ATOM     14   O  A00 X   1     104.230  51.492  64.8240  0.00  0.00     0.000 OA
ATOM     15   S  A00 X   1     104.059  50.191  64.2360  0.00  0.00     0.000 S
ENDBRANCH 2 11
BRANCH 5 16
ATOM     16   C  A00 X   1     101.054  45.847  66.0300  0.00  0.00     0.000 C
ATOM     17   O  A00 X   1     100.821  45.814  67.2200  0.00  0.00     0.000 OA
ATOM     18   O  A00 X   1     102.034  45.267  65.6060  0.00  0.00     0.000 OA
ENDBRANCH 5 16
BRANCH 1 19
ATOM     19  O4  A00 X   2     101.229  48.878  67.2350  0.00  0.00     0.000 O
BRANCH 19 23
ATOM     20  C1  A00 X   2      98.415  51.974  68.1630  0.00  0.00     0.000 C
ATOM     21  C2  A00 X   2      99.886  52.393  67.9270  0.00  0.00     0.000 C
ATOM     22  C3  A00 X   2     100.664  51.279  67.1950  0.00  0.00     0.000 C
ATOM     23  C4  A00 X   2     100.536  49.939  67.9530  0.00  0.00     0.000 C
ATOM     24  C5  A00 X   2      99.023  49.643  68.1420  0.00  0.00     0.000 C
ATOM     25  O5  A00 X   2      98.426  50.725  68.9040  0.00  0.00     0.000 O
ATOM     26   O  A00 X   2     102.000  51.743  66.9390  0.00  0.00     0.000 O
ATOM     28  HD  A00 X   2     102.124  51.994  67.7580  0.00  0.00     0.000 HD
BRANCH 21 30
ATOM     28   N  A00 X   2      99.712  53.438  68.9410  0.00  0.00     0.000 N
ATOM     30  HD  A00 X   2     100.432  53.634  68.5000  0.00  0.00     0.000 HD
ATOM     30   O  A00 X   2     101.070  55.248  68.3600  0.00  0.00     0.000 OA
ATOM     31   S  A00 X   2     100.975  54.276  69.3900  0.00  0.00     0.000 S
ATOM     32   O  A00 X   2     100.602  54.789  70.6720  0.00  0.00     0.000 OA
ATOM     33   O  A00 X   2     102.068  53.358  69.5200  0.00  0.00     0.000 OA
ENDBRANCH 21 30
BRANCH 24 34
ATOM     34   C  A00 X   2      98.618  48.246  68.6700  0.00  0.00     0.000 C
ATOM     35   O  A00 X   2      99.701  46.880  71.8670  0.00  0.00     0.000 OA
ATOM     36   O  A00 X   2      99.461  47.837  69.7650  0.00  0.00     0.000 O
ATOM     37   O  A00 X   2      98.580  48.948  71.6260  0.00  0.00     0.000 OA
ATOM     38   S  A00 X   2      98.720  47.612  71.1340  0.00  0.00     0.000 S
ATOM     39   O  A00 X   2      97.523  46.887  70.8330  0.00  0.00     0.000 OA
ENDBRANCH 24 34
BRANCH 20 40
ATOM     40  O4  A00 X   3      97.860  51.753  66.8580  0.00  0.00     0.000 O
BRANCH 40 44
ATOM     41  C1  A00 X   3      95.866  49.577  64.7580  0.00  0.00     0.000 C
ATOM     42  C2  A00 X   3      96.569  50.864  64.2750  0.00  0.00     0.000 C
ATOM     43  C3  A00 X   3      96.227  52.063  65.1980  0.00  0.00     0.000 C
ATOM     44  C4  A00 X   3      96.427  51.795  66.6840  0.00  0.00     0.000 C
ATOM     45  C5  A00 X   3      95.688  50.490  67.0930  0.00  0.00     0.000 C
ATOM     46  O5  A00 X   3      96.032  49.389  66.1900  0.00  0.00     0.000 O
ATOM     47   O  A00 X   3      96.753  53.327  64.7970  0.00  0.00     0.000 O
ATOM     49  HD  A00 X   3      96.875  53.419  65.6500  0.00  0.00     0.000 HD
BRANCH 42 49
ATOM     49   O  A00 X   3      97.987  50.594  64.2650  0.00  0.00     0.000 O
ATOM     50   O  A00 X   3      99.984  51.831  63.8010  0.00  0.00     0.000 OA
ATOM     51   O  A00 X   3      98.103  52.135  62.4020  0.00  0.00     0.000 OA
ATOM     52   O  A00 X   3      99.226  50.057  62.3430  0.00  0.00     0.000 OA
ATOM     53   S  A00 X   3      98.892  51.184  63.1440  0.00  0.00     0.000 S
ENDBRANCH 42 49
BRANCH 45 54
ATOM     54   C  A00 X   3      94.177  50.711  67.2270  0.00  0.00     0.000 C
ATOM     55   O  A00 X   3      93.490  49.932  67.8560  0.00  0.00     0.000 OA
ATOM     56   O  A00 X   3      93.637  51.673  66.7020  0.00  0.00     0.000 OA
ENDBRANCH 45 54
BRANCH 41 57
ATOM     57  O4  A00 X   4      94.492  49.520  64.3130  0.00  0.00     0.000 O
BRANCH 57 61
ATOM     58  C1  A00 X   4      91.779  46.261  63.5030  0.00  0.00     0.000 C
ATOM     59  C2  A00 X   4      92.038  46.661  64.9770  0.00  0.00     0.000 C
ATOM     60  C3  A00 X   4      92.720  48.035  65.1300  0.00  0.00     0.000 C
ATOM     61  C4  A00 X   4      93.937  48.180  64.1910  0.00  0.00     0.000 C
ATOM     62  C5  A00 X   4      93.408  47.947  62.7540  0.00  0.00     0.000 C
ATOM     63  O5  A00 X   4      92.895  46.595  62.6470  0.00  0.00     0.000 O
BRANCH 59 66
ATOM     64   N  A00 X   4      92.956  45.687  65.5970  0.00  0.00     0.000 N
ATOM     66  HD  A00 X   4      93.510  45.273  65.0760  0.00  0.00     0.000 HD
ATOM     66   O  A00 X   4      91.044  44.271  65.9660  0.00  0.00     0.000 OA
ATOM     67   S  A00 X   4      92.332  44.542  66.5230  0.00  0.00     0.000 S
ATOM     68   O  A00 X   4      93.310  43.507  66.3480  0.00  0.00     0.000 OA
ATOM     69   O  A00 X   4      92.387  45.192  67.8010  0.00  0.00     0.000 OA
ENDBRANCH 59 66
BRANCH 62 70
ATOM     70   C  A00 X   4      94.469  48.160  61.6480  0.00  0.00     0.000 C
ATOM     71   O  A00 X   4      96.800  45.764  60.2600  0.00  0.00     0.000 OA
ATOM     72   O  A00 X   4      97.145  47.947  61.0710  0.00  0.00     0.000 OA
ATOM     73   O  A00 X   4      94.994  46.886  61.2420  0.00  0.00     0.000 O
ATOM     74   O  A00 X   4      96.797  46.120  62.6450  0.00  0.00     0.000 OA
ATOM     75   S  A00 X   4      96.542  46.663  61.3490  0.00  0.00     0.000 S
ENDBRANCH 62 70
ENDBRANCH 57 61
ENDBRANCH 41 57
ENDBRANCH 40 44
ENDBRANCH 20 40
ENDBRANCH 19 23
ENDBRANCH 1 19
TORSDOF 14
ENDMDL
MODEL 93
REMARK VINA RESULT:      -0.2     51.096     56.112
ROOT
ATOM      1  C1  A00 X   1      30.710  56.387  22.7860  0.00  0.00     0.000 C
ATOM      2  C2  A00 X   1      30.082  57.728  23.2490  0.00  0.00     0.000 C
ATOM      3  C3  A00 X   1      30.844  59.027  22.8250  0.00  0.00     0.000 C
ATOM      4  C4  A00 X   1      32.297  58.816  22.3260  0.00  0.00     0.000 C
ATOM      5  C5  A00 X   1      32.899  57.507  22.8360  0.00  0.00     0.000 C
ATOM      6  O5  A00 X   1      32.062  56.473  22.2710  0.00  0.00     0.000 O
ATOM      7   O  A00 X   1      30.925  59.898  23.9500  0.00  0.00     0.000 O
ATOM      9  HD  A00 X   1      31.692  59.927  23.5490  0.00  0.00     0.000 HD
ATOM      9   O  A00 X   1      32.370  58.857  20.9010  0.00  0.00     0.000 O
ATOM     11  HD  A00 X   1      33.137  58.886  20.5000  0.00  0.00     0.000 HD
ENDROOT
BRANCH 2 11
ATOM     11   O  A00 X   1      28.737  57.783  22.7340  0.00  0.00     0.000 O
ATOM     12   O  A00 X   1      27.385  59.758  22.9240  0.00  0.00     0.000 OA
ATOM     13   O  A00 X   1      28.079  58.592  24.9430  0.00  0.00     0.000 OA
ATOM     14   O  A00 X   1      26.523  57.591  23.4480  0.00  0.00     0.000 OA
ATOM     15   S  A00 X   1      27.630  58.499  23.5810  0.00  0.00     0.000 S
ENDBRANCH 2 11
BRANCH 5 16
ATOM     16   C  A00 X   1      33.046  57.412  24.3590  0.00  0.00     0.000 C
ATOM     17   O  A00 X   1      33.311  56.335  24.8510  0.00  0.00     0.000 OA
ATOM     18   O  A00 X   1      32.915  58.376  25.0870  0.00  0.00     0.000 OA
ENDBRANCH 5 16
BRANCH 1 19
ATOM     19  O4  A00 X   2      30.589  55.338  23.7780  0.00  0.00     0.000 O
BRANCH 19 23
ATOM     20  C1  A00 X   2      29.746  52.287  20.8890  0.00  0.00     0.000 C
ATOM     21  C2  A00 X   2      28.545  52.911  21.6410  0.00  0.00     0.000 C
ATOM     22  C3  A00 X   2      28.943  54.249  22.2980  0.00  0.00     0.000 C
ATOM     23  C4  A00 X   2      30.185  54.065  23.1990  0.00  0.00     0.000 C
ATOM     24  C5  A00 X   2      31.304  53.418  22.3380  0.00  0.00     0.000 C
ATOM     25  O5  A00 X   2      30.832  52.139  21.8420  0.00  0.00     0.000 O
ATOM     26   O  A00 X   2      27.781  54.821  22.9230  0.00  0.00     0.000 O
ATOM     28  HD  A00 X   2      27.584  54.088  23.3410  0.00  0.00     0.000 HD
BRANCH 21 30
ATOM     28   N  A00 X   2      27.887  51.601  21.6090  0.00  0.00     0.000 N
ATOM     30  HD  A00 X   2      27.276  52.184  21.8010  0.00  0.00     0.000 HD
ATOM     30   O  A00 X   2      25.580  51.949  21.4780  0.00  0.00     0.000 OA
ATOM     31   S  A00 X   2      26.527  51.417  22.3930  0.00  0.00     0.000 S
ATOM     32   O  A00 X   2      26.442  50.003  22.5960  0.00  0.00     0.000 OA
ATOM     33   O  A00 X   2      26.667  52.092  23.6490  0.00  0.00     0.000 OA
ENDBRANCH 21 30
BRANCH 24 34
ATOM     34   C  A00 X   2      32.727  53.337  22.9400  0.00  0.00     0.000 C
ATOM     35   O  A00 X   2      33.525  51.665  26.0740  0.00  0.00     0.000 OA
ATOM     36   O  A00 X   2      32.687  52.940  24.3250  0.00  0.00     0.000 O
ATOM     37   O  A00 X   2      32.433  50.616  24.2570  0.00  0.00     0.000 OA
ATOM     38   S  A00 X   2      33.410  51.583  24.6550  0.00  0.00     0.000 S
ATOM     39   O  A00 X   2      34.653  51.603  23.9440  0.00  0.00     0.000 OA
ENDBRANCH 24 34
BRANCH 20 40
ATOM     40  O4  A00 X   3      30.115  53.245  19.8860  0.00  0.00     0.000 O
BRANCH 40 44
ATOM     41  C1  A00 X   3      32.835  55.031  18.2950  0.00  0.00     0.000 C
ATOM     42  C2  A00 X   3      31.339  55.235  17.9710  0.00  0.00     0.000 C
ATOM     43  C3  A00 X   3      30.643  53.879  17.6870  0.00  0.00     0.000 C
ATOM     44  C4  A00 X   3      30.884  52.810  18.7440  0.00  0.00     0.000 C
ATOM     45  C5  A00 X   3      32.409  52.660  19.0120  0.00  0.00     0.000 C
ATOM     46  O5  A00 X   3      33.026  53.964  19.2640  0.00  0.00     0.000 O
ATOM     47   O  A00 X   3      29.275  53.952  17.2890  0.00  0.00     0.000 O
ATOM     49  HD  A00 X   3      29.209  53.250  17.7920  0.00  0.00     0.000 HD
BRANCH 42 49
ATOM     49   O  A00 X   3      30.748  55.905  19.1050  0.00  0.00     0.000 O
ATOM     50   O  A00 X   3      28.555  56.623  19.7430  0.00  0.00     0.000 OA
ATOM     51   O  A00 X   3      29.255  56.942  17.5070  0.00  0.00     0.000 OA
ATOM     52   O  A00 X   3      30.301  58.208  19.2070  0.00  0.00     0.000 OA
ATOM     53   S  A00 X   3      29.646  56.985  18.8940  0.00  0.00     0.000 S
ENDBRANCH 42 49
BRANCH 45 54
ATOM     54   C  A00 X   3      33.105  51.868  17.8980  0.00  0.00     0.000 C
ATOM     55   O  A00 X   3      34.216  51.409  18.0680  0.00  0.00     0.000 OA
ATOM     56   O  A00 X   3      32.556  51.687  16.8230  0.00  0.00     0.000 OA
ENDBRANCH 45 54
BRANCH 41 57
ATOM     57  O4  A00 X   4      33.626  54.883  17.0950  0.00  0.00     0.000 O
BRANCH 57 61
ATOM     58  C1  A00 X   4      37.735  55.796  16.1310  0.00  0.00     0.000 C
ATOM     59  C2  A00 X   4      37.432  54.513  16.9450  0.00  0.00     0.000 C
ATOM     60  C3  A00 X   4      35.945  54.105  16.9180  0.00  0.00     0.000 C
ATOM     61  C4  A00 X   4      35.016  55.302  17.2150  0.00  0.00     0.000 C
ATOM     62  C5  A00 X   4      35.344  56.382  16.1550  0.00  0.00     0.000 C
ATOM     63  O5  A00 X   4      36.720  56.809  16.3190  0.00  0.00     0.000 O
BRANCH 59 66
ATOM     64   N  A00 X   4      37.747  54.676  18.3760  0.00  0.00     0.000 N
ATOM     66  HD  A00 X   4      37.686  55.473  18.7110  0.00  0.00     0.000 HD
ATOM     66   O  A00 X   4      40.050  54.255  17.8130  0.00  0.00     0.000 OA
ATOM     67   S  A00 X   4      39.146  54.116  18.9110  0.00  0.00     0.000 S
ATOM     68   O  A00 X   4      39.375  55.002  20.0150  0.00  0.00     0.000 OA
ATOM     69   O  A00 X   4      38.757  52.788  19.2940  0.00  0.00     0.000 OA
ENDBRANCH 59 66
BRANCH 62 70
ATOM     70   C  A00 X   4      34.431  57.629  16.2200  0.00  0.00     0.000 C
ATOM     71   O  A00 X   4      34.923  60.698  18.0760  0.00  0.00     0.000 OA
ATOM     72   O  A00 X   4      33.049  59.281  17.9250  0.00  0.00     0.000 OA
ATOM     73   O  A00 X   4      35.133  58.698  16.8740  0.00  0.00     0.000 O
ATOM     74   O  A00 X   4      34.962  58.607  19.2760  0.00  0.00     0.000 OA
ATOM     75   S  A00 X   4      34.477  59.336  18.1480  0.00  0.00     0.000 S
ENDBRANCH 62 70
ENDBRANCH 57 61
ENDBRANCH 41 57
ENDBRANCH 40 44
ENDBRANCH 20 40
ENDBRANCH 19 23
ENDBRANCH 1 19
TORSDOF 14
ENDMDL
MODEL 94
REMARK VINA RESULT:      -0.2    100.152    104.599
ROOT
ATOM      1  C1  A00 X   1     106.765  40.828  71.1280  0.00  0.00     0.000 C
ATOM      2  C2  A00 X   1     108.291  40.923  70.8620  0.00  0.00     0.000 C
ATOM      3  C3  A00 X   1     108.885  39.861  69.8780  0.00  0.00     0.000 C
ATOM      4  C4  A00 X   1     107.975  38.641  69.5830  0.00  0.00     0.000 C
ATOM      5  C5  A00 X   1     106.937  38.415  70.6830  0.00  0.00     0.000 C
ATOM      6  O5  A00 X   1     106.125  39.611  70.6710  0.00  0.00     0.000 O
ATOM      7   O  A00 X   1     110.089  39.343  70.4380  0.00  0.00     0.000 O
ATOM      9  HD  A00 X   1     109.659  38.674  70.0940  0.00  0.00     0.000 HD
ATOM      9   O  A00 X   1     107.320  38.771  68.3220  0.00  0.00     0.000 O
ATOM     11  HD  A00 X   1     106.890  38.103  67.9780  0.00  0.00     0.000 HD
ENDROOT
BRANCH 2 11
ATOM     11   O  A00 X   1     108.565  42.242  70.3500  0.00  0.00     0.000 O
ATOM     12   O  A00 X   1     110.733  42.856  69.5190  0.00  0.00     0.000 OA
ATOM     13   O  A00 X   1     110.479  42.275  71.8670  0.00  0.00     0.000 OA
ATOM     14   O  A00 X   1     109.512  44.272  71.0090  0.00  0.00     0.000 OA
ATOM     15   S  A00 X   1     109.928  42.927  70.7110  0.00  0.00     0.000 S
ENDBRANCH 2 11
BRANCH 5 16
ATOM     16   C  A00 X   1     107.516  38.081  72.0610  0.00  0.00     0.000 C
ATOM     17   O  A00 X   1     108.668  37.706  72.1320  0.00  0.00     0.000 OA
ATOM     18   O  A00 X   1     106.868  38.185  73.0830  0.00  0.00     0.000 OA
ENDBRANCH 5 16
BRANCH 1 19
ATOM     19  O4  A00 X   2     106.415  41.126  72.5020  0.00  0.00     0.000 O
BRANCH 19 23
ATOM     20  C1  A00 X   2     102.854  43.268  71.4580  0.00  0.00     0.000 C
ATOM     21  C2  A00 X   2     104.132  44.097  71.7330  0.00  0.00     0.000 C
ATOM     22  C3  A00 X   2     105.390  43.207  71.6640  0.00  0.00     0.000 C
ATOM     23  C4  A00 X   2     105.248  41.991  72.6070  0.00  0.00     0.000 C
ATOM     24  C5  A00 X   2     103.928  41.259  72.2420  0.00  0.00     0.000 C
ATOM     25  O5  A00 X   2     102.820  42.179  72.4180  0.00  0.00     0.000 O
ATOM     26   O  A00 X   2     106.551  44.033  71.8580  0.00  0.00     0.000 O
ATOM     28  HD  A00 X   2     106.230  44.403  72.5720  0.00  0.00     0.000 HD
BRANCH 21 30
ATOM     28   N  A00 X   2     103.282  45.144  72.3090  0.00  0.00     0.000 N
ATOM     30  HD  A00 X   2     104.056  45.503  72.1590  0.00  0.00     0.000 HD
ATOM     30   O  A00 X   2     104.296  47.209  71.9020  0.00  0.00     0.000 OA
ATOM     31   S  A00 X   2     103.973  46.382  73.0090  0.00  0.00     0.000 S
ATOM     32   O  A00 X   2     102.954  46.896  73.8710  0.00  0.00     0.000 OA
ATOM     33   O  A00 X   2     105.067  45.874  73.7820  0.00  0.00     0.000 OA
ENDBRANCH 21 30
BRANCH 24 34
ATOM     34   C  A00 X   2     103.664  39.876  72.8840  0.00  0.00     0.000 C
ATOM     35   O  A00 X   2     100.902  39.173  75.1500  0.00  0.00     0.000 OA
ATOM     36   O  A00 X   2     102.741  39.980  73.9870  0.00  0.00     0.000 O
ATOM     37   O  A00 X   2     100.633  40.068  72.9780  0.00  0.00     0.000 OA
ATOM     38   S  A00 X   2     101.394  39.189  73.8120  0.00  0.00     0.000 S
ATOM     39   O  A00 X   2     101.744  37.906  73.2790  0.00  0.00     0.000 OA
ENDBRANCH 24 34
BRANCH 20 40
ATOM     40  O4  A00 X   3     103.015  42.736  70.1350  0.00  0.00     0.000 O
BRANCH 40 44
ATOM     41  C1  A00 X   3     102.722  39.871  67.9370  0.00  0.00     0.000 C
ATOM     42  C2  A00 X   3     103.262  41.253  67.5130  0.00  0.00     0.000 C
ATOM     43  C3  A00 X   3     102.286  42.383  67.9290  0.00  0.00     0.000 C
ATOM     44  C4  A00 X   3     101.846  42.335  69.3870  0.00  0.00     0.000 C
ATOM     45  C5  A00 X   3     101.311  40.918  69.7360  0.00  0.00     0.000 C
ATOM     46  O5  A00 X   3     102.259  39.883  69.3160  0.00  0.00     0.000 O
ATOM     47   O  A00 X   3     102.642  43.699  67.5120  0.00  0.00     0.000 O
ATOM     49  HD  A00 X   3     102.342  43.908  68.2970  0.00  0.00     0.000 HD
BRANCH 42 49
ATOM     49   O  A00 X   3     104.553  41.413  68.1410  0.00  0.00     0.000 O
ATOM     50   O  A00 X   3     106.213  43.133  68.2770  0.00  0.00     0.000 OA
ATOM     51   O  A00 X   3     105.151  42.733  66.2030  0.00  0.00     0.000 OA
ATOM     52   O  A00 X   3     106.611  41.083  67.0590  0.00  0.00     0.000 OA
ATOM     53   S  A00 X   3     105.710  42.133  67.3880  0.00  0.00     0.000 S
ENDBRANCH 42 49
BRANCH 45 54
ATOM     54   C  A00 X   3      99.896  40.696  69.1900  0.00  0.00     0.000 C
ATOM     55   O  A00 X   3      99.175  39.844  69.6680  0.00  0.00     0.000 OA
ATOM     56   O  A00 X   3      99.469  41.370  68.2650  0.00  0.00     0.000 OA
ENDBRANCH 45 54
BRANCH 41 57
ATOM     57  O4  A00 X   4     101.747  39.367  66.9960  0.00  0.00     0.000 O
BRANCH 57 61
ATOM     58  C1  A00 X   4     100.410  35.393  65.9680  0.00  0.00     0.000 C
ATOM     59  C2  A00 X   4      99.869  36.045  67.2650  0.00  0.00     0.000 C
ATOM     60  C3  A00 X   4     100.122  37.564  67.3410  0.00  0.00     0.000 C
ATOM     61  C4  A00 X   4     101.583  37.920  66.9920  0.00  0.00     0.000 C
ATOM     62  C5  A00 X   4     101.842  37.356  65.5730  0.00  0.00     0.000 C
ATOM     63  O5  A00 X   4     101.709  35.912  65.6020  0.00  0.00     0.000 O
BRANCH 59 66
ATOM     64   N  A00 X   4     100.539  35.480  68.4500  0.00  0.00     0.000 N
ATOM     66  HD  A00 X   4     101.345  35.181  68.3490  0.00  0.00     0.000 HD
ATOM     66   O  A00 X   4      99.008  33.627  68.3090  0.00  0.00     0.000 OA
ATOM     67   S  A00 X   4      99.782  34.339  69.2770  0.00  0.00     0.000 S
ATOM     68   O  A00 X   4     100.901  33.626  69.8190  0.00  0.00     0.000 OA
ATOM     69   O  A00 X   4      99.079  35.145  70.2340  0.00  0.00     0.000 OA
ENDBRANCH 59 66
BRANCH 62 70
ATOM     70   C  A00 X   4     103.233  37.710  64.9950  0.00  0.00     0.000 C
ATOM     71   O  A00 X   4     106.398  36.037  65.5340  0.00  0.00     0.000 OA
ATOM     72   O  A00 X   4     105.825  38.317  65.6700  0.00  0.00     0.000 OA
ATOM     73   O  A00 X   4     104.149  36.638  65.2720  0.00  0.00     0.000 O
ATOM     74   O  A00 X   4     105.156  36.799  67.4550  0.00  0.00     0.000 OA
ATOM     75   S  A00 X   4     105.455  36.977  66.0710  0.00  0.00     0.000 S
ENDBRANCH 62 70
ENDBRANCH 57 61
ENDBRANCH 41 57
ENDBRANCH 40 44
ENDBRANCH 20 40
ENDBRANCH 19 23
ENDBRANCH 1 19
TORSDOF 14
ENDMDL
MODEL 95
REMARK VINA RESULT:      -0.2     75.076     79.508
ROOT
ATOM      1  C1  A00 X   1      31.354  78.695  62.1550  0.00  0.00     0.000 C
ATOM      2  C2  A00 X   1      29.842  78.451  62.4040  0.00  0.00     0.000 C
ATOM      3  C3  A00 X   1      29.179  77.318  61.5530  0.00  0.00     0.000 C
ATOM      4  C4  A00 X   1      29.998  76.837  60.3280  0.00  0.00     0.000 C
ATOM      5  C5  A00 X   1      31.006  77.885  59.8590  0.00  0.00     0.000 C
ATOM      6  O5  A00 X   1      31.906  78.055  60.9780  0.00  0.00     0.000 O
ATOM      7   O  A00 X   1      27.934  77.795  61.0470  0.00  0.00     0.000 O
ATOM      9  HD  A00 X   1      28.317  77.351  60.4090  0.00  0.00     0.000 HD
ATOM      9   O  A00 X   1      30.671  75.608  60.6000  0.00  0.00     0.000 O
ATOM     11  HD  A00 X   1      31.054  75.164  59.9620  0.00  0.00     0.000 HD
ENDROOT
BRANCH 2 11
ATOM     11   O  A00 X   1      29.671  78.148  63.8030  0.00  0.00     0.000 O
ATOM     12   O  A00 X   1      27.560  77.438  64.7000  0.00  0.00     0.000 OA
ATOM     13   O  A00 X   1      27.760  79.668  63.7500  0.00  0.00     0.000 OA
ATOM     14   O  A00 X   1      28.880  79.117  65.7740  0.00  0.00     0.000 OA
ATOM     15   S  A00 X   1      28.364  78.622  64.5270  0.00  0.00     0.000 S
ENDBRANCH 2 11
BRANCH 5 16
ATOM     16   C  A00 X   1      30.392  79.198  59.3620  0.00  0.00     0.000 C
ATOM     17   O  A00 X   1      31.125  80.145  59.1660  0.00  0.00     0.000 OA
ATOM     18   O  A00 X   1      29.202  79.321  59.1500  0.00  0.00     0.000 OA
ENDBRANCH 5 16
BRANCH 1 19
ATOM     19  O4  A00 X   2      31.713  80.097  62.2110  0.00  0.00     0.000 O
BRANCH 19 23
ATOM     20  C1  A00 X   2      35.419  79.385  64.2420  0.00  0.00     0.000 C
ATOM     21  C2  A00 X   2      34.200  79.797  65.1030  0.00  0.00     0.000 C
ATOM     22  C3  A00 X   2      32.884  79.594  64.3240  0.00  0.00     0.000 C
ATOM     23  C4  A00 X   2      32.936  80.331  62.9660  0.00  0.00     0.000 C
ATOM     24  C5  A00 X   2      34.205  79.847  62.2120  0.00  0.00     0.000 C
ATOM     25  O5  A00 X   2      35.373  80.160  63.0140  0.00  0.00     0.000 O
ATOM     26   O  A00 X   2      31.782  79.924  65.1870  0.00  0.00     0.000 O
ATOM     28  HD  A00 X   2      32.124  80.686  65.4160  0.00  0.00     0.000 HD
BRANCH 21 30
ATOM     28   N  A00 X   2      35.118  80.525  65.9840  0.00  0.00     0.000 N
ATOM     30  HD  A00 X   2      34.372  80.440  66.4150  0.00  0.00     0.000 HD
ATOM     30   O  A00 X   2      34.251  80.458  68.1520  0.00  0.00     0.000 OA
ATOM     31   S  A00 X   2      34.512  81.418  67.1390  0.00  0.00     0.000 S
ATOM     32   O  A00 X   2      35.561  82.343  67.4390  0.00  0.00     0.000 OA
ATOM     33   O  A00 X   2      33.382  82.108  66.5920  0.00  0.00     0.000 OA
ENDBRANCH 21 30
BRANCH 24 34
ATOM     34   C  A00 X   2      34.370  80.259  60.7310  0.00  0.00     0.000 C
ATOM     35   O  A00 X   2      37.089  82.333  59.4800  0.00  0.00     0.000 OA
ATOM     36   O  A00 X   2      35.306  81.347  60.5920  0.00  0.00     0.000 O
ATOM     37   O  A00 X   2      37.406  80.323  60.6840  0.00  0.00     0.000 OA
ATOM     38   S  A00 X   2      36.589  81.024  59.7420  0.00  0.00     0.000 S
ATOM     39   O  A00 X   2      36.139  80.304  58.5880  0.00  0.00     0.000 OA
ENDBRANCH 24 34
BRANCH 20 40
ATOM     40  O4  A00 X   3      35.228  77.995  63.9390  0.00  0.00     0.000 O
BRANCH 40 44
ATOM     41  C1  A00 X   3      35.339  75.337  61.4800  0.00  0.00     0.000 C
ATOM     42  C2  A00 X   3      34.897  75.159  62.9490  0.00  0.00     0.000 C
ATOM     43  C3  A00 X   3      35.946  75.758  63.9210  0.00  0.00     0.000 C
ATOM     44  C4  A00 X   3      36.371  77.184  63.5930  0.00  0.00     0.000 C
ATOM     45  C5  A00 X   3      36.805  77.281  62.1030  0.00  0.00     0.000 C
ATOM     46  O5  A00 X   3      35.791  76.695  61.2240  0.00  0.00     0.000 O
ATOM     47   O  A00 X   3      35.684  75.575  65.3110  0.00  0.00     0.000 O
ATOM     49  HD  A00 X   3      35.992  76.382  65.3600  0.00  0.00     0.000 HD
BRANCH 42 49
ATOM     49   O  A00 X   3      33.616  75.812  63.0870  0.00  0.00     0.000 O
ATOM     50   O  A00 X   3      32.062  76.221  64.8620  0.00  0.00     0.000 OA
ATOM     51   O  A00 X   3      33.104  74.104  64.7230  0.00  0.00     0.000 OA
ATOM     52   O  A00 X   3      31.546  74.704  63.0510  0.00  0.00     0.000 OA
ATOM     53   S  A00 X   3      32.507  75.186  63.9820  0.00  0.00     0.000 S
ENDBRANCH 42 49
BRANCH 45 54
ATOM     54   C  A00 X   3      38.206  76.697  61.8810  0.00  0.00     0.000 C
ATOM     55   O  A00 X   3      38.775  76.841  60.8190  0.00  0.00     0.000 OA
ATOM     56   O  A00 X   3      38.773  76.077  62.7680  0.00  0.00     0.000 OA
ENDBRANCH 45 54
BRANCH 41 57
ATOM     57  O4  A00 X   4      36.282  74.318  61.0800  0.00  0.00     0.000 O
BRANCH 57 61
ATOM     58  C1  A00 X   4      37.051  72.337  57.3220  0.00  0.00     0.000 C
ATOM     59  C2  A00 X   4      37.254  73.870  57.4070  0.00  0.00     0.000 C
ATOM     60  C3  A00 X   4      37.303  74.405  58.8520  0.00  0.00     0.000 C
ATOM     61  C4  A00 X   4      36.143  73.851  59.7080  0.00  0.00     0.000 C
ATOM     62  C5  A00 X   4      36.258  72.308  59.6520  0.00  0.00     0.000 C
ATOM     63  O5  A00 X   4      36.079  71.865  58.2830  0.00  0.00     0.000 O
BRANCH 59 66
ATOM     64   N  A00 X   4      37.851  75.074  56.8000  0.00  0.00     0.000 N
ATOM     66  HD  A00 X   4      37.442  75.827  56.9200  0.00  0.00     0.000 HD
ATOM     66   O  A00 X   4      37.214  74.187  54.6540  0.00  0.00     0.000 OA
ATOM     67   S  A00 X   4      38.198  75.043  55.2390  0.00  0.00     0.000 S
ATOM     68   O  A00 X   4      38.074  76.435  54.9190  0.00  0.00     0.000 OA
ATOM     69   O  A00 X   4      39.552  74.569  55.2900  0.00  0.00     0.000 OA
ENDBRANCH 59 66
BRANCH 62 70
ATOM     70   C  A00 X   4      35.237  71.565  60.5470  0.00  0.00     0.000 C
ATOM     71   O  A00 X   4      31.647  71.318  60.1560  0.00  0.00     0.000 OA
ATOM     72   O  A00 X   4      32.950  71.879  62.0350  0.00  0.00     0.000 OA
ATOM     73   O  A00 X   4      33.964  71.525  59.8820  0.00  0.00     0.000 O
ATOM     74   O  A00 X   4      32.647  73.510  60.2490  0.00  0.00     0.000 OA
ATOM     75   S  A00 X   4      32.728  72.136  60.6290  0.00  0.00     0.000 S
ENDBRANCH 62 70
ENDBRANCH 57 61
ENDBRANCH 41 57
ENDBRANCH 40 44
ENDBRANCH 20 40
ENDBRANCH 19 23
ENDBRANCH 1 19
TORSDOF 14
ENDMDL
MODEL 96
REMARK VINA RESULT:      -0.2     73.633     78.005
ROOT
ATOM      1  C1  A00 X   1      31.354  78.695  62.1550  0.00  0.00     0.000 C
ATOM      2  C2  A00 X   1      30.013  79.236  62.7200  0.00  0.00     0.000 C
ATOM      3  C3  A00 X   1      28.715  78.539  62.1930  0.00  0.00     0.000 C
ATOM      4  C4  A00 X   1      28.893  77.666  60.9240  0.00  0.00     0.000 C
ATOM      5  C5  A00 X   1      30.129  78.064  60.1180  0.00  0.00     0.000 C
ATOM      6  O5  A00 X   1      31.242  77.818  61.0070  0.00  0.00     0.000 O
ATOM      7   O  A00 X   1      27.759  79.544  61.8630  0.00  0.00     0.000 O
ATOM      9  HD  A00 X   1      27.723  78.943  61.2400  0.00  0.00     0.000 HD
ATOM      9   O  A00 X   1      28.955  76.278  61.2500  0.00  0.00     0.000 O
ATOM     11  HD  A00 X   1      28.920  75.678  60.6270  0.00  0.00     0.000 HD
ENDROOT
BRANCH 2 11
ATOM     11   O  A00 X   1      30.061  79.116  64.1550  0.00  0.00     0.000 O
ATOM     12   O  A00 X   1      28.148  79.572  65.5320  0.00  0.00     0.000 OA
ATOM     13   O  A00 X   1      29.135  81.374  64.2300  0.00  0.00     0.000 OA
ATOM     14   O  A00 X   1      30.314  80.430  66.0670  0.00  0.00     0.000 OA
ATOM     15   S  A00 X   1      29.345  80.200  65.0310  0.00  0.00     0.000 S
ENDBRANCH 2 11
BRANCH 5 16
ATOM     16   C  A00 X   1      30.102  79.487  59.5500  0.00  0.00     0.000 C
ATOM     17   O  A00 X   1      31.122  79.943  59.0760  0.00  0.00     0.000 OA
ATOM     18   O  A00 X   1      29.097  80.170  59.5500  0.00  0.00     0.000 OA
ENDBRANCH 5 16
BRANCH 1 19
ATOM     19  O4  A00 X   2      32.329  79.741  61.9270  0.00  0.00     0.000 O
BRANCH 19 23
ATOM     20  C1  A00 X   2      35.634  77.388  63.3060  0.00  0.00     0.000 C
ATOM     21  C2  A00 X   2      34.997  78.381  64.3080  0.00  0.00     0.000 C
ATOM     22  C3  A00 X   2      33.596  78.818  63.8320  0.00  0.00     0.000 C
ATOM     23  C4  A00 X   2      33.660  79.376  62.3920  0.00  0.00     0.000 C
ATOM     24  C5  A00 X   2      34.332  78.300  61.4960  0.00  0.00     0.000 C
ATOM     25  O5  A00 X   2      35.664  78.033  62.0050  0.00  0.00     0.000 O
ATOM     26   O  A00 X   2      33.020  79.683  64.8260  0.00  0.00     0.000 O
ATOM     28  HD  A00 X   2      33.723  80.188  64.8660  0.00  0.00     0.000 HD
BRANCH 21 30
ATOM     28   N  A00 X   2      36.330  78.602  64.8780  0.00  0.00     0.000 N
ATOM     30  HD  A00 X   2      35.758  78.913  65.4490  0.00  0.00     0.000 HD
ATOM     30   O  A00 X   2      36.080  79.061  67.1550  0.00  0.00     0.000 OA
ATOM     31   S  A00 X   2      36.509  79.725  65.9750  0.00  0.00     0.000 S
ATOM     32   O  A00 X   2      37.906  80.028  65.9260  0.00  0.00     0.000 OA
ATOM     33   O  A00 X   2      35.740  80.858  65.5520  0.00  0.00     0.000 OA
ENDBRANCH 21 30
BRANCH 24 34
ATOM     34   C  A00 X   2      34.310  78.515  59.9640  0.00  0.00     0.000 C
ATOM     35   O  A00 X   2      37.294  78.932  57.9200  0.00  0.00     0.000 OA
ATOM     36   O  A00 X   2      35.582  78.996  59.4860  0.00  0.00     0.000 O
ATOM     37   O  A00 X   2      36.911  77.077  59.3370  0.00  0.00     0.000 OA
ATOM     38   S  A00 X   2      36.318  78.049  58.4690  0.00  0.00     0.000 S
ATOM     39   O  A00 X   2      35.323  77.594  57.5460  0.00  0.00     0.000 OA
ENDBRANCH 24 34
BRANCH 20 40
ATOM     40  O4  A00 X   3      34.748  76.260  63.2620  0.00  0.00     0.000 O
BRANCH 40 44
ATOM     41  C1  A00 X   3      33.009  73.788  61.2650  0.00  0.00     0.000 C
ATOM     42  C2  A00 X   3      32.902  73.913  62.8000  0.00  0.00     0.000 C
ATOM     43  C3  A00 X   3      34.307  73.960  63.4530  0.00  0.00     0.000 C
ATOM     44  C4  A00 X   3      35.258  74.978  62.8360  0.00  0.00     0.000 C
ATOM     45  C5  A00 X   3      35.316  74.786  61.2940  0.00  0.00     0.000 C
ATOM     46  O5  A00 X   3      33.969  74.737  60.7230  0.00  0.00     0.000 O
ATOM     47   O  A00 X   3      34.332  73.988  64.8790  0.00  0.00     0.000 O
ATOM     49  HD  A00 X   3      34.984  74.541  64.7450  0.00  0.00     0.000 HD
BRANCH 42 49
ATOM     49   O  A00 X   3      32.151  75.116  63.0760  0.00  0.00     0.000 O
ATOM     50   O  A00 X   3      31.446  76.310  65.0270  0.00  0.00     0.000 OA
ATOM     51   O  A00 X   3      31.308  73.949  65.0210  0.00  0.00     0.000 OA
ATOM     52   O  A00 X   3      29.863  75.167  63.6010  0.00  0.00     0.000 OA
ATOM     53   S  A00 X   3      31.129  75.154  64.2490  0.00  0.00     0.000 S
ENDBRANCH 42 49
BRANCH 45 54
ATOM     54   C  A00 X   3      36.181  73.581  60.9040  0.00  0.00     0.000 C
ATOM     55   O  A00 X   3      36.478  73.382  59.7440  0.00  0.00     0.000 OA
ATOM     56   O  A00 X   3      36.585  72.801  61.7530  0.00  0.00     0.000 OA
ENDBRANCH 45 54
BRANCH 41 57
ATOM     57  O4  A00 X   4      33.238  72.421  60.8550  0.00  0.00     0.000 O
BRANCH 57 61
ATOM     58  C1  A00 X   4      32.064  70.161  57.3700  0.00  0.00     0.000 C
ATOM     59  C2  A00 X   4      32.975  71.399  57.1780  0.00  0.00     0.000 C
ATOM     60  C3  A00 X   4      33.613  71.901  58.4890  0.00  0.00     0.000 C
ATOM     61  C4  A00 X   4      32.573  72.025  59.6220  0.00  0.00     0.000 C
ATOM     62  C5  A00 X   4      31.935  70.623  59.7840  0.00  0.00     0.000 C
ATOM     63  O5  A00 X   4      31.247  70.268  58.5570  0.00  0.00     0.000 O
BRANCH 59 66
ATOM     64   N  A00 X   4      33.902  72.127  56.2920  0.00  0.00     0.000 N
ATOM     66  HD  A00 X   4      33.935  72.989  56.3700  0.00  0.00     0.000 HD
ATOM     66   O  A00 X   4      32.430  71.577  54.4670  0.00  0.00     0.000 OA
ATOM     67   S  A00 X   4      33.808  71.864  54.7170  0.00  0.00     0.000 S
ATOM     68   O  A00 X   4      34.278  73.122  54.2160  0.00  0.00     0.000 OA
ATOM     69   O  A00 X   4      34.751  70.789  54.5840  0.00  0.00     0.000 OA
ENDBRANCH 59 66
BRANCH 62 70
ATOM     70   C  A00 X   4      30.933  70.516  60.9580  0.00  0.00     0.000 C
ATOM     71   O  A00 X   4      27.670  72.047  61.2940  0.00  0.00     0.000 OA
ATOM     72   O  A00 X   4      29.491  71.975  62.7850  0.00  0.00     0.000 OA
ATOM     73   O  A00 X   4      29.672  71.079  60.5600  0.00  0.00     0.000 O
ATOM     74   O  A00 X   4      29.570  73.467  60.8590  0.00  0.00     0.000 OA
ATOM     75   S  A00 X   4      29.086  72.249  61.4240  0.00  0.00     0.000 S
ENDBRANCH 62 70
ENDBRANCH 57 61
ENDBRANCH 41 57
ENDBRANCH 40 44
ENDBRANCH 20 40
ENDBRANCH 19 23
ENDBRANCH 1 19
TORSDOF 14
ENDMDL
MODEL 97
REMARK VINA RESULT:      -0.2    107.327    111.001
ROOT
ATOM      1  C1  A00 X   1      54.635  86.327  96.0950  0.00  0.00     0.000 C
ATOM      2  C2  A00 X   1      54.895  84.797  96.0700  0.00  0.00     0.000 C
ATOM      3  C3  A00 X   1      54.699  84.045  97.4280  0.00  0.00     0.000 C
ATOM      4  C4  A00 X   1      54.634  84.945  98.6880  0.00  0.00     0.000 C
ATOM      5  C5  A00 X   1      55.300  86.303  98.4630  0.00  0.00     0.000 C
ATOM      6  O5  A00 X   1      54.525  86.922  97.4120  0.00  0.00     0.000 O
ATOM      7   O  A00 X   1      55.798  83.157  97.6210  0.00  0.00     0.000 O
ATOM      9  HD  A00 X   1      55.632  83.527  98.3860  0.00  0.00     0.000 HD
ATOM      9   O  A00 X   1      53.289  85.135  99.1250  0.00  0.00     0.000 O
ATOM     11  HD  A00 X   1      53.123  85.505  99.8900  0.00  0.00     0.000 HD
ENDROOT
BRANCH 2 11
ATOM     11   O  A00 X   1      54.019  84.220  95.0830  0.00  0.00     0.000 O
ATOM     12   O  A00 X   1      53.818  81.844  94.7980  0.00  0.00     0.000 OA
ATOM     13   O  A00 X   1      55.950  82.921  94.3400  0.00  0.00     0.000 OA
ATOM     14   O  A00 X   1      54.074  83.314  92.9320  0.00  0.00     0.000 OA
ATOM     15   S  A00 X   1      54.517  82.983  94.2590  0.00  0.00     0.000 S
ENDBRANCH 2 11
BRANCH 5 16
ATOM     16   C  A00 X   1      56.802  86.246  98.1640  0.00  0.00     0.000 C
ATOM     17   O  A00 X   1      57.411  85.232  98.4360  0.00  0.00     0.000 OA
ATOM     18   O  A00 X   1      57.402  87.174  97.6600  0.00  0.00     0.000 OA
ENDBRANCH 5 16
BRANCH 1 19
ATOM     19  O4  A00 X   2      55.557  87.067  95.2570  0.00  0.00     0.000 O
BRANCH 19 23
ATOM     20  C1  A00 X   2      52.561  89.791  93.8530  0.00  0.00     0.000 C
ATOM     21  C2  A00 X   2      52.938  88.606  92.9310  0.00  0.00     0.000 C
ATOM     22  C3  A00 X   2      53.675  87.506  93.7230  0.00  0.00     0.000 C
ATOM     23  C4  A00 X   2      54.892  88.096  94.4700  0.00  0.00     0.000 C
ATOM     24  C5  A00 X   2      54.388  89.280  95.3390  0.00  0.00     0.000 C
ATOM     25  O5  A00 X   2      53.784  90.274  94.4710  0.00  0.00     0.000 O
ATOM     26   O  A00 X   2      53.941  86.402  92.8420  0.00  0.00     0.000 O
ATOM     28  HD  A00 X   2      54.290  86.908  92.2320  0.00  0.00     0.000 HD
BRANCH 21 30
ATOM     28   N  A00 X   2      52.720  89.483  91.7760  0.00  0.00     0.000 N
ATOM     30  HD  A00 X   2      52.733  88.671  91.4750  0.00  0.00     0.000 HD
ATOM     30   O  A00 X   2      51.945  88.173  90.0040  0.00  0.00     0.000 OA
ATOM     31   S  A00 X   2      53.089  88.946  90.3360  0.00  0.00     0.000 S
ATOM     32   O  A00 X   2      53.257  90.138  89.5630  0.00  0.00     0.000 OA
ATOM     33   O  A00 X   2      54.334  88.247  90.4500  0.00  0.00     0.000 OA
ENDBRANCH 21 30
BRANCH 24 34
ATOM     34   C  A00 X   2      55.369  89.899  96.3630  0.00  0.00     0.000 C
ATOM     35   O  A00 X   2      58.603  91.324  95.4850  0.00  0.00     0.000 OA
ATOM     36   O  A00 X   2      56.686  90.052  95.7970  0.00  0.00     0.000 O
ATOM     37   O  A00 X   2      56.551  92.015  94.5320  0.00  0.00     0.000 OA
ATOM     38   S  A00 X   2      57.209  91.532  95.7070  0.00  0.00     0.000 S
ATOM     39   O  A00 X   2      56.880  92.154  96.9540  0.00  0.00     0.000 OA
ENDBRANCH 24 34
BRANCH 20 40
ATOM     40  O4  A00 X   3      51.700  89.240  94.8600  0.00  0.00     0.000 O
BRANCH 40 44
ATOM     41  C1  A00 X   3      50.983  89.067  98.4060  0.00  0.00     0.000 C
ATOM     42  C2  A00 X   3      50.228  88.275  97.3160  0.00  0.00     0.000 C
ATOM     43  C3  A00 X   3      49.754  89.214  96.1770  0.00  0.00     0.000 C
ATOM     44  C4  A00 X   3      50.839  90.122  95.6120  0.00  0.00     0.000 C
ATOM     45  C5  A00 X   3      51.547  90.886  96.7660  0.00  0.00     0.000 C
ATOM     46  O5  A00 X   3      51.968  89.964  97.8230  0.00  0.00     0.000 O
ATOM     47   O  A00 X   3      48.969  88.605  95.1540  0.00  0.00     0.000 O
ATOM     49  HD  A00 X   3      49.431  89.129  94.6430  0.00  0.00     0.000 HD
BRANCH 42 49
ATOM     49   O  A00 X   3      51.134  87.263  96.8240  0.00  0.00     0.000 O
ATOM     50   O  A00 X   3      51.088  85.572  95.1310  0.00  0.00     0.000 OA
ATOM     51   O  A00 X   3      49.163  85.907  96.4620  0.00  0.00     0.000 OA
ATOM     52   O  A00 X   3      51.096  85.010  97.4830  0.00  0.00     0.000 OA
ATOM     53   S  A00 X   3      50.603  85.850  96.4470  0.00  0.00     0.000 S
ENDBRANCH 42 49
BRANCH 45 54
ATOM     54   C  A00 X   3      50.693  92.049  97.2850  0.00  0.00     0.000 C
ATOM     55   O  A00 X   3      51.186  92.921  97.9710  0.00  0.00     0.000 OA
ATOM     56   O  A00 X   3      49.503  92.118  97.0200  0.00  0.00     0.000 OA
ENDBRANCH 45 54
BRANCH 41 57
ATOM     57  O4  A00 X   4      50.072  89.712  99.3240  0.00  0.00     0.000 O
BRANCH 57 61
ATOM     58  C1  A00 X   4      50.363  90.822 103.4860  0.00  0.00     0.000 C
ATOM     59  C2  A00 X   4      51.064  91.713 102.4310  0.00  0.00     0.000 C
ATOM     60  C3  A00 X   4      50.600  91.435 100.9860  0.00  0.00     0.000 C
ATOM     61  C4  A00 X   4      50.595  89.925 100.6660  0.00  0.00     0.000 C
ATOM     62  C5  A00 X   4      49.668  89.261 101.7150  0.00  0.00     0.000 C
ATOM     63  O5  A00 X   4      50.229  89.454 103.0380  0.00  0.00     0.000 O
BRANCH 59 66
ATOM     64   N  A00 X   4      52.513  91.445 102.4440  0.00  0.00     0.000 N
ATOM     66  HD  A00 X   4      52.772  90.659 102.7000  0.00  0.00     0.000 HD
ATOM     66   O  A00 X   4      52.673  92.953 104.3150  0.00  0.00     0.000 OA
ATOM     67   S  A00 X   4      53.465  92.463 103.2300  0.00  0.00     0.000 S
ATOM     68   O  A00 X   4      54.537  91.584 103.5960  0.00  0.00     0.000 OA
ATOM     69   O  A00 X   4      53.787  93.376 102.1710  0.00  0.00     0.000 OA
ENDBRANCH 59 66
BRANCH 62 70
ATOM     70   C  A00 X   4      49.445  87.746 101.4920  0.00  0.00     0.000 C
ATOM     71   O  A00 X   4      51.287  84.959 102.8870  0.00  0.00     0.000 OA
ATOM     72   O  A00 X   4      50.656  85.423 100.6660  0.00  0.00     0.000 OA
ATOM     73   O  A00 X   4      50.242  87.005 102.4300  0.00  0.00     0.000 O
ATOM     74   O  A00 X   4      52.503  86.653 101.6750  0.00  0.00     0.000 OA
ATOM     75   S  A00 X   4      51.267  85.964 101.8610  0.00  0.00     0.000 S
ENDBRANCH 62 70
ENDBRANCH 57 61
ENDBRANCH 41 57
ENDBRANCH 40 44
ENDBRANCH 20 40
ENDBRANCH 19 23
ENDBRANCH 1 19
TORSDOF 14
ENDMDL
MODEL 98
REMARK VINA RESULT:      -0.2     71.781     75.779
ROOT
ATOM      1  C1  A00 X   1       5.548  82.614  29.1030  0.00  0.00     0.000 C
ATOM      2  C2  A00 X   1       6.097  83.357  27.8550  0.00  0.00     0.000 C
ATOM      3  C3  A00 X   1       7.474  84.076  28.0340  0.00  0.00     0.000 C
ATOM      4  C4  A00 X   1       7.939  84.274  29.5000  0.00  0.00     0.000 C
ATOM      5  C5  A00 X   1       6.772  84.237  30.4860  0.00  0.00     0.000 C
ATOM      6  O5  A00 X   1       6.221  82.908  30.3520  0.00  0.00     0.000 O
ATOM      7   O  A00 X   1       7.389  85.377  27.4570  0.00  0.00     0.000 O
ATOM      9  HD  A00 X   1       7.826  85.456  28.2010  0.00  0.00     0.000 HD
ATOM      9   O  A00 X   1       8.917  83.303  29.8730  0.00  0.00     0.000 O
ATOM     11  HD  A00 X   1       9.354  83.382  30.6160  0.00  0.00     0.000 HD
ENDROOT
BRANCH 2 11
ATOM     11   O  A00 X   1       6.204  82.398  26.7850  0.00  0.00     0.000 O
ATOM     12   O  A00 X   1       7.239  82.944  24.6880  0.00  0.00     0.000 OA
ATOM     13   O  A00 X   1       5.205  84.103  25.3500  0.00  0.00     0.000 OA
ATOM     14   O  A00 X   1       5.148  81.791  24.7940  0.00  0.00     0.000 OA
ATOM     15   S  A00 X   1       5.943  82.870  25.3140  0.00  0.00     0.000 S
ENDBRANCH 2 11
BRANCH 5 16
ATOM     16   C  A00 X   1       5.736  85.352  30.3060  0.00  0.00     0.000 C
ATOM     17   O  A00 X   1       6.044  86.332  29.6600  0.00  0.00     0.000 OA
ATOM     18   O  A00 X   1       4.619  85.286  30.7800  0.00  0.00     0.000 OA
ENDBRANCH 5 16
BRANCH 1 19
ATOM     19  O4  A00 X   2       4.111  82.728  29.2370  0.00  0.00     0.000 O
BRANCH 19 23
ATOM     20  C1  A00 X   2       3.611  78.676  30.5410  0.00  0.00     0.000 C
ATOM     21  C2  A00 X   2       3.327  78.987  29.0520  0.00  0.00     0.000 C
ATOM     22  C3  A00 X   2       3.952  80.338  28.6440  0.00  0.00     0.000 C
ATOM     23  C4  A00 X   2       3.481  81.463  29.5920  0.00  0.00     0.000 C
ATOM     24  C5  A00 X   2       3.803  81.024  31.0470  0.00  0.00     0.000 C
ATOM     25  O5  A00 X   2       3.101  79.786  31.3280  0.00  0.00     0.000 O
ATOM     26   O  A00 X   2       3.720  80.548  27.2400  0.00  0.00     0.000 O
ATOM     28  HD  A00 X   2       2.873  80.379  27.3030  0.00  0.00     0.000 HD
BRANCH 21 30
ATOM     28   N  A00 X   2       2.265  77.977  29.0810  0.00  0.00     0.000 N
ATOM     30  HD  A00 X   2       2.434  78.139  28.2470  0.00  0.00     0.000 HD
ATOM     30   O  A00 X   2       2.128  77.004  26.9610  0.00  0.00     0.000 OA
ATOM     31   S  A00 X   2       1.335  77.817  27.8130  0.00  0.00     0.000 S
ATOM     32   O  A00 X   2       0.161  77.185  28.3320  0.00  0.00     0.000 OA
ATOM     33   O  A00 X   2       1.024  79.136  27.3480  0.00  0.00     0.000 OA
ENDBRANCH 21 30
BRANCH 24 34
ATOM     34   C  A00 X   2       3.641  82.071  32.1740  0.00  0.00     0.000 C
ATOM     35   O  A00 X   2       0.532  83.820  32.9020  0.00  0.00     0.000 OA
ATOM     36   O  A00 X   2       2.434  82.841  32.0020  0.00  0.00     0.000 O
ATOM     37   O  A00 X   2       0.742  81.465  32.8480  0.00  0.00     0.000 OA
ATOM     38   S  A00 X   2       1.382  82.706  33.1630  0.00  0.00     0.000 S
ATOM     39   O  A00 X   2       2.120  82.779  34.3890  0.00  0.00     0.000 OA
ENDBRANCH 24 34
BRANCH 20 40
ATOM     40  O4  A00 X   3       5.040  78.620  30.6600  0.00  0.00     0.000 O
BRANCH 40 44
ATOM     41  C1  A00 X   3       7.924  79.695  32.5710  0.00  0.00     0.000 C
ATOM     42  C2  A00 X   3       7.989  78.863  31.2720  0.00  0.00     0.000 C
ATOM     43  C3  A00 X   3       7.054  77.630  31.3550  0.00  0.00     0.000 C
ATOM     44  C4  A00 X   3       5.629  77.944  31.7920  0.00  0.00     0.000 C
ATOM     45  C5  A00 X   3       5.646  78.776  33.1050  0.00  0.00     0.000 C
ATOM     46  O5  A00 X   3       6.548  79.923  32.9850  0.00  0.00     0.000 O
ATOM     47   O  A00 X   3       7.098  76.739  30.2420  0.00  0.00     0.000 O
ATOM     49  HD  A00 X   3       6.244  76.702  30.3810  0.00  0.00     0.000 HD
BRANCH 42 49
ATOM     49   O  A00 X   3       7.611  79.741  30.1890  0.00  0.00     0.000 O
ATOM     50   O  A00 X   3       7.286  79.535  27.8260  0.00  0.00     0.000 OA
ATOM     51   O  A00 X   3       9.129  78.441  28.8230  0.00  0.00     0.000 OA
ATOM     52   O  A00 X   3       9.128  80.803  28.7450  0.00  0.00     0.000 OA
ATOM     53   S  A00 X   3       8.320  79.635  28.8070  0.00  0.00     0.000 S
ENDBRANCH 42 49
BRANCH 45 54
ATOM     54   C  A00 X   3       5.942  77.900  34.3280  0.00  0.00     0.000 C
ATOM     55   O  A00 X   3       6.411  76.788  34.1940  0.00  0.00     0.000 OA
ATOM     56   O  A00 X   3       5.711  78.304  35.4570  0.00  0.00     0.000 OA
ENDBRANCH 45 54
BRANCH 41 57
ATOM     57  O4  A00 X   4       8.763  79.135  33.6060  0.00  0.00     0.000 O
BRANCH 57 61
ATOM     58  C1  A00 X   4      10.890  80.861  36.9430  0.00  0.00     0.000 C
ATOM     59  C2  A00 X   4       9.361  80.650  37.0680  0.00  0.00     0.000 C
ATOM     60  C3  A00 X   4       8.779  79.716  35.9880  0.00  0.00     0.000 C
ATOM     61  C4  A00 X   4       9.272  80.095  34.5750  0.00  0.00     0.000 C
ATOM     62  C5  A00 X   4      10.819  80.038  34.6240  0.00  0.00     0.000 C
ATOM     63  O5  A00 X   4      11.304  81.028  35.5680  0.00  0.00     0.000 O
BRANCH 59 66
ATOM     64   N  A00 X   4       8.669  81.940  36.8950  0.00  0.00     0.000 N
ATOM     66  HD  A00 X   4       9.062  82.543  36.4130  0.00  0.00     0.000 HD
ATOM     66   O  A00 X   4       9.137  82.388  39.2150  0.00  0.00     0.000 OA
ATOM     67   S  A00 X   4       8.182  82.720  38.2040  0.00  0.00     0.000 S
ATOM     68   O  A00 X   4       8.228  84.073  37.7320  0.00  0.00     0.000 OA
ATOM     69   O  A00 X   4       6.855  82.188  38.3360  0.00  0.00     0.000 OA
ENDBRANCH 59 66
BRANCH 62 70
ATOM     70   C  A00 X   4      11.505  80.284  33.2590  0.00  0.00     0.000 C
ATOM     71   O  A00 X   4      12.707  83.400  31.8600  0.00  0.00     0.000 OA
ATOM     72   O  A00 X   4      11.346  81.722  30.9240  0.00  0.00     0.000 OA
ATOM     73   O  A00 X   4      12.033  81.620  33.2270  0.00  0.00     0.000 O
ATOM     74   O  A00 X   4      10.403  83.263  32.5590  0.00  0.00     0.000 OA
ATOM     75   S  A00 X   4      11.554  82.571  32.0760  0.00  0.00     0.000 S
ENDBRANCH 62 70
ENDBRANCH 57 61
ENDBRANCH 41 57
ENDBRANCH 40 44
ENDBRANCH 20 40
ENDBRANCH 19 23
ENDBRANCH 1 19
TORSDOF 14
ENDMDL
MODEL 99
REMARK VINA RESULT:      -0.2    126.817    130.675
ROOT
ATOM      1  C1  A00 X   1      77.826 105.789  86.7230  0.00  0.00     0.000 C
ATOM      2  C2  A00 X   1      77.858 104.284  87.1020  0.00  0.00     0.000 C
ATOM      3  C3  A00 X   1      76.783 103.380  86.4140  0.00  0.00     0.000 C
ATOM      4  C4  A00 X   1      75.607 104.133  85.7410  0.00  0.00     0.000 C
ATOM      5  C5  A00 X   1      75.414 105.535  86.3180  0.00  0.00     0.000 C
ATOM      6  O5  A00 X   1      76.643 106.231  86.0120  0.00  0.00     0.000 O
ATOM      7   O  A00 X   1      76.205 102.526  87.3990  0.00  0.00     0.000 O
ATOM      9  HD  A00 X   1      75.561 102.803  86.8920  0.00  0.00     0.000 HD
ATOM      9   O  A00 X   1      75.780 104.213  84.3260  0.00  0.00     0.000 O
ATOM     11  HD  A00 X   1      75.135 104.490  83.8190  0.00  0.00     0.000 HD
ENDROOT
BRANCH 2 11
ATOM     11   O  A00 X   1      79.169 103.779  86.7830  0.00  0.00     0.000 O
ATOM     12   O  A00 X   1      79.697 101.441  86.9180  0.00  0.00     0.000 OA
ATOM     13   O  A00 X   1      79.100 102.645  88.9450  0.00  0.00     0.000 OA
ATOM     14   O  A00 X   1      81.147 103.110  87.8270  0.00  0.00     0.000 OA
ATOM     15   S  A00 X   1      79.790 102.657  87.6850  0.00  0.00     0.000 S
ENDBRANCH 2 11
BRANCH 5 16
ATOM     16   C  A00 X   1      75.039 105.579  87.8030  0.00  0.00     0.000 C
ATOM     17   O  A00 X   1      75.079 106.645  88.3810  0.00  0.00     0.000 OA
ATOM     18   O  A00 X   1      74.696 104.589  88.4180  0.00  0.00     0.000 OA
ENDBRANCH 5 16
BRANCH 1 19
ATOM     19  O4  A00 X   2      78.123 106.656  87.8450  0.00  0.00     0.000 O
BRANCH 19 23
ATOM     20  C1  A00 X   2      80.449 109.395  85.5090  0.00  0.00     0.000 C
ATOM     21  C2  A00 X   2      81.212 108.314  86.3130  0.00  0.00     0.000 C
ATOM     22  C3  A00 X   2      80.264 107.171  86.7340  0.00  0.00     0.000 C
ATOM     23  C4  A00 X   2      79.040 107.731  87.4930  0.00  0.00     0.000 C
ATOM     24  C5  A00 X   2      78.378 108.811  86.5940  0.00  0.00     0.000 C
ATOM     25  O5  A00 X   2      79.346 109.860  86.3330  0.00  0.00     0.000 O
ATOM     26   O  A00 X   2      81.031 106.164  87.4150  0.00  0.00     0.000 O
ATOM     28  HD  A00 X   2      81.404 106.736  87.9470  0.00  0.00     0.000 HD
BRANCH 21 30
ATOM     28   N  A00 X   2      82.288 109.288  86.5220  0.00  0.00     0.000 N
ATOM     30  HD  A00 X   2      82.612 108.509  86.7180  0.00  0.00     0.000 HD
ATOM     30   O  A00 X   2      84.309 108.122  86.6420  0.00  0.00     0.000 OA
ATOM     31   S  A00 X   2      83.479 108.905  87.4880  0.00  0.00     0.000 S
ATOM     32   O  A00 X   2      84.027 110.170  87.8680  0.00  0.00     0.000 OA
ATOM     33   O  A00 X   2      82.908 108.248  88.6260  0.00  0.00     0.000 OA
ENDBRANCH 21 30
BRANCH 24 34
ATOM     34   C  A00 X   2      76.998 109.365  87.0220  0.00  0.00     0.000 C
ATOM     35   O  A00 X   2      76.379 112.846  87.8930  0.00  0.00     0.000 OA
ATOM     36   O  A00 X   2      77.125 110.663  87.6380  0.00  0.00     0.000 O
ATOM     37   O  A00 X   2      77.315 112.144  85.8380  0.00  0.00     0.000 OA
ATOM     38   S  A00 X   2      76.393 111.835  86.8880  0.00  0.00     0.000 S
ATOM     39   O  A00 X   2      75.105 111.334  86.5130  0.00  0.00     0.000 OA
ENDBRANCH 24 34
BRANCH 20 40
ATOM     40  O4  A00 X   3      79.932 108.724  84.3500  0.00  0.00     0.000 O
BRANCH 40 44
ATOM     41  C1  A00 X   3      77.160 108.187  82.0800  0.00  0.00     0.000 C
ATOM     42  C2  A00 X   3      78.525 107.470  81.9890  0.00  0.00     0.000 C
ATOM     43  C3  A00 X   3      79.692 108.489  82.0250  0.00  0.00     0.000 C
ATOM     44  C4  A00 X   3      79.621 109.493  83.1690  0.00  0.00     0.000 C
ATOM     45  C5  A00 X   3      78.224 110.176  83.1920  0.00  0.00     0.000 C
ATOM     46  O5  A00 X   3      77.153 109.177  83.1460  0.00  0.00     0.000 O
ATOM     47   O  A00 X   3      81.000 107.945  81.8600  0.00  0.00     0.000 O
ATOM     49  HD  A00 X   3      81.199 108.534  82.4620  0.00  0.00     0.000 HD
BRANCH 42 49
ATOM     49   O  A00 X   3      78.593 106.549  83.1000  0.00  0.00     0.000 O
ATOM     50   O  A00 X   3      80.205 105.013  83.9800  0.00  0.00     0.000 OA
ATOM     51   O  A00 X   3      79.908 105.138  81.6370  0.00  0.00     0.000 OA
ATOM     52   O  A00 X   3      78.156 104.247  82.9490  0.00  0.00     0.000 OA
ATOM     53   S  A00 X   3      79.253 105.150  82.9220  0.00  0.00     0.000 S
ENDBRANCH 42 49
BRANCH 45 54
ATOM     54   C  A00 X   3      78.098 111.246  82.1010  0.00  0.00     0.000 C
ATOM     55   O  A00 X   3      78.978 111.399  81.2790  0.00  0.00     0.000 OA
ATOM     56   O  A00 X   3      77.112 111.965  82.0420  0.00  0.00     0.000 OA
ENDBRANCH 45 54
BRANCH 41 57
ATOM     57  O4  A00 X   4      76.742 108.704  80.7970  0.00  0.00     0.000 O
BRANCH 57 61
ATOM     58  C1  A00 X   4      72.875 109.170  78.9340  0.00  0.00     0.000 C
ATOM     59  C2  A00 X   4      73.168 109.949  80.2400  0.00  0.00     0.000 C
ATOM     60  C3  A00 X   4      74.665 109.992  80.6090  0.00  0.00     0.000 C
ATOM     61  C4  A00 X   4      75.316 108.595  80.5220  0.00  0.00     0.000 C
ATOM     62  C5  A00 X   4      75.086 108.096  79.0740  0.00  0.00     0.000 C
ATOM     63  O5  A00 X   4      73.661 107.960  78.8370  0.00  0.00     0.000 O
BRANCH 59 66
ATOM     64   N  A00 X   4      72.777 111.112  81.0580  0.00  0.00     0.000 N
ATOM     66  HD  A00 X   4      72.955 111.083  81.9050  0.00  0.00     0.000 HD
ATOM     66   O  A00 X   4      70.486 110.446  80.7310  0.00  0.00     0.000 OA
ATOM     67   S  A00 X   4      71.263 111.621  80.9760  0.00  0.00     0.000 S
ATOM     68   O  A00 X   4      71.113 112.197  82.2800  0.00  0.00     0.000 OA
ATOM     69   O  A00 X   4      71.375 112.583  79.9170  0.00  0.00     0.000 OA
ENDBRANCH 59 66
BRANCH 62 70
ATOM     70   C  A00 X   4      75.768 106.744  78.7550  0.00  0.00     0.000 C
ATOM     71   O  A00 X   4      74.935 103.444  79.9890  0.00  0.00     0.000 OA
ATOM     72   O  A00 X   4      77.004 104.564  79.8790  0.00  0.00     0.000 OA
ATOM     73   O  A00 X   4      74.959 105.672  79.2650  0.00  0.00     0.000 O
ATOM     74   O  A00 X   4      75.384 105.192  81.5880  0.00  0.00     0.000 OA
ATOM     75   S  A00 X   4      75.618 104.673  80.2790  0.00  0.00     0.000 S
ENDBRANCH 62 70
ENDBRANCH 57 61
ENDBRANCH 41 57
ENDBRANCH 40 44
ENDBRANCH 20 40
ENDBRANCH 19 23
ENDBRANCH 1 19
TORSDOF 14
ENDMDL
MODEL 100
REMARK VINA RESULT:      -0.2    106.781    110.486
ROOT
ATOM      1  C1  A00 X   1      54.122  87.436  94.6520  0.00  0.00     0.000 C
ATOM      2  C2  A00 X   1      54.542  85.945  94.5500  0.00  0.00     0.000 C
ATOM      3  C3  A00 X   1      54.240  85.059  95.8030  0.00  0.00     0.000 C
ATOM      4  C4  A00 X   1      53.907  85.832  97.1050  0.00  0.00     0.000 C
ATOM      5  C5  A00 X   1      54.452  87.260  97.0830  0.00  0.00     0.000 C
ATOM      6  O5  A00 X   1      53.768  87.897  95.9800  0.00  0.00     0.000 O
ATOM      7   O  A00 X   1      55.389  84.263  96.0870  0.00  0.00     0.000 O
ATOM      9  HD  A00 X   1      55.080  84.546  96.8450  0.00  0.00     0.000 HD
ATOM      9   O  A00 X   1      52.502  85.855  97.3530  0.00  0.00     0.000 O
ATOM     11  HD  A00 X   1      52.193  86.138  98.1110  0.00  0.00     0.000 HD
ENDROOT
BRANCH 2 11
ATOM     11   O  A00 X   1      53.877  85.380  93.4040  0.00  0.00     0.000 O
ATOM     12   O  A00 X   1      53.967  83.031  92.9130  0.00  0.00     0.000 OA
ATOM     13   O  A00 X   1      56.017  84.339  92.8560  0.00  0.00     0.000 OA
ATOM     14   O  A00 X   1      54.324  84.681  91.2210  0.00  0.00     0.000 OA
ATOM     15   S  A00 X   1      54.611  84.274  92.5700  0.00  0.00     0.000 S
ENDBRANCH 2 11
BRANCH 5 16
ATOM     16   C  A00 X   1      55.978  87.370  97.0040  0.00  0.00     0.000 C
ATOM     17   O  A00 X   1      56.646  86.397  97.2850  0.00  0.00     0.000 OA
ATOM     18   O  A00 X   1      56.541  88.392  96.6650  0.00  0.00     0.000 OA
ENDBRANCH 5 16
BRANCH 1 19
ATOM     19  O4  A00 X   2      55.067  88.330  94.0170  0.00  0.00     0.000 O
BRANCH 19 23
ATOM     20  C1  A00 X   2      52.029  90.894  92.4150  0.00  0.00     0.000 C
ATOM     21  C2  A00 X   2      52.636  89.828  91.4710  0.00  0.00     0.000 C
ATOM     22  C3  A00 X   2      53.367  88.733  92.2760  0.00  0.00     0.000 C
ATOM     23  C4  A00 X   2      54.414  89.361  93.2220  0.00  0.00     0.000 C
ATOM     24  C5  A00 X   2      53.688  90.419  94.0970  0.00  0.00     0.000 C
ATOM     25  O5  A00 X   2      53.109  91.427  93.2280  0.00  0.00     0.000 O
ATOM     26   O  A00 X   2      53.851  87.734  91.3610  0.00  0.00     0.000 O
ATOM     28  HD  A00 X   2      54.225  88.318  90.8430  0.00  0.00     0.000 HD
BRANCH 21 30
ATOM     28   N  A00 X   2      52.482  90.777  90.3640  0.00  0.00     0.000 N
ATOM     30  HD  A00 X   2      52.615  89.998  90.0100  0.00  0.00     0.000 HD
ATOM     30   O  A00 X   2      52.077  89.559  88.4120  0.00  0.00     0.000 OA
ATOM     31   S  A00 X   2      53.085  90.400  88.9520  0.00  0.00     0.000 S
ATOM     32   O  A00 X   2      53.231  91.664  88.2980  0.00  0.00     0.000 OA
ATOM     33   O  A00 X   2      54.369  89.809  89.1850  0.00  0.00     0.000 OA
ENDBRANCH 21 30
BRANCH 24 34
ATOM     34   C  A00 X   2      54.464  91.032  95.2870  0.00  0.00     0.000 C
ATOM     35   O  A00 X   2      57.619  92.821  94.9620  0.00  0.00     0.000 OA
ATOM     36   O  A00 X   2      55.819  91.356  94.9170  0.00  0.00     0.000 O
ATOM     37   O  A00 X   2      55.644  93.402  93.7980  0.00  0.00     0.000 OA
ATOM     38   S  A00 X   2      56.195  92.880  95.0110  0.00  0.00     0.000 S
ATOM     39   O  A00 X   2      55.649  93.356  96.2460  0.00  0.00     0.000 OA
ENDBRANCH 24 34
BRANCH 20 40
ATOM     40  O4  A00 X   3      51.102  90.188  93.2530  0.00  0.00     0.000 O
BRANCH 40 44
ATOM     41  C1  A00 X   3      49.901  89.653  96.6280  0.00  0.00     0.000 C
ATOM     42  C2  A00 X   3      49.396  88.892  95.3830  0.00  0.00     0.000 C
ATOM     43  C3  A00 X   3      49.000  89.876  94.2530  0.00  0.00     0.000 C
ATOM     44  C4  A00 X   3      50.057  90.923  93.9250  0.00  0.00     0.000 C
ATOM     45  C5  A00 X   3      50.510  91.647  95.2240  0.00  0.00     0.000 C
ATOM     46  O5  A00 X   3      50.864  90.680  96.2660  0.00  0.00     0.000 O
ATOM     47   O  A00 X   3      48.436  89.287  93.0830  0.00  0.00     0.000 O
ATOM     49  HD  A00 X   3      48.912  89.892  92.6860  0.00  0.00     0.000 HD
BRANCH 42 49
ATOM     49   O  A00 X   3      50.461  88.010  94.9660  0.00  0.00     0.000 O
ATOM     50   O  A00 X   3      50.833  86.473  93.1680  0.00  0.00     0.000 OA
ATOM     51   O  A00 X   3      48.710  86.520  94.2080  0.00  0.00     0.000 OA
ATOM     52   O  A00 X   3      50.554  85.713  95.4470  0.00  0.00     0.000 OA
ATOM     53   S  A00 X   3      50.136  86.593  94.4100  0.00  0.00     0.000 S
ENDBRANCH 42 49
BRANCH 45 54
ATOM     54   C  A00 X   3      49.477  92.681  95.6870  0.00  0.00     0.000 C
ATOM     55   O  A00 X   3      49.790  93.569  96.4540  0.00  0.00     0.000 OA
ATOM     56   O  A00 X   3      48.321  92.629  95.2950  0.00  0.00     0.000 OA
ENDBRANCH 45 54
BRANCH 41 57
ATOM     57  O4  A00 X   4      48.807  90.134  97.4400  0.00  0.00     0.000 O
BRANCH 57 61
ATOM     58  C1  A00 X   4      48.409  91.008 101.6490  0.00  0.00     0.000 C
ATOM     59  C2  A00 X   4      49.139  92.032 100.7450  0.00  0.00     0.000 C
ATOM     60  C3  A00 X   4      48.908  91.797  99.2390  0.00  0.00     0.000 C
ATOM     61  C4  A00 X   4      49.117  90.318  98.8510  0.00  0.00     0.000 C
ATOM     62  C5  A00 X   4      48.140  89.495  99.7260  0.00  0.00     0.000 C
ATOM     63  O5  A00 X   4      48.493  89.664 101.1230  0.00  0.00     0.000 O
BRANCH 59 66
ATOM     64   N  A00 X   4      50.598  91.940 100.9340  0.00  0.00     0.000 N
ATOM     66  HD  A00 X   4      50.923  91.175 101.1770  0.00  0.00     0.000 HD
ATOM     66   O  A00 X   4      50.331  93.316 102.8930  0.00  0.00     0.000 OA
ATOM     67   S  A00 X   4      51.306  93.005 101.8950  0.00  0.00     0.000 S
ATOM     68   O  A00 X   4      52.429  92.238 102.3480  0.00  0.00     0.000 OA
ATOM     69   O  A00 X   4      51.637  94.026 100.9410  0.00  0.00     0.000 OA
ENDBRANCH 59 66
BRANCH 62 70
ATOM     70   C  A00 X   4      48.122  87.982  99.4030  0.00  0.00     0.000 C
ATOM     71   O  A00 X   4      50.188  85.350 100.7860  0.00  0.00     0.000 OA
ATOM     72   O  A00 X   4      49.667  85.877  98.5510  0.00  0.00     0.000 OA
ATOM     73   O  A00 X   4      48.934  87.283 100.3600  0.00  0.00     0.000 O
ATOM     74   O  A00 X   4      51.270  87.250  99.7700  0.00  0.00     0.000 OA
ATOM     75   S  A00 X   4      50.118  86.409  99.8180  0.00  0.00     0.000 S
ENDBRANCH 62 70
ENDBRANCH 57 61
ENDBRANCH 41 57
ENDBRANCH 40 44
ENDBRANCH 20 40
ENDBRANCH 19 23
ENDBRANCH 1 19
TORSDOF 14
ENDMDL
