MODEL 1
REMARK VINA RESULT:     -11.1      0.000      0.000
ROOT
ATOM      1  C1  NGY C   1      20.744  11.658  47.7020  0.00  0.00     0.000 C
ATOM      2  C2  NGY C   1      21.426  13.015  47.5880  0.00  0.00     0.000 C
ATOM      3  C3  NGY C   1      21.961  13.219  46.1740  0.00  0.00     0.000 C
ATOM      4  C4  NGY C   1      22.858  12.045  45.8310  0.00  0.00     0.000 C
ATOM      5  C5  NGY C   1      22.035  10.762  45.9030  0.00  0.00     0.000 C
ATOM      6  O5  NGY C   1      21.568  10.598  47.2680  0.00  0.00     0.000 O
ATOM      7   O  NGY C   1      22.655  14.457  46.1130  0.00  0.00     0.000 O
ATOM      9  HD  NGY C   1      23.165  14.928  46.6300  0.00  0.00     0.000 HD
ATOM      9   O  NGY C   1      23.417  12.195  44.5340  0.00  0.00     0.000 O
ATOM     11  HD  NGY C   1      23.928  12.666  45.0520  0.00  0.00     0.000 HD
ENDROOT
BRANCH 2 13
ATOM     11   N  NGY C   1      20.545  13.772  48.4460  0.00  0.00     0.000 N
ATOM     13  HD  NGY C   1      20.987  14.516  48.4680  0.00  0.00     0.000 HD
ATOM     13   C  NGY C   1      20.815  15.031  48.7870  0.00  0.00     0.000 C
ATOM     14   O  NGY C   1      21.895  15.551  48.5000  0.00  0.00     0.000 OA
ATOM     15   C  NGY C   1      19.734  15.780  49.5050  0.00  0.00     0.000 C
ENDBRANCH 2 13
BRANCH 5 16
ATOM     16   C  NGY C   1      22.783   9.509  45.5790  0.00  0.00     0.000 C
ATOM     17   O  NGY C   1      25.779   8.386  47.3750  0.00  0.00     0.000 OA
ATOM     18   O  NGY C   1      24.005   9.496  46.3230  0.00  0.00     0.000 O
ATOM     19   S  NGY C   1      24.699   8.094  46.4660  0.00  0.00     0.000 S
ATOM     20   O  NGY C   1      25.170   7.717  45.1590  0.00  0.00     0.000 OA
ATOM     21   O  NGY C   1      23.658   7.221  46.9830  0.00  0.00     0.000 OA
ENDBRANCH 5 16
BRANCH 1 22
ATOM     22  O4  BDP C   2      19.568  11.706  47.0420  0.00  0.00     0.000 O
BRANCH 22 26
ATOM     23  C1  BDP C   2      15.555  10.781  46.9700  0.00  0.00     0.000 C
ATOM     24  C2  BDP C   2      16.148  10.996  48.3430  0.00  0.00     0.000 C
ATOM     25  C3  BDP C   2      17.487  11.672  48.2140  0.00  0.00     0.000 C
ATOM     26  C4  BDP C   2      18.383  10.895  47.2560  0.00  0.00     0.000 C
ATOM     27  C5  BDP C   2      17.621  10.584  45.9740  0.00  0.00     0.000 C
ATOM     28  O5  BDP C   2      16.389   9.856  46.2170  0.00  0.00     0.000 O
ATOM     29   O  BDP C   2      15.383  11.909  49.1290  0.00  0.00     0.000 O
ATOM     31  HD  BDP C   2      15.827  12.432  49.6570  0.00  0.00     0.000 HD
ATOM     31   O  BDP C   2      18.065  11.694  49.5140  0.00  0.00     0.000 O
ATOM     33  HD  BDP C   2      18.510  12.217  50.0420  0.00  0.00     0.000 HD
BRANCH 27 33
ATOM     33   C  BDP C   2      18.420   9.729  45.0200  0.00  0.00     0.000 C
ATOM     34   O  BDP C   2      18.356   8.476  45.0350  0.00  0.00     0.000 OA
ATOM     35   O  BDP C   2      19.174  10.283  44.2370  0.00  0.00     0.000 OA
ENDBRANCH 27 33
BRANCH 23 36
ATOM     36  O4  SGN C   3      14.291  10.298  46.9540  0.00  0.00     0.000 O
BRANCH 36 40
ATOM     37  C1  SGN C   3      10.554  10.962  45.2160  0.00  0.00     0.000 C
ATOM     38  C2  SGN C   3      11.317   9.692  44.8040  0.00  0.00     0.000 C
ATOM     39  C3  SGN C   3      12.409   9.377  45.8160  0.00  0.00     0.000 C
ATOM     40  C4  SGN C   3      13.318  10.581  45.9450  0.00  0.00     0.000 C
ATOM     41  C5  SGN C   3      12.483  11.783  46.3280  0.00  0.00     0.000 C
ATOM     42  O5  SGN C   3      11.489  12.024  45.3200  0.00  0.00     0.000 O
ATOM     43   O  SGN C   3      13.136   8.235  45.3800  0.00  0.00     0.000 O
ATOM     45  HD  SGN C   3      13.644   8.739  45.8680  0.00  0.00     0.000 HD
BRANCH 38 47
ATOM     45   N  SGN C   3      10.546   8.449  44.6280  0.00  0.00     0.000 N
ATOM     47  HD  SGN C   3      11.044   8.943  45.1350  0.00  0.00     0.000 HD
ATOM     47   S  SGN C   3       9.583   8.517  43.3650  0.00  0.00     0.000 S
ATOM     48   O  SGN C   3       8.557   9.482  43.5480  0.00  0.00     0.000 OA
ATOM     49   O  SGN C   3      10.420   8.681  42.2220  0.00  0.00     0.000 OA
ATOM     50   O  SGN C   3       8.961   7.194  43.3940  0.00  0.00     0.000 OA
ENDBRANCH 38 47
BRANCH 41 51
ATOM     51   C  SGN C   3      13.272  13.053  46.4940  0.00  0.00     0.000 C
ATOM     52   O  SGN C   3      15.423  14.720  43.9490  0.00  0.00     0.000 OA
ATOM     53   O  SGN C   3      14.073  15.688  45.6740  0.00  0.00     0.000 OA
ATOM     54   O  SGN C   3      15.963  14.315  46.2330  0.00  0.00     0.000 OA
ATOM     55   O  SGN C   3      13.906  13.358  45.2710  0.00  0.00     0.000 O
ATOM     56   S  SGN C   3      14.938  14.640  45.2850  0.00  0.00     0.000 S
ENDBRANCH 41 51
BRANCH 37 57
ATOM     57  O4  IDS C   4       9.889  10.865  46.3930  0.00  0.00     0.000 O
BRANCH 57 61
ATOM     58  C1  IDS C   4       6.590  11.611  48.1340  0.00  0.00     0.000 C
ATOM     59  C2  IDS C   4       6.599  11.462  46.6460  0.00  0.00     0.000 C
ATOM     60  C3  IDS C   4       7.823  12.109  45.9930  0.00  0.00     0.000 C
ATOM     61  C4  IDS C   4       9.130  12.030  46.7700  0.00  0.00     0.000 C
ATOM     62  C5  IDS C   4       8.867  12.048  48.2800  0.00  0.00     0.000 C
ATOM     63  O5  IDS C   4       7.829  11.150  48.6450  0.00  0.00     0.000 O
ATOM     64   O  IDS C   4       7.481  13.473  45.8330  0.00  0.00     0.000 O
ATOM     66  HD  IDS C   4       7.972  13.971  46.3440  0.00  0.00     0.000 HD
BRANCH 59 66
ATOM     66   O  IDS C   4       6.612  10.043  46.2430  0.00  0.00     0.000 O
ATOM     67   S  IDS C   4       5.279   9.479  45.5800  0.00  0.00     0.000 S
ATOM     68   O  IDS C   4       5.181  10.229  44.3510  0.00  0.00     0.000 OA
ATOM     69   O  IDS C   4       5.517   8.059  45.4120  0.00  0.00     0.000 OA
ATOM     70   O  IDS C   4       4.184   9.789  46.4870  0.00  0.00     0.000 OA
ENDBRANCH 59 66
BRANCH 62 71
ATOM     71   C  IDS C   4      10.074  11.632  49.0990  0.00  0.00     0.000 C
ATOM     72   O  IDS C   4      10.994  12.409  49.2670  0.00  0.00     0.000 OA
ATOM     73   O  IDS C   4      10.142  10.453  49.5000  0.00  0.00     0.000 OA
ENDBRANCH 62 71
BRANCH 58 74
ATOM     74  O4  SGN C   5       6.078  12.789  48.5910  0.00  0.00     0.000 O
BRANCH 74 78
ATOM     75  C1  SGN C   5       4.386  14.663  51.9180  0.00  0.00     0.000 C
ATOM     76  C2  SGN C   5       5.836  15.060  51.5840  0.00  0.00     0.000 C
ATOM     77  C3  SGN C   5       6.219  14.582  50.1770  0.00  0.00     0.000 C
ATOM     78  C4  SGN C   5       5.841  13.123  49.9580  0.00  0.00     0.000 C
ATOM     79  C5  SGN C   5       4.376  12.920  50.3120  0.00  0.00     0.000 C
ATOM     80  O5  SGN C   5       4.159  13.276  51.7040  0.00  0.00     0.000 O
ATOM     81   O  SGN C   5       7.618  14.769  49.9900  0.00  0.00     0.000 O
ATOM     83  HD  SGN C   5       8.032  15.456  50.3170  0.00  0.00     0.000 HD
BRANCH 76 85
ATOM     83   N  SGN C   5       5.611  16.485  51.8560  0.00  0.00     0.000 N
ATOM     85  HD  SGN C   5       5.890  17.287  52.0280  0.00  0.00     0.000 HD
ATOM     85   S  SGN C   5       6.346  17.453  52.9130  0.00  0.00     0.000 S
ATOM     86   O  SGN C   5       5.840  18.778  52.8080  0.00  0.00     0.000 OA
ATOM     87   O  SGN C   5       6.261  16.828  54.1840  0.00  0.00     0.000 OA
ATOM     88   O  SGN C   5       7.735  17.357  52.2860  0.00  0.00     0.000 OA
ENDBRANCH 76 85
BRANCH 79 89
ATOM     89   C  SGN C   5       3.895  11.498  50.1040  0.00  0.00     0.000 C
ATOM     90   O  SGN C   5       3.933  10.779  51.3610  0.00  0.00     0.000 O
ATOM     91   S  SGN C   5       2.829   9.633  51.5700  0.00  0.00     0.000 S
ATOM     92   O  SGN C   5       1.553  10.245  51.3030  0.00  0.00     0.000 OA
ATOM     93   O  SGN C   5       3.137   8.575  50.6420  0.00  0.00     0.000 OA
ATOM     94   O  SGN C   5       3.004   9.252  52.9450  0.00  0.00     0.000 OA
ENDBRANCH 79 89
BRANCH 75 95
ATOM     95  O4  BDP C   6       3.597  15.393  51.0750  0.00  0.00     0.000 O
BRANCH 95 99
ATOM     96  C1  BDP C   6      -0.346  17.006  51.6210  0.00  0.00     0.000 C
ATOM     97  C2  BDP C   6       0.592  16.980  52.7950  0.00  0.00     0.000 C
ATOM     98  C3  BDP C   6       2.065  16.753  52.4240  0.00  0.00     0.000 C
ATOM     99  C4  BDP C   6       2.220  15.578  51.4690  0.00  0.00     0.000 C
ATOM    100  C5  BDP C   6       1.218  15.772  50.3070  0.00  0.00     0.000 C
ATOM    101  O5  BDP C   6      -0.060  15.786  50.9630  0.00  0.00     0.000 O
BRANCH 100 102
ATOM    102   C  BDP C   6       1.228  14.621  49.3330  0.00  0.00     0.000 C
ATOM    103   O  BDP C   6       0.875  13.478  49.6550  0.00  0.00     0.000 OA
ATOM    104   O  BDP C   6       1.596  14.869  48.1780  0.00  0.00     0.000 OA
ENDBRANCH 100 102
ENDBRANCH 95 99
ENDBRANCH 75 95
ENDBRANCH 74 78
ENDBRANCH 58 74
ENDBRANCH 57 61
ENDBRANCH 37 57
ENDBRANCH 36 40
ENDBRANCH 23 36
ENDBRANCH 22 26
ENDBRANCH 1 22
TORSDOF 20
ENDMDL
MODEL 2
REMARK VINA RESULT:      -8.9      6.616     16.164
ROOT
ATOM      1  C1  NGY C   1      -0.241  11.381  37.3990  0.00  0.00     0.000 C
ATOM      2  C2  NGY C   1      -0.978  12.680  37.1040  0.00  0.00     0.000 C
ATOM      3  C3  NGY C   1      -2.448  12.554  37.4940  0.00  0.00     0.000 C
ATOM      4  C4  NGY C   1      -3.025  11.341  36.7880  0.00  0.00     0.000 C
ATOM      5  C5  NGY C   1      -2.252  10.102  37.2330  0.00  0.00     0.000 C
ATOM      6  O5  NGY C   1      -0.869  10.257  36.8210  0.00  0.00     0.000 O
ATOM      7   O  NGY C   1      -3.128  13.750  37.1420  0.00  0.00     0.000 O
ATOM      9  HD  NGY C   1      -3.102  14.334  36.5030  0.00  0.00     0.000 HD
ATOM      9   O  NGY C   1      -4.405  11.189  37.0860  0.00  0.00     0.000 O
ATOM     11  HD  NGY C   1      -4.378  11.773  36.4470  0.00  0.00     0.000 HD
ENDROOT
BRANCH 2 13
ATOM     11   N  NGY C   1      -0.224  13.716  37.7690  0.00  0.00     0.000 N
ATOM     13  HD  NGY C   1      -0.296  14.339  37.1720  0.00  0.00     0.000 HD
ATOM     13   C  NGY C   1      -0.045  14.914  37.2160  0.00  0.00     0.000 C
ATOM     14   O  NGY C   1      -0.394  15.138  36.0550  0.00  0.00     0.000 OA
ATOM     15   C  NGY C   1       0.571  15.970  38.0820  0.00  0.00     0.000 C
ENDBRANCH 2 13
BRANCH 5 16
ATOM     16   C  NGY C   1      -2.713   8.815  36.6270  0.00  0.00     0.000 C
ATOM     17   O  NGY C   1      -5.036   8.598  33.7960  0.00  0.00     0.000 OA
ATOM     18   O  NGY C   1      -3.766   9.094  35.7010  0.00  0.00     0.000 O
ATOM     19   S  NGY C   1      -4.069   7.962  34.6540  0.00  0.00     0.000 S
ATOM     20   O  NGY C   1      -4.626   6.851  35.3790  0.00  0.00     0.000 OA
ATOM     21   O  NGY C   1      -2.780   7.672  34.0460  0.00  0.00     0.000 OA
ENDBRANCH 5 16
BRANCH 1 22
ATOM     22  O4  BDP C   2      -0.090  11.261  38.7350  0.00  0.00     0.000 O
BRANCH 22 26
ATOM     23  C1  BDP C   2       3.130  10.830  41.2670  0.00  0.00     0.000 C
ATOM     24  C2  BDP C   2       3.412  10.566  39.8070  0.00  0.00     0.000 C
ATOM     25  C3  BDP C   2       2.282  11.105  38.9690  0.00  0.00     0.000 C
ATOM     26  C4  BDP C   2       0.949  10.553  39.4630  0.00  0.00     0.000 C
ATOM     27  C5  BDP C   2       0.850  10.716  40.9740  0.00  0.00     0.000 C
ATOM     28  O5  BDP C   2       1.949  10.085  41.6790  0.00  0.00     0.000 O
ATOM     29   O  BDP C   2       4.552  11.283  39.3350  0.00  0.00     0.000 O
ATOM     31  HD  BDP C   2       4.516  11.577  38.5210  0.00  0.00     0.000 HD
ATOM     31   O  BDP C   2       2.521  10.682  37.6320  0.00  0.00     0.000 O
ATOM     33  HD  BDP C   2       2.484  10.975  36.8190  0.00  0.00     0.000 HD
BRANCH 27 33
ATOM     33   C  BDP C   2      -0.408  10.101  41.5400  0.00  0.00     0.000 C
ATOM     34   O  BDP C   2      -1.028   9.187  40.9450  0.00  0.00     0.000 OA
ATOM     35   O  BDP C   2      -0.844  10.537  42.5930  0.00  0.00     0.000 OA
ENDBRANCH 27 33
BRANCH 23 36
ATOM     36  O4  SGN C   3       4.133  10.509  42.1180  0.00  0.00     0.000 O
BRANCH 36 40
ATOM     37  C1  SGN C   3       6.271  11.762  45.4780  0.00  0.00     0.000 C
ATOM     38  C2  SGN C   3       5.045  10.863  45.7060  0.00  0.00     0.000 C
ATOM     39  C3  SGN C   3       4.657  10.155  44.4160  0.00  0.00     0.000 C
ATOM     40  C4  SGN C   3       4.420  11.193  43.3410  0.00  0.00     0.000 C
ATOM     41  C5  SGN C   3       5.663  12.043  43.2010  0.00  0.00     0.000 C
ATOM     42  O5  SGN C   3       5.953  12.688  44.4510  0.00  0.00     0.000 O
ATOM     43   O  SGN C   3       3.486   9.379  44.6420  0.00  0.00     0.000 O
ATOM     45  HD  SGN C   3       3.528   9.615  43.8100  0.00  0.00     0.000 HD
BRANCH 38 47
ATOM     45   N  SGN C   3       5.042  11.495  47.0370  0.00  0.00     0.000 N
ATOM     47  HD  SGN C   3       4.882  11.560  46.1880  0.00  0.00     0.000 HD
ATOM     47   S  SGN C   3       5.208  10.430  48.2050  0.00  0.00     0.000 S
ATOM     48   O  SGN C   3       4.083   9.567  48.2820  0.00  0.00     0.000 OA
ATOM     49   O  SGN C   3       6.479   9.811  48.0150  0.00  0.00     0.000 OA
ATOM     50   O  SGN C   3       5.196  11.284  49.3910  0.00  0.00     0.000 OA
ENDBRANCH 38 47
BRANCH 41 51
ATOM     51   C  SGN C   3       5.560  13.118  42.1530  0.00  0.00     0.000 C
ATOM     52   O  SGN C   3       3.639  16.303  42.3730  0.00  0.00     0.000 OA
ATOM     53   O  SGN C   3       5.716  15.848  41.2720  0.00  0.00     0.000 OA
ATOM     54   O  SGN C   3       3.690  14.788  40.5360  0.00  0.00     0.000 OA
ATOM     55   O  SGN C   3       4.775  14.174  42.6610  0.00  0.00     0.000 O
ATOM     56   S  SGN C   3       4.422  15.391  41.6110  0.00  0.00     0.000 S
ENDBRANCH 41 51
BRANCH 37 57
ATOM     57  O4  IDS C   4       7.398  11.100  45.1180  0.00  0.00     0.000 O
BRANCH 57 61
ATOM     58  C1  IDS C   4      11.101  11.405  45.9360  0.00  0.00     0.000 C
ATOM     59  C2  IDS C   4      10.120  12.197  46.7410  0.00  0.00     0.000 C
ATOM     60  C3  IDS C   4       8.992  12.785  45.8890  0.00  0.00     0.000 C
ATOM     61  C4  IDS C   4       8.504  11.935  44.7250  0.00  0.00     0.000 C
ATOM     62  C5  IDS C   4       9.649  11.092  44.1490  0.00  0.00     0.000 C
ATOM     63  O5  IDS C   4      10.392  10.445  45.1720  0.00  0.00     0.000 O
ATOM     64   O  IDS C   4       9.510  13.996  45.3700  0.00  0.00     0.000 O
ATOM     66  HD  IDS C   4       9.608  13.940  44.5110  0.00  0.00     0.000 HD
BRANCH 59 66
ATOM     66   O  IDS C   4       9.473  11.368  47.7760  0.00  0.00     0.000 O
ATOM     67   S  IDS C   4       9.787  11.747  49.2890  0.00  0.00     0.000 S
ATOM     68   O  IDS C   4       9.205  13.060  49.4270  0.00  0.00     0.000 OA
ATOM     69   O  IDS C   4       9.147  10.710  50.0740  0.00  0.00     0.000 OA
ATOM     70   O  IDS C   4      11.234  11.783  49.4320  0.00  0.00     0.000 OA
ENDBRANCH 59 66
BRANCH 62 71
ATOM     71   C  IDS C   4       9.169   9.986  43.2300  0.00  0.00     0.000 C
ATOM     72   O  IDS C   4       8.269  10.197  42.4390  0.00  0.00     0.000 OA
ATOM     73   O  IDS C   4       9.643   8.842  43.3790  0.00  0.00     0.000 OA
ENDBRANCH 62 71
BRANCH 58 74
ATOM     74  O4  SGN C   5      12.080  12.141  45.3370  0.00  0.00     0.000 O
BRANCH 74 78
ATOM     75  C1  SGN C   5      16.229  11.783  45.6600  0.00  0.00     0.000 C
ATOM     76  C2  SGN C   5      15.709  12.517  44.4090  0.00  0.00     0.000 C
ATOM     77  C3  SGN C   5      14.228  12.883  44.5710  0.00  0.00     0.000 C
ATOM     78  C4  SGN C   5      13.408  11.696  45.0590  0.00  0.00     0.000 C
ATOM     79  C5  SGN C   5      14.050  11.115  46.3090  0.00  0.00     0.000 C
ATOM     80  O5  SGN C   5      15.401  10.679  46.0020  0.00  0.00     0.000 O
ATOM     81   O  SGN C   5      13.730  13.355  43.3230  0.00  0.00     0.000 O
ATOM     83  HD  SGN C   5      14.216  13.838  42.7930  0.00  0.00     0.000 HD
BRANCH 76 85
ATOM     83   N  SGN C   5      17.062  12.639  43.8500  0.00  0.00     0.000 N
ATOM     85  HD  SGN C   5      17.829  13.035  43.7780  0.00  0.00     0.000 HD
ATOM     85   S  SGN C   5      17.853  13.956  43.3670  0.00  0.00     0.000 S
ATOM     86   O  SGN C   5      19.164  13.616  42.9340  0.00  0.00     0.000 OA
ATOM     87   O  SGN C   5      17.019  14.627  42.4350  0.00  0.00     0.000 OA
ATOM     88   O  SGN C   5      17.897  14.634  44.7340  0.00  0.00     0.000 OA
ENDBRANCH 76 85
BRANCH 79 89
ATOM     89   C  SGN C   5      13.290   9.938  46.8880  0.00  0.00     0.000 C
ATOM     90   O  SGN C   5      13.404   8.798  46.0010  0.00  0.00     0.000 O
ATOM     91   S  SGN C   5      13.387   7.347  46.6870  0.00  0.00     0.000 S
ATOM     92   O  SGN C   5      14.396   7.371  47.7130  0.00  0.00     0.000 OA
ATOM     93   O  SGN C   5      12.064   7.146  47.2200  0.00  0.00     0.000 OA
ATOM     94   O  SGN C   5      13.700   6.463  45.5970  0.00  0.00     0.000 OA
ENDBRANCH 79 89
BRANCH 75 95
ATOM     95  O4  BDP C   6      16.205  12.705  46.6680  0.00  0.00     0.000 O
BRANCH 95 99
ATOM     96  C1  BDP C   6      18.543  13.023  50.2570  0.00  0.00     0.000 C
ATOM     97  C2  BDP C   6      19.217  12.561  48.9950  0.00  0.00     0.000 C
ATOM     98  C3  BDP C   6      18.420  12.842  47.7120  0.00  0.00     0.000 C
ATOM     99  C4  BDP C   6      16.972  12.395  47.8520  0.00  0.00     0.000 C
ATOM    100  C5  BDP C   6      16.418  12.978  49.1730  0.00  0.00     0.000 C
ATOM    101  O5  BDP C   6      17.271  12.407  50.1770  0.00  0.00     0.000 O
BRANCH 100 102
ATOM    102   C  BDP C   6      15.005  12.534  49.4560  0.00  0.00     0.000 C
ATOM    103   O  BDP C   6      14.740  11.399  49.8780  0.00  0.00     0.000 OA
ATOM    104   O  BDP C   6      14.109  13.364  49.2600  0.00  0.00     0.000 OA
ENDBRANCH 100 102
ENDBRANCH 95 99
ENDBRANCH 75 95
ENDBRANCH 74 78
ENDBRANCH 58 74
ENDBRANCH 57 61
ENDBRANCH 37 57
ENDBRANCH 36 40
ENDBRANCH 23 36
ENDBRANCH 22 26
ENDBRANCH 1 22
TORSDOF 20
ENDMDL
MODEL 3
REMARK VINA RESULT:      -8.9      3.465      5.506
ROOT
ATOM      1  C1  NGY C   1      17.751  14.127  48.0500  0.00  0.00     0.000 C
ATOM      2  C2  NGY C   1      18.586  15.384  47.8440  0.00  0.00     0.000 C
ATOM      3  C3  NGY C   1      18.861  15.598  46.3590  0.00  0.00     0.000 C
ATOM      4  C4  NGY C   1      19.495  14.336  45.8060  0.00  0.00     0.000 C
ATOM      5  C5  NGY C   1      18.525  13.174  46.0010  0.00  0.00     0.000 C
ATOM      6  O5  NGY C   1      18.314  12.993  47.4260  0.00  0.00     0.000 O
ATOM      7   O  NGY C   1      19.700  16.732  46.1980  0.00  0.00     0.000 O
ATOM      9  HD  NGY C   1      20.364  17.098  46.6170  0.00  0.00     0.000 HD
ATOM      9   O  NGY C   1      19.807  14.485  44.4280  0.00  0.00     0.000 O
ATOM     11  HD  NGY C   1      20.470  14.851  44.8470  0.00  0.00     0.000 HD
ENDROOT
BRANCH 2 13
ATOM     11   N  NGY C   1      19.015  16.175  48.9730  0.00  0.00     0.000 N
ATOM     13  HD  NGY C   1      18.522  16.874  48.8420  0.00  0.00     0.000 HD
ATOM     13   C  NGY C   1      18.518  17.389  49.2040  0.00  0.00     0.000 C
ATOM     14   O  NGY C   1      17.781  17.942  48.3860  0.00  0.00     0.000 OA
ATOM     15   C  NGY C   1      18.879  18.026  50.5120  0.00  0.00     0.000 C
ENDBRANCH 2 13
BRANCH 5 16
ATOM     16   C  NGY C   1      19.007  11.852  45.4940  0.00  0.00     0.000 C
ATOM     17   O  NGY C   1      16.961   8.808  45.4410  0.00  0.00     0.000 OA
ATOM     18   O  NGY C   1      18.037  10.853  45.8210  0.00  0.00     0.000 O
ATOM     19   S  NGY C   1      18.137   9.516  45.0020  0.00  0.00     0.000 S
ATOM     20   O  NGY C   1      19.353   8.860  45.4040  0.00  0.00     0.000 OA
ATOM     21   O  NGY C   1      18.137   9.937  43.6110  0.00  0.00     0.000 OA
ENDBRANCH 5 16
BRANCH 1 22
ATOM     22  O4  BDP C   2      16.489  14.373  47.6410  0.00  0.00     0.000 O
BRANCH 22 26
ATOM     23  C1  BDP C   2      12.450  13.667  48.0370  0.00  0.00     0.000 C
ATOM     24  C2  BDP C   2      13.245  13.628  49.3200  0.00  0.00     0.000 C
ATOM     25  C3  BDP C   2      14.598  14.251  49.0960  0.00  0.00     0.000 C
ATOM     26  C4  BDP C   2      15.291  13.596  47.9050  0.00  0.00     0.000 C
ATOM     27  C5  BDP C   2      14.334  13.534  46.7210  0.00  0.00     0.000 C
ATOM     28  O5  BDP C   2      13.100  12.837  47.0330  0.00  0.00     0.000 O
ATOM     29   O  BDP C   2      12.667  14.438  50.3440  0.00  0.00     0.000 O
ATOM     31  HD  BDP C   2      13.219  14.846  50.8730  0.00  0.00     0.000 HD
ATOM     31   O  BDP C   2      15.355  14.034  50.2810  0.00  0.00     0.000 O
ATOM     33  HD  BDP C   2      15.906  14.442  50.8100  0.00  0.00     0.000 HD
BRANCH 27 33
ATOM     33   C  BDP C   2      14.927  12.808  45.5380  0.00  0.00     0.000 C
ATOM     34   O  BDP C   2      15.365  13.418  44.5330  0.00  0.00     0.000 OA
ATOM     35   O  BDP C   2      14.944  11.588  45.5540  0.00  0.00     0.000 OA
ENDBRANCH 27 33
BRANCH 23 36
ATOM     36  O4  SGN C   3      11.165  13.255  48.1380  0.00  0.00     0.000 O
BRANCH 36 40
ATOM     37  C1  SGN C   3       7.185  14.199  47.3060  0.00  0.00     0.000 C
ATOM     38  C2  SGN C   3       8.008  13.530  46.1930  0.00  0.00     0.000 C
ATOM     39  C3  SGN C   3       9.249  12.869  46.7740  0.00  0.00     0.000 C
ATOM     40  C4  SGN C   3      10.045  13.907  47.5350  0.00  0.00     0.000 C
ATOM     41  C5  SGN C   3       9.154  14.528  48.5890  0.00  0.00     0.000 C
ATOM     42  O5  SGN C   3       8.017  15.142  47.9630  0.00  0.00     0.000 O
ATOM     43   O  SGN C   3      10.020  12.310  45.7170  0.00  0.00     0.000 O
ATOM     45  HD  SGN C   3      10.536  12.516  46.3820  0.00  0.00     0.000 HD
BRANCH 38 47
ATOM     45   N  SGN C   3       6.819  14.104  45.5370  0.00  0.00     0.000 N
ATOM     47  HD  SGN C   3       7.515  14.222  46.0390  0.00  0.00     0.000 HD
ATOM     47   S  SGN C   3       6.222  13.133  44.4290  0.00  0.00     0.000 S
ATOM     48   O  SGN C   3       7.119  12.976  43.3390  0.00  0.00     0.000 OA
ATOM     49   O  SGN C   3       5.819  11.942  45.1030  0.00  0.00     0.000 OA
ATOM     50   O  SGN C   3       5.071  13.898  43.9530  0.00  0.00     0.000 OA
ENDBRANCH 38 47
BRANCH 41 51
ATOM     51   C  SGN C   3       9.831  15.580  49.4240  0.00  0.00     0.000 C
ATOM     52   O  SGN C   3       8.671  16.962  52.6840  0.00  0.00     0.000 OA
ATOM     53   O  SGN C   3      10.900  16.581  51.8960  0.00  0.00     0.000 OA
ATOM     54   O  SGN C   3       9.487  18.196  50.8170  0.00  0.00     0.000 OA
ATOM     55   O  SGN C   3       9.084  15.775  50.6050  0.00  0.00     0.000 O
ATOM     56   S  SGN C   3       9.583  16.994  51.5920  0.00  0.00     0.000 S
ENDBRANCH 41 51
BRANCH 37 57
ATOM     57  O4  IDS C   4       6.694  13.346  48.2380  0.00  0.00     0.000 O
BRANCH 57 61
ATOM     58  C1  IDS C   4       3.605  11.908  49.9300  0.00  0.00     0.000 C
ATOM     59  C2  IDS C   4       3.500  12.360  48.5080  0.00  0.00     0.000 C
ATOM     60  C3  IDS C   4       4.269  13.657  48.2410  0.00  0.00     0.000 C
ATOM     61  C4  IDS C   4       5.576  13.842  48.9990  0.00  0.00     0.000 C
ATOM     62  C5  IDS C   4       5.507  13.167  50.3740  0.00  0.00     0.000 C
ATOM     63  O5  IDS C   4       4.975  11.852  50.2890  0.00  0.00     0.000 O
ATOM     64   O  IDS C   4       3.385  14.697  48.6150  0.00  0.00     0.000 O
ATOM     66  HD  IDS C   4       3.687  15.116  49.3100  0.00  0.00     0.000 HD
BRANCH 59 66
ATOM     66   O  IDS C   4       4.042  11.353  47.5770  0.00  0.00     0.000 O
ATOM     67   S  IDS C   4       2.983  10.550  46.7020  0.00  0.00     0.000 S
ATOM     68   O  IDS C   4       2.402  11.574  45.8680  0.00  0.00     0.000 OA
ATOM     69   O  IDS C   4       3.762   9.554  45.9940  0.00  0.00     0.000 OA
ATOM     70   O  IDS C   4       2.005   9.987  47.6210  0.00  0.00     0.000 OA
ENDBRANCH 59 66
BRANCH 62 71
ATOM     71   C  IDS C   4       6.865  13.016  51.0320  0.00  0.00     0.000 C
ATOM     72   O  IDS C   4       7.617  12.126  50.6830  0.00  0.00     0.000 OA
ATOM     73   O  IDS C   4       7.143  13.755  51.9970  0.00  0.00     0.000 OA
ENDBRANCH 62 71
BRANCH 58 74
ATOM     74  O4  SGN C   5       2.715  12.488  50.7850  0.00  0.00     0.000 O
BRANCH 74 78
ATOM     75  C1  SGN C   5       0.826  11.339  54.3280  0.00  0.00     0.000 C
ATOM     76  C2  SGN C   5       1.265  12.813  54.2440  0.00  0.00     0.000 C
ATOM     77  C3  SGN C   5       1.623  13.190  52.8000  0.00  0.00     0.000 C
ATOM     78  C4  SGN C   5       2.549  12.163  52.1650  0.00  0.00     0.000 C
ATOM     79  C5  SGN C   5       1.949  10.774  52.3200  0.00  0.00     0.000 C
ATOM     80  O5  SGN C   5       1.781  10.472  53.7300  0.00  0.00     0.000 O
ATOM     81   O  SGN C   5       2.228  14.479  52.7970  0.00  0.00     0.000 O
ATOM     83  HD  SGN C   5       1.963  15.107  53.3320  0.00  0.00     0.000 HD
BRANCH 76 85
ATOM     83   N  SGN C   5       0.083  13.067  55.0770  0.00  0.00     0.000 N
ATOM     85  HD  SGN C   5      -0.483  13.596  55.4640  0.00  0.00     0.000 HD
ATOM     85   S  SGN C   5      -0.150  14.191  56.2070  0.00  0.00     0.000 S
ATOM     86   O  SGN C   5      -1.467  14.101  56.7330  0.00  0.00     0.000 OA
ATOM     87   O  SGN C   5       0.923  14.085  57.1300  0.00  0.00     0.000 OA
ATOM     88   O  SGN C   5      -0.023  15.392  55.2740  0.00  0.00     0.000 OA
ENDBRANCH 76 85
BRANCH 79 89
ATOM     89   C  SGN C   5       2.790   9.679  51.6950  0.00  0.00     0.000 C
ATOM     90   O  SGN C   5       3.453   8.918  52.7340  0.00  0.00     0.000 O
ATOM     91   S  SGN C   5       3.723   7.365  52.4290  0.00  0.00     0.000 S
ATOM     92   O  SGN C   5       2.458   6.804  52.0320  0.00  0.00     0.000 OA
ATOM     93   O  SGN C   5       4.706   7.305  51.3780  0.00  0.00     0.000 OA
ATOM     94   O  SGN C   5       4.204   6.861  53.6860  0.00  0.00     0.000 OA
ENDBRANCH 79 89
BRANCH 75 95
ATOM     95  O4  BDP C   6      -0.354  11.262  53.6450  0.00  0.00     0.000 O
BRANCH 95 99
ATOM     96  C1  BDP C   6      -3.764   8.692  54.1070  0.00  0.00     0.000 C
ATOM     97  C2  BDP C   6      -3.131   9.279  55.3370  0.00  0.00     0.000 C
ATOM     98  C3  BDP C   6      -2.189  10.460  55.0630  0.00  0.00     0.000 C
ATOM     99  C4  BDP C   6      -1.208  10.137  53.9450  0.00  0.00     0.000 C
ATOM    100  C5  BDP C   6      -2.015   9.580  52.7480  0.00  0.00     0.000 C
ATOM    101  O5  BDP C   6      -2.648   8.407  53.2850  0.00  0.00     0.000 O
BRANCH 100 102
ATOM    102   C  BDP C   6      -1.134   9.150  51.6030  0.00  0.00     0.000 C
ATOM    103   O  BDP C   6      -0.972   9.849  50.5930  0.00  0.00     0.000 OA
ATOM    104   O  BDP C   6      -0.560   8.060  51.7180  0.00  0.00     0.000 OA
ENDBRANCH 100 102
ENDBRANCH 95 99
ENDBRANCH 75 95
ENDBRANCH 74 78
ENDBRANCH 58 74
ENDBRANCH 57 61
ENDBRANCH 37 57
ENDBRANCH 36 40
ENDBRANCH 23 36
ENDBRANCH 22 26
ENDBRANCH 1 22
TORSDOF 20
ENDMDL
MODEL 4
REMARK VINA RESULT:      -8.7      5.194     18.805
ROOT
ATOM      1  C1  NGY C   1      12.618  10.810  47.0240  0.00  0.00     0.000 C
ATOM      2  C2  NGY C   1      12.153   9.703  46.0880  0.00  0.00     0.000 C
ATOM      3  C3  NGY C   1      11.751  10.287  44.7370  0.00  0.00     0.000 C
ATOM      4  C4  NGY C   1      10.716  11.370  44.9770  0.00  0.00     0.000 C
ATOM      5  C5  NGY C   1      11.334  12.453  45.8570  0.00  0.00     0.000 C
ATOM      6  O5  NGY C   1      11.678  11.857  47.1350  0.00  0.00     0.000 O
ATOM      7   O  NGY C   1      11.253   9.247  43.9080  0.00  0.00     0.000 O
ATOM      9  HD  NGY C   1      10.783   8.526  44.0040  0.00  0.00     0.000 HD
ATOM      9   O  NGY C   1      10.275  11.932  43.7490  0.00  0.00     0.000 O
ATOM     11  HD  NGY C   1       9.805  11.210  43.8450  0.00  0.00     0.000 HD
ENDROOT
BRANCH 2 13
ATOM     11   N  NGY C   1      13.220   8.730  46.0800  0.00  0.00     0.000 N
ATOM     13  HD  NGY C   1      12.742   8.008  46.0560  0.00  0.00     0.000 HD
ATOM     13   C  NGY C   1      12.971   7.422  46.0490  0.00  0.00     0.000 C
ATOM     14   O  NGY C   1      11.824   6.988  46.1700  0.00  0.00     0.000 OA
ATOM     15   C  NGY C   1      14.146   6.518  45.8330  0.00  0.00     0.000 C
ENDBRANCH 2 13
BRANCH 5 16
ATOM     16   C  NGY C   1      10.433  13.603  46.1760  0.00  0.00     0.000 C
ATOM     17   O  NGY C   1       9.229  14.388  49.5520  0.00  0.00     0.000 OA
ATOM     18   O  NGY C   1       9.995  13.481  47.5320  0.00  0.00     0.000 O
ATOM     19   S  NGY C   1       9.423  14.792  48.1820  0.00  0.00     0.000 S
ATOM     20   O  NGY C   1       8.182  15.090  47.5170  0.00  0.00     0.000 OA
ATOM     21   O  NGY C   1      10.455  15.792  47.9590  0.00  0.00     0.000 OA
ENDBRANCH 5 16
BRANCH 1 22
ATOM     22  O4  BDP C   2      13.831  11.242  46.6170  0.00  0.00     0.000 O
BRANCH 22 26
ATOM     23  C1  BDP C   2      17.521  12.903  47.3800  0.00  0.00     0.000 C
ATOM     24  C2  BDP C   2      17.220  11.622  48.1210  0.00  0.00     0.000 C
ATOM     25  C3  BDP C   2      16.033  10.941  47.4910  0.00  0.00     0.000 C
ATOM     26  C4  BDP C   2      14.857  11.908  47.4000  0.00  0.00     0.000 C
ATOM     27  C5  BDP C   2      15.319  13.228  46.7970  0.00  0.00     0.000 C
ATOM     28  O5  BDP C   2      16.411  13.831  47.5380  0.00  0.00     0.000 O
ATOM     29   O  BDP C   2      18.267  10.660  47.9920  0.00  0.00     0.000 O
ATOM     31  HD  BDP C   2      18.026   9.829  47.9430  0.00  0.00     0.000 HD
ATOM     31   O  BDP C   2      15.697   9.840  48.3260  0.00  0.00     0.000 O
ATOM     33  HD  BDP C   2      15.456   9.009  48.2770  0.00  0.00     0.000 HD
BRANCH 27 33
ATOM     33   C  BDP C   2      14.221  14.265  46.7690  0.00  0.00     0.000 C
ATOM     34   O  BDP C   2      13.546  14.547  47.7870  0.00  0.00     0.000 OA
ATOM     35   O  BDP C   2      13.969  14.815  45.7090  0.00  0.00     0.000 OA
ENDBRANCH 27 33
BRANCH 23 36
ATOM     36  O4  SGN C   3      18.648  13.545  47.7680  0.00  0.00     0.000 O
BRANCH 36 40
ATOM     37  C1  SGN C   3      21.806  15.229  45.6170  0.00  0.00     0.000 C
ATOM     38  C2  SGN C   3      21.374  15.928  46.9170  0.00  0.00     0.000 C
ATOM     39  C3  SGN C   3      20.549  14.984  47.7800  0.00  0.00     0.000 C
ATOM     40  C4  SGN C   3      19.369  14.489  46.9710  0.00  0.00     0.000 C
ATOM     41  C5  SGN C   3      19.883  13.840  45.7050  0.00  0.00     0.000 C
ATOM     42  O5  SGN C   3      20.636  14.795  44.9410  0.00  0.00     0.000 O
ATOM     43   O  SGN C   3      20.114  15.674  48.9450  0.00  0.00     0.000 O
ATOM     45  HD  SGN C   3      19.554  15.042  48.7500  0.00  0.00     0.000 HD
BRANCH 38 47
ATOM     45   N  SGN C   3      22.097  16.996  46.2050  0.00  0.00     0.000 N
ATOM     47  HD  SGN C   3      21.426  16.449  46.2310  0.00  0.00     0.000 HD
ATOM     47   S  SGN C   3      23.166  17.717  47.1350  0.00  0.00     0.000 S
ATOM     48   O  SGN C   3      22.537  18.432  48.1880  0.00  0.00     0.000 OA
ATOM     49   O  SGN C   3      24.114  16.721  47.5140  0.00  0.00     0.000 OA
ATOM     50   O  SGN C   3      23.748  18.694  46.2170  0.00  0.00     0.000 OA
ENDBRANCH 38 47
BRANCH 41 51
ATOM     51   C  SGN C   3      18.804  13.297  44.8090  0.00  0.00     0.000 C
ATOM     52   O  SGN C   3      18.137   9.725  43.9870  0.00  0.00     0.000 OA
ATOM     53   O  SGN C   3      16.601  11.544  44.2370  0.00  0.00     0.000 OA
ATOM     54   O  SGN C   3      18.217  11.552  42.4610  0.00  0.00     0.000 OA
ATOM     55   O  SGN C   3      18.873  11.889  44.8120  0.00  0.00     0.000 O
ATOM     56   S  SGN C   3      17.862  11.106  43.7760  0.00  0.00     0.000 S
ENDBRANCH 41 51
BRANCH 37 57
ATOM     57  O4  IDS C   4      22.616  14.157  45.7940  0.00  0.00     0.000 O
BRANCH 57 61
ATOM     58  C1  IDS C   4      25.807  12.140  45.3230  0.00  0.00     0.000 C
ATOM     59  C2  IDS C   4      25.912  13.539  45.8430  0.00  0.00     0.000 C
ATOM     60  C3  IDS C   4      24.948  14.503  45.1460  0.00  0.00     0.000 C
ATOM     61  C4  IDS C   4      23.588  13.941  44.7530  0.00  0.00     0.000 C
ATOM     62  C5  IDS C   4      23.696  12.452  44.4040  0.00  0.00     0.000 C
ATOM     63  O5  IDS C   4      24.449  11.737  45.3730  0.00  0.00     0.000 O
ATOM     64   O  IDS C   4      25.618  14.913  43.9690  0.00  0.00     0.000 O
ATOM     66  HD  IDS C   4      25.210  14.611  43.2670  0.00  0.00     0.000 HD
BRANCH 59 66
ATOM     66   O  IDS C   4      25.602  13.606  47.2840  0.00  0.00     0.000 O
ATOM     67   S  IDS C   4      26.808  13.978  48.2530  0.00  0.00     0.000 S
ATOM     68   O  IDS C   4      27.137  15.329  47.8650  0.00  0.00     0.000 OA
ATOM     69   O  IDS C   4      26.267  13.842  49.5910  0.00  0.00     0.000 OA
ATOM     70   O  IDS C   4      27.894  13.056  47.9620  0.00  0.00     0.000 OA
ENDBRANCH 59 66
BRANCH 62 71
ATOM     71   C  IDS C   4      22.349  11.758  44.3390  0.00  0.00     0.000 C
ATOM     72   O  IDS C   4      22.028  10.967  45.2040  0.00  0.00     0.000 OA
ATOM     73   O  IDS C   4      21.636  11.939  43.3310  0.00  0.00     0.000 OA
ENDBRANCH 62 71
BRANCH 58 74
ATOM     74  O4  SGN C   5      26.536  11.889  44.1980  0.00  0.00     0.000 O
BRANCH 74 78
ATOM     75  C1  SGN C   5      28.503   8.941  41.9880  0.00  0.00     0.000 C
ATOM     76  C2  SGN C   5      27.080   9.301  41.5190  0.00  0.00     0.000 C
ATOM     77  C3  SGN C   5      26.607  10.605  42.1750  0.00  0.00     0.000 C
ATOM     78  C4  SGN C   5      26.850  10.598  43.6770  0.00  0.00     0.000 C
ATOM     79  C5  SGN C   5      28.305  10.249  43.9540  0.00  0.00     0.000 C
ATOM     80  O5  SGN C   5      28.602   8.937  43.4060  0.00  0.00     0.000 O
ATOM     81   O  SGN C   5      25.223  10.787  41.8930  0.00  0.00     0.000 O
ATOM     83  HD  SGN C   5      24.881  10.564  41.1300  0.00  0.00     0.000 HD
BRANCH 76 85
ATOM     83   N  SGN C   5      27.312   8.325  40.4470  0.00  0.00     0.000 N
ATOM     85  HD  SGN C   5      27.496   8.116  39.6270  0.00  0.00     0.000 HD
ATOM     85   S  SGN C   5      26.826   8.357  38.9120  0.00  0.00     0.000 S
ATOM     86   O  SGN C   5      27.318   7.222  38.2110  0.00  0.00     0.000 OA
ATOM     87   O  SGN C   5      25.421   8.552  38.9210  0.00  0.00     0.000 OA
ATOM     88   O  SGN C   5      27.604   9.611  38.5180  0.00  0.00     0.000 OA
ENDBRANCH 76 85
BRANCH 79 89
ATOM     89   C  SGN C   5      28.654  10.240  45.4280  0.00  0.00     0.000 C
ATOM     90   O  SGN C   5      27.571   9.646  46.1850  0.00  0.00     0.000 O
ATOM     91   S  SGN C   5      27.975   8.851  47.5200  0.00  0.00     0.000 S
ATOM     92   O  SGN C   5      28.988   7.903  47.1370  0.00  0.00     0.000 OA
ATOM     93   O  SGN C   5      28.461   9.826  48.4620  0.00  0.00     0.000 OA
ATOM     94   O  SGN C   5      26.740   8.237  47.9250  0.00  0.00     0.000 OA
ENDBRANCH 79 89
BRANCH 75 95
ATOM     95  O4  BDP C   6      29.320   9.907  41.4730  0.00  0.00     0.000 O
BRANCH 95 99
ATOM     96  C1  BDP C   6      33.303   9.349  39.9680  0.00  0.00     0.000 C
ATOM     97  C2  BDP C   6      32.446   8.138  40.2080  0.00  0.00     0.000 C
ATOM     98  C3  BDP C   6      30.950   8.443  40.3710  0.00  0.00     0.000 C
ATOM     99  C4  BDP C   6      30.721   9.580  41.3560  0.00  0.00     0.000 C
ATOM    100  C5  BDP C   6      31.644  10.754  40.9520  0.00  0.00     0.000 C
ATOM    101  O5  BDP C   6      32.964  10.193  41.0510  0.00  0.00     0.000 O
BRANCH 100 102
ATOM    102   C  BDP C   6      31.560  11.915  41.9100  0.00  0.00     0.000 C
ATOM    103   O  BDP C   6      31.461  11.757  43.1350  0.00  0.00     0.000 OA
ATOM    104   O  BDP C   6      31.607  13.049  41.4190  0.00  0.00     0.000 OA
ENDBRANCH 100 102
ENDBRANCH 95 99
ENDBRANCH 75 95
ENDBRANCH 74 78
ENDBRANCH 58 74
ENDBRANCH 57 61
ENDBRANCH 37 57
ENDBRANCH 36 40
ENDBRANCH 23 36
ENDBRANCH 22 26
ENDBRANCH 1 22
TORSDOF 20
ENDMDL
MODEL 5
REMARK VINA RESULT:      -8.2     18.929     26.319
ROOT
ATOM      1  C1  NGY C   1      33.360  10.395  48.1110  0.00  0.00     0.000 C
ATOM      2  C2  NGY C   1      34.294   9.603  49.0150  0.00  0.00     0.000 C
ATOM      3  C3  NGY C   1      33.509   8.558  49.8010  0.00  0.00     0.000 C
ATOM      4  C4  NGY C   1      32.385   9.262  50.5380  0.00  0.00     0.000 C
ATOM      5  C5  NGY C   1      31.481   9.943  49.5150  0.00  0.00     0.000 C
ATOM      6  O5  NGY C   1      32.263  10.942  48.8100  0.00  0.00     0.000 O
ATOM      7   O  NGY C   1      34.389   7.883  50.6890  0.00  0.00     0.000 O
ATOM      9  HD  NGY C   1      35.076   8.081  51.1780  0.00  0.00     0.000 HD
ATOM      9   O  NGY C   1      31.635   8.343  51.3180  0.00  0.00     0.000 O
ATOM     11  HD  NGY C   1      32.322   8.541  51.8070  0.00  0.00     0.000 HD
ENDROOT
BRANCH 2 13
ATOM     11   N  NGY C   1      35.354   9.176  48.1320  0.00  0.00     0.000 N
ATOM     13  HD  NGY C   1      36.014   9.200  48.6920  0.00  0.00     0.000 HD
ATOM     13   C  NGY C   1      36.611   9.057  48.5560  0.00  0.00     0.000 C
ATOM     14   O  NGY C   1      36.944   9.444  49.6770  0.00  0.00     0.000 OA
ATOM     15   C  NGY C   1      37.580   8.409  47.6140  0.00  0.00     0.000 C
ENDBRANCH 2 13
BRANCH 5 16
ATOM     16   C  NGY C   1      30.312  10.677  50.0900  0.00  0.00     0.000 C
ATOM     17   O  NGY C   1      26.987   9.198  50.5500  0.00  0.00     0.000 OA
ATOM     18   O  NGY C   1      29.138   9.877  49.9220  0.00  0.00     0.000 O
ATOM     19   S  NGY C   1      27.919  10.258  50.8370  0.00  0.00     0.000 S
ATOM     20   O  NGY C   1      27.442  11.542  50.3970  0.00  0.00     0.000 OA
ATOM     21   O  NGY C   1      28.464  10.271  52.1850  0.00  0.00     0.000 OA
ENDBRANCH 5 16
BRANCH 1 22
ATOM     22  O4  BDP C   2      32.980   9.608  47.0830  0.00  0.00     0.000 O
BRANCH 22 26
ATOM     23  C1  BDP C   2      31.788   9.115  43.1710  0.00  0.00     0.000 C
ATOM     24  C2  BDP C   2      33.050   9.921  43.3690  0.00  0.00     0.000 C
ATOM     25  C3  BDP C   2      33.565   9.717  44.7700  0.00  0.00     0.000 C
ATOM     26  C4  BDP C   2      32.466  10.008  45.7850  0.00  0.00     0.000 C
ATOM     27  C5  BDP C   2      31.189   9.280  45.3870  0.00  0.00     0.000 C
ATOM     28  O5  BDP C   2      30.743   9.620  44.0490  0.00  0.00     0.000 O
ATOM     29   O  BDP C   2      34.123   9.464  42.5460  0.00  0.00     0.000 O
ATOM     31  HD  BDP C   2      34.917   9.502  42.8880  0.00  0.00     0.000 HD
ATOM     31   O  BDP C   2      34.648  10.623  44.9480  0.00  0.00     0.000 O
ATOM     33  HD  BDP C   2      35.442  10.660  45.2910  0.00  0.00     0.000 HD
BRANCH 27 33
ATOM     33   C  BDP C   2      30.030   9.605  46.3000  0.00  0.00     0.000 C
ATOM     34   O  BDP C   2      29.704  10.786  46.5670  0.00  0.00     0.000 OA
ATOM     35   O  BDP C   2      29.421   8.682  46.8150  0.00  0.00     0.000 OA
ENDBRANCH 27 33
BRANCH 23 36
ATOM     36  O4  SGN C   3      31.296   9.110  41.9100  0.00  0.00     0.000 O
BRANCH 36 40
ATOM     37  C1  SGN C   3      29.575   6.624  39.0320  0.00  0.00     0.000 C
ATOM     38  C2  SGN C   3      28.657   7.625  39.7520  0.00  0.00     0.000 C
ATOM     39  C3  SGN C   3      29.480   8.719  40.4170  0.00  0.00     0.000 C
ATOM     40  C4  SGN C   3      30.480   8.076  41.3530  0.00  0.00     0.000 C
ATOM     41  C5  SGN C   3      31.321   7.094  40.5680  0.00  0.00     0.000 C
ATOM     42  O5  SGN C   3      30.477   6.088  39.9870  0.00  0.00     0.000 O
ATOM     43   O  SGN C   3      28.611   9.595  41.1230  0.00  0.00     0.000 O
ATOM     45  HD  SGN C   3      29.394   9.594  41.4940  0.00  0.00     0.000 HD
BRANCH 38 47
ATOM     45   N  SGN C   3      27.534   6.706  39.4950  0.00  0.00     0.000 N
ATOM     47  HD  SGN C   3      28.216   6.920  39.9830  0.00  0.00     0.000 HD
ATOM     47   S  SGN C   3      26.486   7.316  38.4680  0.00  0.00     0.000 S
ATOM     48   O  SGN C   3      25.825   8.449  39.0130  0.00  0.00     0.000 OA
ATOM     49   O  SGN C   3      27.183   7.511  37.2390  0.00  0.00     0.000 OA
ATOM     50   O  SGN C   3      25.507   6.235  38.3650  0.00  0.00     0.000 OA
ENDBRANCH 38 47
BRANCH 41 51
ATOM     51   C  SGN C   3      32.366   6.385  41.3880  0.00  0.00     0.000 C
ATOM     52   O  SGN C   3      36.010   7.143  41.5400  0.00  0.00     0.000 OA
ATOM     53   O  SGN C   3      34.547   6.339  43.2570  0.00  0.00     0.000 OA
ATOM     54   O  SGN C   3      35.004   4.995  41.3200  0.00  0.00     0.000 OA
ATOM     55   O  SGN C   3      33.609   7.021  41.1910  0.00  0.00     0.000 O
ATOM     56   S  SGN C   3      34.914   6.306  41.8920  0.00  0.00     0.000 S
ENDBRANCH 41 51
BRANCH 37 57
ATOM     57  O4  IDS C   4      30.299   7.151  38.0140  0.00  0.00     0.000 O
BRANCH 57 61
ATOM     58  C1  IDS C   4      31.462   7.392  34.4000  0.00  0.00     0.000 C
ATOM     59  C2  IDS C   4      29.993   7.394  34.6830  0.00  0.00     0.000 C
ATOM     60  C3  IDS C   4      29.603   6.411  35.7900  0.00  0.00     0.000 C
ATOM     61  C4  IDS C   4      30.595   6.245  36.9340  0.00  0.00     0.000 C
ATOM     62  C5  IDS C   4      32.033   6.434  36.4380  0.00  0.00     0.000 C
ATOM     63  O5  IDS C   4      32.160   7.587  35.6180  0.00  0.00     0.000 O
ATOM     64   O  IDS C   4      29.456   5.161  35.1430  0.00  0.00     0.000 O
ATOM     66  HD  IDS C   4      30.071   4.610  35.4040  0.00  0.00     0.000 HD
BRANCH 59 66
ATOM     66   O  IDS C   4      29.526   8.723  35.1210  0.00  0.00     0.000 O
ATOM     67   S  IDS C   4      28.745   9.592  34.0410  0.00  0.00     0.000 S
ATOM     68   O  IDS C   4      27.548   8.821  33.8020  0.00  0.00     0.000 OA
ATOM     69   O  IDS C   4      28.527  10.875  34.6810  0.00  0.00     0.000 OA
ATOM     70   O  IDS C   4      29.584   9.662  32.8550  0.00  0.00     0.000 OA
ENDBRANCH 59 66
BRANCH 62 71
ATOM     71   C  IDS C   4      33.030   6.622  37.5650  0.00  0.00     0.000 C
ATOM     72   O  IDS C   4      33.403   5.665  38.2160  0.00  0.00     0.000 OA
ATOM     73   O  IDS C   4      33.371   7.782  37.8700  0.00  0.00     0.000 OA
ENDBRANCH 62 71
BRANCH 58 74
ATOM     74  O4  SGN C   5      31.881   6.421  33.5400  0.00  0.00     0.000 O
BRANCH 74 78
ATOM     75  C1  SGN C   5      34.970   6.506  30.7300  0.00  0.00     0.000 C
ATOM     76  C2  SGN C   5      34.526   5.109  31.2040  0.00  0.00     0.000 C
ATOM     77  C3  SGN C   5      33.188   5.190  31.9510  0.00  0.00     0.000 C
ATOM     78  C4  SGN C   5      33.195   6.297  32.9960  0.00  0.00     0.000 C
ATOM     79  C5  SGN C   5      33.632   7.603  32.3480  0.00  0.00     0.000 C
ATOM     80  O5  SGN C   5      34.965   7.448  31.7940  0.00  0.00     0.000 O
ATOM     81   O  SGN C   5      32.922   3.930  32.5600  0.00  0.00     0.000 O
ATOM     83  HD  SGN C   5      33.132   3.185  32.1720  0.00  0.00     0.000 HD
BRANCH 76 85
ATOM     83   N  SGN C   5      34.665   3.762  30.6370  0.00  0.00     0.000 N
ATOM     85  HD  SGN C   5      35.126   3.129  30.2670  0.00  0.00     0.000 HD
ATOM     85   S  SGN C   5      35.478   3.279  29.3340  0.00  0.00     0.000 S
ATOM     86   O  SGN C   5      35.377   1.870  29.1780  0.00  0.00     0.000 OA
ATOM     87   O  SGN C   5      35.043   4.082  28.2470  0.00  0.00     0.000 OA
ATOM     88   O  SGN C   5      36.862   3.665  29.8500  0.00  0.00     0.000 OA
ENDBRANCH 76 85
BRANCH 79 89
ATOM     89   C  SGN C   5      33.647   8.777  33.3060  0.00  0.00     0.000 C
ATOM     90   O  SGN C   5      34.860   8.746  34.0980  0.00  0.00     0.000 O
ATOM     91   S  SGN C   5      35.455  10.163  34.5610  0.00  0.00     0.000 S
ATOM     92   O  SGN C   5      35.574  10.963  33.3700  0.00  0.00     0.000 OA
ATOM     93   O  SGN C   5      34.525  10.723  35.5090  0.00  0.00     0.000 OA
ATOM     94   O  SGN C   5      36.721   9.815  35.1460  0.00  0.00     0.000 OA
ENDBRANCH 79 89
BRANCH 75 95
ATOM     95  O4  BDP C   6      34.062   6.882  29.7800  0.00  0.00     0.000 O
BRANCH 95 99
ATOM     96  C1  BDP C   6      34.626   9.268  26.2540  0.00  0.00     0.000 C
ATOM     97  C2  BDP C   6      35.786   8.469  26.7780  0.00  0.00     0.000 C
ATOM     98  C3  BDP C   6      35.399   7.375  27.7840  0.00  0.00     0.000 C
ATOM     99  C4  BDP C   6      34.472   7.918  28.8610  0.00  0.00     0.000 C
ATOM    100  C5  BDP C   6      33.320   8.677  28.1620  0.00  0.00     0.000 C
ATOM    101  O5  BDP C   6      33.994   9.718  27.4380  0.00  0.00     0.000 O
BRANCH 100 102
ATOM    102   C  BDP C   6      32.375   9.328  29.1400  0.00  0.00     0.000 C
ATOM    103   O  BDP C   6      31.336   8.773  29.5260  0.00  0.00     0.000 OA
ATOM    104   O  BDP C   6      32.688  10.449  29.5580  0.00  0.00     0.000 OA
ENDBRANCH 100 102
ENDBRANCH 95 99
ENDBRANCH 75 95
ENDBRANCH 74 78
ENDBRANCH 58 74
ENDBRANCH 57 61
ENDBRANCH 37 57
ENDBRANCH 36 40
ENDBRANCH 23 36
ENDBRANCH 22 26
ENDBRANCH 1 22
TORSDOF 20
ENDMDL
MODEL 6
REMARK VINA RESULT:      -8.2      5.749      9.144
ROOT
ATOM      1  C1  NGY C   1      16.700  12.188  46.8970  0.00  0.00     0.000 C
ATOM      2  C2  NGY C   1      17.118  12.144  48.3600  0.00  0.00     0.000 C
ATOM      3  C3  NGY C   1      17.946  13.376  48.7100  0.00  0.00     0.000 C
ATOM      4  C4  NGY C   1      19.106  13.462  47.7380  0.00  0.00     0.000 C
ATOM      5  C5  NGY C   1      18.551  13.584  46.3220  0.00  0.00     0.000 C
ATOM      6  O5  NGY C   1      17.793  12.382  46.0250  0.00  0.00     0.000 O
ATOM      7   O  NGY C   1      18.384  13.276  50.0580  0.00  0.00     0.000 O
ATOM      9  HD  NGY C   1      18.648  12.652  50.5970  0.00  0.00     0.000 HD
ATOM      9   O  NGY C   1      19.937  14.575  48.0340  0.00  0.00     0.000 O
ATOM     11  HD  NGY C   1      20.201  13.951  48.5740  0.00  0.00     0.000 HD
ENDROOT
BRANCH 2 13
ATOM     11   N  NGY C   1      16.165  12.231  49.4410  0.00  0.00     0.000 N
ATOM     13  HD  NGY C   1      16.189  11.408  49.7090  0.00  0.00     0.000 HD
ATOM     13   C  NGY C   1      15.852  11.170  50.1830  0.00  0.00     0.000 C
ATOM     14   O  NGY C   1      16.254  10.044  49.8860  0.00  0.00     0.000 OA
ATOM     15   C  NGY C   1      15.017  11.423  51.4010  0.00  0.00     0.000 C
ENDBRANCH 2 13
BRANCH 5 16
ATOM     16   C  NGY C   1      19.581  13.688  45.2420  0.00  0.00     0.000 C
ATOM     17   O  NGY C   1      21.885  10.980  44.3390  0.00  0.00     0.000 OA
ATOM     18   O  NGY C   1      20.434  12.543  45.3090  0.00  0.00     0.000 O
ATOM     19   S  NGY C   1      21.275  12.245  44.0150  0.00  0.00     0.000 S
ATOM     20   O  NGY C   1      22.243  13.303  43.8840  0.00  0.00     0.000 OA
ATOM     21   O  NGY C   1      20.296  12.218  42.9410  0.00  0.00     0.000 OA
ENDBRANCH 5 16
BRANCH 1 22
ATOM     22  O4  BDP C   2      15.742  13.128  46.7470  0.00  0.00     0.000 O
BRANCH 22 26
ATOM     23  C1  BDP C   2      11.903  13.288  45.2630  0.00  0.00     0.000 C
ATOM     24  C2  BDP C   2      12.660  12.013  44.9730  0.00  0.00     0.000 C
ATOM     25  C3  BDP C   2      13.875  11.933  45.8590  0.00  0.00     0.000 C
ATOM     26  C4  BDP C   2      14.708  13.204  45.7310  0.00  0.00     0.000 C
ATOM     27  C5  BDP C   2      13.810  14.426  45.8680  0.00  0.00     0.000 C
ATOM     28  O5  BDP C   2      12.724  14.435  44.9060  0.00  0.00     0.000 O
ATOM     29   O  BDP C   2      11.913  10.846  45.3180  0.00  0.00     0.000 O
ATOM     31  HD  BDP C   2      12.364  10.178  45.6340  0.00  0.00     0.000 HD
ATOM     31   O  BDP C   2      14.629  10.808  45.4260  0.00  0.00     0.000 O
ATOM     33  HD  BDP C   2      15.080  10.139  45.7420  0.00  0.00     0.000 HD
BRANCH 27 33
ATOM     33   C  BDP C   2      14.559  15.720  45.6530  0.00  0.00     0.000 C
ATOM     34   O  BDP C   2      14.983  16.411  46.6100  0.00  0.00     0.000 OA
ATOM     35   O  BDP C   2      14.722  16.113  44.5090  0.00  0.00     0.000 OA
ENDBRANCH 27 33
BRANCH 23 36
ATOM     36  O4  SGN C   3      10.718  13.417  44.6230  0.00  0.00     0.000 O
BRANCH 36 40
ATOM     37  C1  SGN C   3       6.763  14.714  44.9490  0.00  0.00     0.000 C
ATOM     38  C2  SGN C   3       7.835  15.766  44.6200  0.00  0.00     0.000 C
ATOM     39  C3  SGN C   3       9.102  15.094  44.1130  0.00  0.00     0.000 C
ATOM     40  C4  SGN C   3       9.573  14.095  45.1470  0.00  0.00     0.000 C
ATOM     41  C5  SGN C   3       8.453  13.117  45.4260  0.00  0.00     0.000 C
ATOM     42  O5  SGN C   3       7.302  13.824  45.9140  0.00  0.00     0.000 O
ATOM     43   O  SGN C   3      10.094  16.084  43.8730  0.00  0.00     0.000 O
ATOM     45  HD  SGN C   3      10.472  15.329  44.0640  0.00  0.00     0.000 HD
BRANCH 38 47
ATOM     45   N  SGN C   3       7.017  16.816  45.2530  0.00  0.00     0.000 N
ATOM     47  HD  SGN C   3       7.603  16.184  45.3390  0.00  0.00     0.000 HD
ATOM     47   S  SGN C   3       6.397  17.816  44.1840  0.00  0.00     0.000 S
ATOM     48   O  SGN C   3       7.408  18.574  43.5370  0.00  0.00     0.000 OA
ATOM     49   O  SGN C   3       5.542  17.039  43.3470  0.00  0.00     0.000 OA
ATOM     50   O  SGN C   3       5.633  18.726  45.0370  0.00  0.00     0.000 OA
ENDBRANCH 38 47
BRANCH 41 51
ATOM     51   C  SGN C   3       8.796  12.061  46.4410  0.00  0.00     0.000 C
ATOM     52   O  SGN C   3      10.907  12.460  49.4850  0.00  0.00     0.000 OA
ATOM     53   O  SGN C   3       8.989  11.072  49.1320  0.00  0.00     0.000 OA
ATOM     54   O  SGN C   3      11.011  10.690  47.8950  0.00  0.00     0.000 OA
ATOM     55   O  SGN C   3       9.577  12.645  47.4600  0.00  0.00     0.000 O
ATOM     56   S  SGN C   3      10.177  11.619  48.5980  0.00  0.00     0.000 S
ENDBRANCH 41 51
BRANCH 37 57
ATOM     57  O4  IDS C   4       6.342  13.984  43.8870  0.00  0.00     0.000 O
BRANCH 57 61
ATOM     58  C1  IDS C   4       3.614  12.628  41.6090  0.00  0.00     0.000 C
ATOM     59  C2  IDS C   4       3.555  14.064  42.0240  0.00  0.00     0.000 C
ATOM     60  C3  IDS C   4       3.948  14.274  43.4880  0.00  0.00     0.000 C
ATOM     61  C4  IDS C   4       5.046  13.372  44.0350  0.00  0.00     0.000 C
ATOM     62  C5  IDS C   4       5.009  11.998  43.3570  0.00  0.00     0.000 C
ATOM     63  O5  IDS C   4       4.889  12.109  41.9460  0.00  0.00     0.000 O
ATOM     64   O  IDS C   4       2.765  14.034  44.2280  0.00  0.00     0.000 O
ATOM     66  HD  IDS C   4       2.849  13.320  44.7110  0.00  0.00     0.000 HD
BRANCH 59 66
ATOM     66   O  IDS C   4       4.471  14.898  41.2220  0.00  0.00     0.000 O
ATOM     67   S  IDS C   4       3.796  15.935  40.2220  0.00  0.00     0.000 S
ATOM     68   O  IDS C   4       3.116  16.850  41.1070  0.00  0.00     0.000 OA
ATOM     69   O  IDS C   4       4.901  16.511  39.4800  0.00  0.00     0.000 OA
ATOM     70   O  IDS C   4       2.859  15.190  39.3970  0.00  0.00     0.000 OA
ENDBRANCH 59 66
BRANCH 62 71
ATOM     71   C  IDS C   4       6.264  11.181  43.5980  0.00  0.00     0.000 C
ATOM     72   O  IDS C   4       7.143  11.151  42.7580  0.00  0.00     0.000 OA
ATOM     73   O  IDS C   4       6.322  10.469  44.6200  0.00  0.00     0.000 OA
ENDBRANCH 62 71
BRANCH 58 74
ATOM     74  O4  SGN C   5       2.500  11.899  41.9010  0.00  0.00     0.000 O
BRANCH 74 78
ATOM     75  C1  SGN C   5       0.068   8.695  40.7780  0.00  0.00     0.000 C
ATOM     76  C2  SGN C   5       1.260   8.351  41.6900  0.00  0.00     0.000 C
ATOM     77  C3  SGN C   5       1.860   9.623  42.3020  0.00  0.00     0.000 C
ATOM     78  C4  SGN C   5       2.092  10.697  41.2480  0.00  0.00     0.000 C
ATOM     79  C5  SGN C   5       0.809  10.923  40.4630  0.00  0.00     0.000 C
ATOM     80  O5  SGN C   5       0.411   9.685  39.8170  0.00  0.00     0.000 O
ATOM     81   O  SGN C   5       3.081   9.291  42.9550  0.00  0.00     0.000 O
ATOM     83  HD  SGN C   5       3.179   8.544  43.3820  0.00  0.00     0.000 HD
BRANCH 76 85
ATOM     83   N  SGN C   5       0.993   6.909  41.6110  0.00  0.00     0.000 N
ATOM     85  HD  SGN C   5       0.578   6.191  41.8610  0.00  0.00     0.000 HD
ATOM     85   S  SGN C   5       0.735   5.850  42.7970  0.00  0.00     0.000 S
ATOM     86   O  SGN C   5       0.472   4.559  42.2630  0.00  0.00     0.000 OA
ATOM     87   O  SGN C   5       1.821   5.965  43.7040  0.00  0.00     0.000 OA
ATOM     88   O  SGN C   5      -0.551   6.491  43.3140  0.00  0.00     0.000 OA
ENDBRANCH 76 85
BRANCH 79 89
ATOM     89   C  SGN C   5       0.932  11.996  39.4000  0.00  0.00     0.000 C
ATOM     90   O  SGN C   5      -0.326  12.134  38.6950  0.00  0.00     0.000 O
ATOM     91   S  SGN C   5      -0.684  13.596  38.1380  0.00  0.00     0.000 S
ATOM     92   O  SGN C   5      -0.556  14.498  39.2530  0.00  0.00     0.000 OA
ATOM     93   O  SGN C   5       0.253  13.889  37.0830  0.00  0.00     0.000 OA
ATOM     94   O  SGN C   5      -2.036  13.450  37.6720  0.00  0.00     0.000 OA
ENDBRANCH 79 89
BRANCH 75 95
ATOM     95  O4  BDP C   6      -0.907   9.176  41.6050  0.00  0.00     0.000 O
BRANCH 95 99
ATOM     96  C1  BDP C   6      -5.027   8.092  41.0610  0.00  0.00     0.000 C
ATOM     97  C2  BDP C   6      -4.024   7.659  40.0290  0.00  0.00     0.000 C
ATOM     98  C3  BDP C   6      -2.561   7.751  40.4880  0.00  0.00     0.000 C
ATOM     99  C4  BDP C   6      -2.266   9.102  41.1230  0.00  0.00     0.000 C
ATOM    100  C5  BDP C   6      -3.360   9.383  42.1800  0.00  0.00     0.000 C
ATOM    101  O5  BDP C   6      -4.575   9.386  41.4130  0.00  0.00     0.000 O
BRANCH 100 102
ATOM    102   C  BDP C   6      -3.213  10.738  42.8240  0.00  0.00     0.000 C
ATOM    103   O  BDP C   6      -3.586  11.780  42.2660  0.00  0.00     0.000 OA
ATOM    104   O  BDP C   6      -2.709  10.769  43.9530  0.00  0.00     0.000 OA
ENDBRANCH 100 102
ENDBRANCH 95 99
ENDBRANCH 75 95
ENDBRANCH 74 78
ENDBRANCH 58 74
ENDBRANCH 57 61
ENDBRANCH 37 57
ENDBRANCH 36 40
ENDBRANCH 23 36
ENDBRANCH 22 26
ENDBRANCH 1 22
TORSDOF 20
ENDMDL
MODEL 7
REMARK VINA RESULT:      -8.1      4.320     16.683
ROOT
ATOM      1  C1  NGY C   1      -0.993  11.454  55.7150  0.00  0.00     0.000 C
ATOM      2  C2  NGY C   1      -2.431  11.093  55.3700  0.00  0.00     0.000 C
ATOM      3  C3  NGY C   1      -3.246  12.356  55.1130  0.00  0.00     0.000 C
ATOM      4  C4  NGY C   1      -3.109  13.264  56.3200  0.00  0.00     0.000 C
ATOM      5  C5  NGY C   1      -1.635  13.615  56.5040  0.00  0.00     0.000 C
ATOM      6  O5  NGY C   1      -0.906  12.389  56.7690  0.00  0.00     0.000 O
ATOM      7   O  NGY C   1      -4.598  11.997  54.8660  0.00  0.00     0.000 O
ATOM      9  HD  NGY C   1      -5.162  11.404  55.1500  0.00  0.00     0.000 HD
ATOM      9   O  NGY C   1      -3.876  14.448  56.1550  0.00  0.00     0.000 O
ATOM     11  HD  NGY C   1      -4.440  13.855  56.4390  0.00  0.00     0.000 HD
ENDROOT
BRANCH 2 13
ATOM     11   N  NGY C   1      -2.184   9.935  54.5430  0.00  0.00     0.000 N
ATOM     13  HD  NGY C   1      -2.992   9.625  54.5020  0.00  0.00     0.000 HD
ATOM     13   C  NGY C   1      -3.166   9.105  54.1940  0.00  0.00     0.000 C
ATOM     14   O  NGY C   1      -4.293   9.211  54.6800  0.00  0.00     0.000 OA
ATOM     15   C  NGY C   1      -2.834   8.064  53.1680  0.00  0.00     0.000 C
ENDBRANCH 2 13
BRANCH 5 16
ATOM     16   C  NGY C   1      -1.337  14.519  57.6570  0.00  0.00     0.000 C
ATOM     17   O  NGY C   1      -1.662  13.531  61.1750  0.00  0.00     0.000 OA
ATOM     18   O  NGY C   1      -1.775  13.887  58.8630  0.00  0.00     0.000 O
ATOM     19   S  NGY C   1      -1.160  14.457  60.1920  0.00  0.00     0.000 S
ATOM     20   O  NGY C   1      -1.688  15.784  60.3700  0.00  0.00     0.000 OA
ATOM     21   O  NGY C   1       0.277  14.428  59.9720  0.00  0.00     0.000 OA
ENDBRANCH 5 16
BRANCH 1 22
ATOM     22  O4  BDP C   2      -0.370  11.876  54.5940  0.00  0.00     0.000 O
BRANCH 22 26
ATOM     23  C1  BDP C   2       3.031  12.271  52.3050  0.00  0.00     0.000 C
ATOM     24  C2  BDP C   2       2.778  10.889  52.8590  0.00  0.00     0.000 C
ATOM     25  C3  BDP C   2       1.357  10.793  53.3480  0.00  0.00     0.000 C
ATOM     26  C4  BDP C   2       1.056  11.928  54.3220  0.00  0.00     0.000 C
ATOM     27  C5  BDP C   2       1.512  13.254  53.7280  0.00  0.00     0.000 C
ATOM     28  O5  BDP C   2       2.919  13.254  53.3730  0.00  0.00     0.000 O
ATOM     29   O  BDP C   2       2.857   9.877  51.8550  0.00  0.00     0.000 O
ATOM     31  HD  BDP C   2       2.308   9.212  51.9320  0.00  0.00     0.000 HD
ATOM     31   O  BDP C   2       1.229   9.539  54.0060  0.00  0.00     0.000 O
ATOM     33  HD  BDP C   2       0.680   8.873  54.0820  0.00  0.00     0.000 HD
BRANCH 27 33
ATOM     33   C  BDP C   2       1.331  14.408  54.6850  0.00  0.00     0.000 C
ATOM     34   O  BDP C   2       0.881  15.517  54.3120  0.00  0.00     0.000 OA
ATOM     35   O  BDP C   2       1.670  14.257  55.8470  0.00  0.00     0.000 OA
ENDBRANCH 27 33
BRANCH 23 36
ATOM     36  O4  SGN C   3       4.236  12.446  51.7130  0.00  0.00     0.000 O
BRANCH 36 40
ATOM     37  C1  SGN C   3       6.358  14.565  48.8080  0.00  0.00     0.000 C
ATOM     38  C2  SGN C   3       5.550  15.375  49.8350  0.00  0.00     0.000 C
ATOM     39  C3  SGN C   3       5.213  14.515  51.0450  0.00  0.00     0.000 C
ATOM     40  C4  SGN C   3       4.476  13.279  50.5750  0.00  0.00     0.000 C
ATOM     41  C5  SGN C   3       5.331  12.560  49.5550  0.00  0.00     0.000 C
ATOM     42  O5  SGN C   3       5.592  13.429  48.4420  0.00  0.00     0.000 O
ATOM     43   O  SGN C   3       4.416  15.271  51.9490  0.00  0.00     0.000 O
ATOM     45  HD  SGN C   3       4.242  14.427  52.0360  0.00  0.00     0.000 HD
BRANCH 38 47
ATOM     45   N  SGN C   3       5.692  16.351  48.7400  0.00  0.00     0.000 N
ATOM     47  HD  SGN C   3       5.368  15.599  49.0220  0.00  0.00     0.000 HD
ATOM     47   S  SGN C   3       6.250  17.748  49.2530  0.00  0.00     0.000 S
ATOM     48   O  SGN C   3       5.319  18.394  50.1090  0.00  0.00     0.000 OA
ATOM     49   O  SGN C   3       7.548  17.497  49.7900  0.00  0.00     0.000 OA
ATOM     50   O  SGN C   3       6.320  18.515  48.0110  0.00  0.00     0.000 OA
ENDBRANCH 38 47
BRANCH 41 51
ATOM     51   C  SGN C   3       4.711  11.303  49.0100  0.00  0.00     0.000 C
ATOM     52   O  SGN C   3       1.253  10.884  47.6880  0.00  0.00     0.000 OA
ATOM     53   O  SGN C   3       3.286   9.821  47.0020  0.00  0.00     0.000 OA
ATOM     54   O  SGN C   3       2.392   9.435  49.1970  0.00  0.00     0.000 OA
ATOM     55   O  SGN C   3       3.402  11.593  48.5710  0.00  0.00     0.000 O
ATOM     56   S  SGN C   3       2.500  10.312  48.0690  0.00  0.00     0.000 S
ENDBRANCH 41 51
BRANCH 37 57
ATOM     57  O4  IDS C   4       7.566  14.137  49.2500  0.00  0.00     0.000 O
BRANCH 57 61
ATOM     58  C1  IDS C   4      11.360  13.913  49.0920  0.00  0.00     0.000 C
ATOM     59  C2  IDS C   4      10.715  15.258  48.9820  0.00  0.00     0.000 C
ATOM     60  C3  IDS C   4       9.442  15.236  48.1320  0.00  0.00     0.000 C
ATOM     61  C4  IDS C   4       8.577  13.987  48.2350  0.00  0.00     0.000 C
ATOM     62  C5  IDS C   4       9.440  12.748  48.4990  0.00  0.00     0.000 C
ATOM     63  O5  IDS C   4      10.390  12.978  49.5300  0.00  0.00     0.000 O
ATOM     64   O  IDS C   4       9.885  15.363  46.7940  0.00  0.00     0.000 O
ATOM     66  HD  IDS C   4       9.729  14.634  46.3530  0.00  0.00     0.000 HD
BRANCH 59 66
ATOM     66   O  IDS C   4      10.326  15.783  50.3050  0.00  0.00     0.000 O
ATOM     67   S  IDS C   4      11.295  16.867  50.9520  0.00  0.00     0.000 S
ATOM     68   O  IDS C   4      11.190  17.985  50.0460  0.00  0.00     0.000 OA
ATOM     69   O  IDS C   4      10.758  17.102  52.2780  0.00  0.00     0.000 OA
ATOM     70   O  IDS C   4      12.635  16.300  50.9530  0.00  0.00     0.000 OA
ENDBRANCH 59 66
BRANCH 62 71
ATOM     71   C  IDS C   4       8.633  11.545  48.9480  0.00  0.00     0.000 C
ATOM     72   O  IDS C   4       8.777  11.097  50.0690  0.00  0.00     0.000 OA
ATOM     73   O  IDS C   4       7.905  10.973  48.1120  0.00  0.00     0.000 OA
ENDBRANCH 62 71
BRANCH 58 74
ATOM     74  O4  SGN C   5      12.184  13.584  48.0570  0.00  0.00     0.000 O
BRANCH 74 78
ATOM     75  C1  SGN C   5      15.368  11.206  46.7730  0.00  0.00     0.000 C
ATOM     76  C2  SGN C   5      14.130  10.453  47.2940  0.00  0.00     0.000 C
ATOM     77  C3  SGN C   5      12.927  11.399  47.4070  0.00  0.00     0.000 C
ATOM     78  C4  SGN C   5      13.295  12.691  48.1240  0.00  0.00     0.000 C
ATOM     79  C5  SGN C   5      14.519  13.307  47.4630  0.00  0.00     0.000 C
ATOM     80  O5  SGN C   5      15.631  12.376  47.5360  0.00  0.00     0.000 O
ATOM     81   O  SGN C   5      11.875  10.729  48.0930  0.00  0.00     0.000 O
ATOM     83  HD  SGN C   5      11.723   9.884  47.9780  0.00  0.00     0.000 HD
BRANCH 76 85
ATOM     83   N  SGN C   5      14.725   9.391  46.4730  0.00  0.00     0.000 N
ATOM     85  HD  SGN C   5      14.669   8.693  45.9640  0.00  0.00     0.000 HD
ATOM     85   S  SGN C   5      14.327   7.834  46.3680  0.00  0.00     0.000 S
ATOM     86   O  SGN C   5      15.144   7.176  45.4090  0.00  0.00     0.000 OA
ATOM     87   O  SGN C   5      14.330   7.311  47.6870  0.00  0.00     0.000 OA
ATOM     88   O  SGN C   5      12.922   8.060  45.8140  0.00  0.00     0.000 OA
ENDBRANCH 76 85
BRANCH 79 89
ATOM     89   C  SGN C   5      14.951  14.616  48.0940  0.00  0.00     0.000 C
ATOM     90   O  SGN C   5      15.088  14.447  49.5260  0.00  0.00     0.000 O
ATOM     91   S  SGN C   5      16.200  15.347  50.2540  0.00  0.00     0.000 S
ATOM     92   O  SGN C   5      17.430  15.133  49.5370  0.00  0.00     0.000 OA
ATOM     93   O  SGN C   5      15.752  16.714  50.1830  0.00  0.00     0.000 OA
ATOM     94   O  SGN C   5      16.221  14.825  51.5940  0.00  0.00     0.000 OA
ENDBRANCH 79 89
BRANCH 75 95
ATOM     95  O4  BDP C   6      15.077  11.554  45.4840  0.00  0.00     0.000 O
BRANCH 95 99
ATOM     96  C1  BDP C   6      17.693  13.080  42.4390  0.00  0.00     0.000 C
ATOM     97  C2  BDP C   6      18.280  12.247  43.5430  0.00  0.00     0.000 C
ATOM     98  C3  BDP C   6      17.247  11.442  44.3480  0.00  0.00     0.000 C
ATOM     99  C4  BDP C   6      16.076  12.316  44.7730  0.00  0.00     0.000 C
ATOM    100  C5  BDP C   6      15.568  13.075  43.5250  0.00  0.00     0.000 C
ATOM    101  O5  BDP C   6      16.709  13.844  43.1110  0.00  0.00     0.000 O
BRANCH 100 102
ATOM    102   C  BDP C   6      14.451  14.036  43.8450  0.00  0.00     0.000 C
ATOM    103   O  BDP C   6      14.656  15.135  44.3810  0.00  0.00     0.000 OA
ATOM    104   O  BDP C   6      13.306  13.686  43.5340  0.00  0.00     0.000 OA
ENDBRANCH 100 102
ENDBRANCH 95 99
ENDBRANCH 75 95
ENDBRANCH 74 78
ENDBRANCH 58 74
ENDBRANCH 57 61
ENDBRANCH 37 57
ENDBRANCH 36 40
ENDBRANCH 23 36
ENDBRANCH 22 26
ENDBRANCH 1 22
TORSDOF 20
ENDMDL
MODEL 8
REMARK VINA RESULT:      -8.0      6.709     15.414
ROOT
ATOM      1  C1  NGY C   1       0.471  16.156  37.0600  0.00  0.00     0.000 C
ATOM      2  C2  NGY C   1      -0.539  17.289  37.1750  0.00  0.00     0.000 C
ATOM      3  C3  NGY C   1      -1.808  16.797  37.8630  0.00  0.00     0.000 C
ATOM      4  C4  NGY C   1      -2.321  15.587  37.1070  0.00  0.00     0.000 C
ATOM      5  C5  NGY C   1      -1.250  14.500  37.1370  0.00  0.00     0.000 C
ATOM      6  O5  NGY C   1      -0.073  15.003  36.4530  0.00  0.00     0.000 O
ATOM      7   O  NGY C   1      -2.761  17.851  37.8930  0.00  0.00     0.000 O
ATOM      9  HD  NGY C   1      -3.007  18.502  37.3780  0.00  0.00     0.000 HD
ATOM      9   O  NGY C   1      -3.525  15.101  37.6820  0.00  0.00     0.000 O
ATOM     11  HD  NGY C   1      -3.772  15.752  37.1670  0.00  0.00     0.000 HD
ENDROOT
BRANCH 2 13
ATOM     11   N  NGY C   1       0.254  18.365  37.7210  0.00  0.00     0.000 N
ATOM     13  HD  NGY C   1      -0.174  19.035  37.3770  0.00  0.00     0.000 HD
ATOM     13   C  NGY C   1      -0.027  19.641  37.4600  0.00  0.00     0.000 C
ATOM     14   O  NGY C   1      -0.884  19.947  36.6290  0.00  0.00     0.000 OA
ATOM     15   C  NGY C   1       0.729  20.670  38.2430  0.00  0.00     0.000 C
ENDBRANCH 2 13
BRANCH 5 16
ATOM     16   C  NGY C   1      -1.613  13.230  36.4370  0.00  0.00     0.000 C
ATOM     17   O  NGY C   1      -2.592  10.145  38.1630  0.00  0.00     0.000 OA
ATOM     18   O  NGY C   1      -1.727  12.186  37.4070  0.00  0.00     0.000 O
ATOM     19   S  NGY C   1      -2.521  10.912  36.9450  0.00  0.00     0.000 S
ATOM     20   O  NGY C   1      -1.731  10.262  35.9330  0.00  0.00     0.000 OA
ATOM     21   O  NGY C   1      -3.787  11.429  36.4500  0.00  0.00     0.000 OA
ENDBRANCH 5 16
BRANCH 1 22
ATOM     22  O4  BDP C   2       0.984  15.905  38.2830  0.00  0.00     0.000 O
BRANCH 22 26
ATOM     23  C1  BDP C   2       4.105  14.776  40.7230  0.00  0.00     0.000 C
ATOM     24  C2  BDP C   2       4.402  15.910  39.7700  0.00  0.00     0.000 C
ATOM     25  C3  BDP C   2       3.112  16.457  39.2170  0.00  0.00     0.000 C
ATOM     26  C4  BDP C   2       2.276  15.332  38.6160  0.00  0.00     0.000 C
ATOM     27  C5  BDP C   2       2.190  14.171  39.5980  0.00  0.00     0.000 C
ATOM     28  O5  BDP C   2       3.494  13.674  39.9950  0.00  0.00     0.000 O
ATOM     29   O  BDP C   2       4.989  17.033  40.4280  0.00  0.00     0.000 O
ATOM     31  HD  BDP C   2       4.764  17.815  40.1330  0.00  0.00     0.000 HD
ATOM     31   O  BDP C   2       3.461  17.398  38.2100  0.00  0.00     0.000 O
ATOM     33  HD  BDP C   2       3.236  18.181  37.9150  0.00  0.00     0.000 HD
BRANCH 27 33
ATOM     33   C  BDP C   2       1.456  12.982  39.0240  0.00  0.00     0.000 C
ATOM     34   O  BDP C   2       1.720  12.521  37.8880  0.00  0.00     0.000 OA
ATOM     35   O  BDP C   2       0.555  12.484  39.6800  0.00  0.00     0.000 OA
ENDBRANCH 27 33
BRANCH 23 36
ATOM     36  O4  SGN C   3       5.174  14.283  41.3890  0.00  0.00     0.000 O
BRANCH 36 40
ATOM     37  C1  SGN C   3       6.489  12.328  44.8360  0.00  0.00     0.000 C
ATOM     38  C2  SGN C   3       5.787  11.484  43.7600  0.00  0.00     0.000 C
ATOM     39  C3  SGN C   3       5.771  12.223  42.4300  0.00  0.00     0.000 C
ATOM     40  C4  SGN C   3       5.112  13.571  42.6280  0.00  0.00     0.000 C
ATOM     41  C5  SGN C   3       5.850  14.320  43.7150  0.00  0.00     0.000 C
ATOM     42  O5  SGN C   3       5.806  13.568  44.9380  0.00  0.00     0.000 O
ATOM     43   O  SGN C   3       5.065  11.446  41.4700  0.00  0.00     0.000 O
ATOM     45  HD  SGN C   3       5.008  12.287  41.2690  0.00  0.00     0.000 HD
BRANCH 38 47
ATOM     45   N  SGN C   3       5.084  10.285  44.2490  0.00  0.00     0.000 N
ATOM     47  HD  SGN C   3       5.050  11.040  43.8260  0.00  0.00     0.000 HD
ATOM     47   S  SGN C   3       6.094   9.140  44.6930  0.00  0.00     0.000 S
ATOM     48   O  SGN C   3       6.819   8.629  43.5840  0.00  0.00     0.000 OA
ATOM     49   O  SGN C   3       6.862   9.669  45.7720  0.00  0.00     0.000 OA
ATOM     50   O  SGN C   3       5.177   8.095  45.1460  0.00  0.00     0.000 OA
ENDBRANCH 38 47
BRANCH 41 51
ATOM     51   C  SGN C   3       5.292  15.687  44.0080  0.00  0.00     0.000 C
ATOM     52   O  SGN C   3       6.811  18.975  43.1380  0.00  0.00     0.000 OA
ATOM     53   O  SGN C   3       4.505  18.341  43.2410  0.00  0.00     0.000 OA
ATOM     54   O  SGN C   3       5.855  18.351  45.2270  0.00  0.00     0.000 OA
ATOM     55   O  SGN C   3       6.158  16.658  43.4630  0.00  0.00     0.000 O
ATOM     56   S  SGN C   3       5.798  18.228  43.8010  0.00  0.00     0.000 S
ENDBRANCH 41 51
BRANCH 37 57
ATOM     57  O4  IDS C   4       7.798  12.584  44.5900  0.00  0.00     0.000 O
BRANCH 57 61
ATOM     58  C1  IDS C   4      11.510  12.445  45.4080  0.00  0.00     0.000 C
ATOM     59  C2  IDS C   4      10.710  11.184  45.4850  0.00  0.00     0.000 C
ATOM     60  C3  IDS C   4       9.321  11.400  46.0910  0.00  0.00     0.000 C
ATOM     61  C4  IDS C   4       8.630  12.715  45.7580  0.00  0.00     0.000 C
ATOM     62  C5  IDS C   4       9.658  13.838  45.5750  0.00  0.00     0.000 C
ATOM     63  O5  IDS C   4      10.738  13.433  44.7470  0.00  0.00     0.000 O
ATOM     64   O  IDS C   4       9.512  11.339  47.4920  0.00  0.00     0.000 O
ATOM     66  HD  IDS C   4       9.365  12.113  47.8520  0.00  0.00     0.000 HD
BRANCH 59 66
ATOM     66   O  IDS C   4      10.497  10.594  44.1490  0.00  0.00     0.000 O
ATOM     67   S  IDS C   4      10.737   9.026  44.0180  0.00  0.00     0.000 S
ATOM     68   O  IDS C   4       9.707   8.464  44.8580  0.00  0.00     0.000 OA
ATOM     69   O  IDS C   4      10.594   8.744  42.6030  0.00  0.00     0.000 OA
ATOM     70   O  IDS C   4      12.066   8.750  44.5410  0.00  0.00     0.000 OA
ENDBRANCH 59 66
BRANCH 62 71
ATOM     71   C  IDS C   4       9.077  15.074  44.9150  0.00  0.00     0.000 C
ATOM     72   O  IDS C   4       9.276  15.286  43.7350  0.00  0.00     0.000 OA
ATOM     73   O  IDS C   4       8.487  15.908  45.6320  0.00  0.00     0.000 OA
ENDBRANCH 62 71
BRANCH 58 74
ATOM     74  O4  SGN C   5      12.176  12.775  46.5510  0.00  0.00     0.000 O
BRANCH 74 78
ATOM     75  C1  SGN C   5      15.153  15.136  48.2850  0.00  0.00     0.000 C
ATOM     76  C2  SGN C   5      13.806  15.834  48.0200  0.00  0.00     0.000 C
ATOM     77  C3  SGN C   5      12.712  14.803  47.7120  0.00  0.00     0.000 C
ATOM     78  C4  SGN C   5      13.173  13.789  46.6740  0.00  0.00     0.000 C
ATOM     79  C5  SGN C   5      14.500  13.184  47.1100  0.00  0.00     0.000 C
ATOM     80  O5  SGN C   5      15.493  14.236  47.2380  0.00  0.00     0.000 O
ATOM     81   O  SGN C   5      11.547  15.486  47.2600  0.00  0.00     0.000 O
ATOM     83  HD  SGN C   5      11.310  16.249  47.5930  0.00  0.00     0.000 HD
BRANCH 76 85
ATOM     83   N  SGN C   5      14.393  17.073  48.5460  0.00  0.00     0.000 N
ATOM     85  HD  SGN C   5      14.550  17.636  49.1850  0.00  0.00     0.000 HD
ATOM     85   S  SGN C   5      13.770  18.141  49.5790  0.00  0.00     0.000 S
ATOM     86   O  SGN C   5      14.708  19.175  49.8490  0.00  0.00     0.000 OA
ATOM     87   O  SGN C   5      12.507  18.532  49.0660  0.00  0.00     0.000 OA
ATOM     88   O  SGN C   5      13.668  17.184  50.7640  0.00  0.00     0.000 OA
ENDBRANCH 76 85
BRANCH 79 89
ATOM     89   C  SGN C   5      15.032  12.140  46.1500  0.00  0.00     0.000 C
ATOM     90   O  SGN C   5      16.327  11.674  46.6020  0.00  0.00     0.000 O
ATOM     91   S  SGN C   5      16.704  10.151  46.2620  0.00  0.00     0.000 S
ATOM     92   O  SGN C   5      15.611   9.346  46.7410  0.00  0.00     0.000 OA
ATOM     93   O  SGN C   5      16.868  10.064  44.8340  0.00  0.00     0.000 OA
ATOM     94   O  SGN C   5      17.928   9.944  46.9870  0.00  0.00     0.000 OA
ENDBRANCH 79 89
BRANCH 75 95
ATOM     95  O4  BDP C   6      14.990  14.442  49.4510  0.00  0.00     0.000 O
BRANCH 95 99
ATOM     96  C1  BDP C   6      18.022  13.808  52.4250  0.00  0.00     0.000 C
ATOM     97  C2  BDP C   6      18.300  14.770  51.3050  0.00  0.00     0.000 C
ATOM     98  C3  BDP C   6      17.052  15.217  50.5290  0.00  0.00     0.000 C
ATOM     99  C4  BDP C   6      16.191  14.026  50.1350  0.00  0.00     0.000 C
ATOM    100  C5  BDP C   6      15.969  13.158  51.3960  0.00  0.00     0.000 C
ATOM    101  O5  BDP C   6      17.299  12.776  51.7800  0.00  0.00     0.000 O
BRANCH 100 102
ATOM    102   C  BDP C   6      15.189  11.901  51.1070  0.00  0.00     0.000 C
ATOM    103   O  BDP C   6      15.666  10.771  51.2820  0.00  0.00     0.000 OA
ATOM    104   O  BDP C   6      14.032  12.044  50.6950  0.00  0.00     0.000 OA
ENDBRANCH 100 102
ENDBRANCH 95 99
ENDBRANCH 75 95
ENDBRANCH 74 78
ENDBRANCH 58 74
ENDBRANCH 57 61
ENDBRANCH 37 57
ENDBRANCH 36 40
ENDBRANCH 23 36
ENDBRANCH 22 26
ENDBRANCH 1 22
TORSDOF 20
ENDMDL
MODEL 9
REMARK VINA RESULT:      -8.0     16.752     24.301
ROOT
ATOM      1  C1  NGY C   1      37.320   0.780  33.6350  0.00  0.00     0.000 C
ATOM      2  C2  NGY C   1      38.557   0.484  34.4710  0.00  0.00     0.000 C
ATOM      3  C3  NGY C   1      39.686   1.441  34.1030  0.00  0.00     0.000 C
ATOM      4  C4  NGY C   1      39.916   1.351  32.6060  0.00  0.00     0.000 C
ATOM      5  C5  NGY C   1      38.630   1.750  31.8880  0.00  0.00     0.000 C
ATOM      6  O5  NGY C   1      37.594   0.801  32.2500  0.00  0.00     0.000 O
ATOM      7   O  NGY C   1      40.849   1.098  34.8430  0.00  0.00     0.000 O
ATOM      9  HD  NGY C   1      41.234   0.376  35.1270  0.00  0.00     0.000 HD
ATOM      9   O  NGY C   1      40.983   2.198  32.2040  0.00  0.00     0.000 O
ATOM     11  HD  NGY C   1      41.368   1.476  32.4890  0.00  0.00     0.000 HD
ENDROOT
BRANCH 2 13
ATOM     11   N  NGY C   1      38.428  -0.576  35.4430  0.00  0.00     0.000 N
ATOM     13  HD  NGY C   1      38.577  -0.118  36.1630  0.00  0.00     0.000 HD
ATOM     13   C  NGY C   1      38.582  -0.350  36.7470  0.00  0.00     0.000 C
ATOM     14   O  NGY C   1      38.979   0.739  37.1620  0.00  0.00     0.000 OA
ATOM     15   C  NGY C   1      38.221  -1.473  37.6720  0.00  0.00     0.000 C
ENDBRANCH 2 13
BRANCH 5 16
ATOM     16   C  NGY C   1      38.701   1.722  30.3950  0.00  0.00     0.000 C
ATOM     17   O  NGY C   1      35.969   0.568  28.2350  0.00  0.00     0.000 OA
ATOM     18   O  NGY C   1      37.560   1.020  29.8940  0.00  0.00     0.000 O
ATOM     19   S  NGY C   1      37.222   1.266  28.3790  0.00  0.00     0.000 S
ATOM     20   O  NGY C   1      38.276   0.665  27.6050  0.00  0.00     0.000 OA
ATOM     21   O  NGY C   1      37.157   2.712  28.2490  0.00  0.00     0.000 OA
ENDBRANCH 5 16
BRANCH 1 22
ATOM     22  O4  BDP C   2      36.766   1.930  34.0720  0.00  0.00     0.000 O
BRANCH 22 26
ATOM     23  C1  BDP C   2      33.444   4.221  34.9010  0.00  0.00     0.000 C
ATOM     24  C2  BDP C   2      33.392   2.796  35.3990  0.00  0.00     0.000 C
ATOM     25  C3  BDP C   2      34.773   2.196  35.3620  0.00  0.00     0.000 C
ATOM     26  C4  BDP C   2      35.381   2.355  33.9720  0.00  0.00     0.000 C
ATOM     27  C5  BDP C   2      35.220   3.795  33.5000  0.00  0.00     0.000 C
ATOM     28  O5  BDP C   2      33.838   4.234  33.4990  0.00  0.00     0.000 O
ATOM     29   O  BDP C   2      33.027   2.714  36.7770  0.00  0.00     0.000 O
ATOM     31  HD  BDP C   2      33.407   2.091  37.2420  0.00  0.00     0.000 HD
ATOM     31   O  BDP C   2      34.634   0.817  35.6790  0.00  0.00     0.000 O
ATOM     33  HD  BDP C   2      35.014   0.193  36.1440  0.00  0.00     0.000 HD
BRANCH 27 33
ATOM     33   C  BDP C   2      35.715   3.998  32.0880  0.00  0.00     0.000 C
ATOM     34   O  BDP C   2      36.390   5.001  31.7560  0.00  0.00     0.000 OA
ATOM     35   O  BDP C   2      35.414   3.171  31.2430  0.00  0.00     0.000 OA
ENDBRANCH 27 33
BRANCH 23 36
ATOM     36  O4  SGN C   3      32.287   4.915  35.0070  0.00  0.00     0.000 O
BRANCH 36 40
ATOM     37  C1  SGN C   3      30.771   8.788  35.3670  0.00  0.00     0.000 C
ATOM     38  C2  SGN C   3      30.605   8.078  34.0130  0.00  0.00     0.000 C
ATOM     39  C3  SGN C   3      30.798   6.577  34.1710  0.00  0.00     0.000 C
ATOM     40  C4  SGN C   3      32.154   6.322  34.7940  0.00  0.00     0.000 C
ATOM     41  C5  SGN C   3      32.238   7.074  36.1040  0.00  0.00     0.000 C
ATOM     42  O5  SGN C   3      32.062   8.479  35.8700  0.00  0.00     0.000 O
ATOM     43   O  SGN C   3      30.697   5.955  32.8970  0.00  0.00     0.000 O
ATOM     45  HD  SGN C   3      31.204   5.482  33.4170  0.00  0.00     0.000 HD
BRANCH 38 47
ATOM     45   N  SGN C   3      30.563   9.425  33.4160  0.00  0.00     0.000 N
ATOM     47  HD  SGN C   3      31.035   8.776  33.7420  0.00  0.00     0.000 HD
ATOM     47   S  SGN C   3      29.151   9.744  32.7590  0.00  0.00     0.000 S
ATOM     48   O  SGN C   3      28.904   8.912  31.6350  0.00  0.00     0.000 OA
ATOM     49   O  SGN C   3      28.191   9.700  33.8120  0.00  0.00     0.000 OA
ATOM     50   O  SGN C   3      29.352  11.107  32.2690  0.00  0.00     0.000 OA
ENDBRANCH 38 47
BRANCH 41 51
ATOM     51   C  SGN C   3      33.543   6.899  36.8310  0.00  0.00     0.000 C
ATOM     52   O  SGN C   3      34.093   6.915  40.5160  0.00  0.00     0.000 OA
ATOM     53   O  SGN C   3      35.218   5.664  38.8130  0.00  0.00     0.000 OA
ATOM     54   O  SGN C   3      35.384   8.058  38.8730  0.00  0.00     0.000 OA
ATOM     55   O  SGN C   3      33.298   6.921  38.2200  0.00  0.00     0.000 O
ATOM     56   S  SGN C   3      34.623   6.887  39.1950  0.00  0.00     0.000 S
ENDBRANCH 41 51
BRANCH 37 57
ATOM     57  O4  IDS C   4      29.856   8.439  36.3050  0.00  0.00     0.000 O
BRANCH 57 61
ATOM     58  C1  IDS C   4      28.175  10.590  38.9530  0.00  0.00     0.000 C
ATOM     59  C2  IDS C   4      29.105  11.244  37.9810  0.00  0.00     0.000 C
ATOM     60  C3  IDS C   4      30.344  10.396  37.6850  0.00  0.00     0.000 C
ATOM     61  C4  IDS C   4      30.143   8.888  37.6430  0.00  0.00     0.000 C
ATOM     62  C5  IDS C   4      29.036   8.460  38.6140  0.00  0.00     0.000 C
ATOM     63  O5  IDS C   4      27.884   9.281  38.4940  0.00  0.00     0.000 O
ATOM     64   O  IDS C   4      31.257  10.695  38.7250  0.00  0.00     0.000 O
ATOM     66  HD  IDS C   4      31.378  10.002  39.2300  0.00  0.00     0.000 HD
BRANCH 59 66
ATOM     66   O  IDS C   4      28.447  11.490  36.6830  0.00  0.00     0.000 O
ATOM     67   S  IDS C   4      28.739  12.894  35.9930  0.00  0.00     0.000 S
ATOM     68   O  IDS C   4      30.152  12.831  35.7050  0.00  0.00     0.000 OA
ATOM     69   O  IDS C   4      27.878  12.923  34.8270  0.00  0.00     0.000 OA
ATOM     70   O  IDS C   4      28.436  13.926  36.9730  0.00  0.00     0.000 OA
ENDBRANCH 59 66
BRANCH 62 71
ATOM     71   C  IDS C   4      28.554   7.041  38.3770  0.00  0.00     0.000 C
ATOM     72   O  IDS C   4      29.002   6.391  37.4530  0.00  0.00     0.000 OA
ATOM     73   O  IDS C   4      27.621   6.606  39.0820  0.00  0.00     0.000 OA
ENDBRANCH 62 71
BRANCH 58 74
ATOM     74  O4  SGN C   5      28.489  10.782  40.2660  0.00  0.00     0.000 O
BRANCH 74 78
ATOM     75  C1  SGN C   5      26.996  11.265  44.1370  0.00  0.00     0.000 C
ATOM     76  C2  SGN C   5      26.460  10.052  43.3530  0.00  0.00     0.000 C
ATOM     77  C3  SGN C   5      27.319   9.789  42.1090  0.00  0.00     0.000 C
ATOM     78  C4  SGN C   5      27.562  11.065  41.3140  0.00  0.00     0.000 C
ATOM     79  C5  SGN C   5      28.111  12.141  42.2390  0.00  0.00     0.000 C
ATOM     80  O5  SGN C   5      27.155  12.403  43.3000  0.00  0.00     0.000 O
ATOM     81   O  SGN C   5      26.672   8.812  41.3000  0.00  0.00     0.000 O
ATOM     83  HD  SGN C   5      26.239   8.147  41.6480  0.00  0.00     0.000 HD
BRANCH 76 85
ATOM     83   N  SGN C   5      26.399   8.788  44.0960  0.00  0.00     0.000 N
ATOM     85  HD  SGN C   5      25.966   8.123  44.4450  0.00  0.00     0.000 HD
ATOM     85   S  SGN C   5      25.346   8.311  45.2180  0.00  0.00     0.000 S
ATOM     86   O  SGN C   5      25.636   6.985  45.6420  0.00  0.00     0.000 OA
ATOM     87   O  SGN C   5      25.316   9.317  46.2190  0.00  0.00     0.000 OA
ATOM     88   O  SGN C   5      24.118   8.329  44.3110  0.00  0.00     0.000 OA
ENDBRANCH 76 85
BRANCH 79 89
ATOM     89   C  SGN C   5      28.409  13.448  41.5330  0.00  0.00     0.000 C
ATOM     90   O  SGN C   5      27.339  13.761  40.6080  0.00  0.00     0.000 O
ATOM     91   S  SGN C   5      27.032  15.317  40.3610  0.00  0.00     0.000 S
ATOM     92   O  SGN C   5      26.849  15.906  41.6620  0.00  0.00     0.000 OA
ATOM     93   O  SGN C   5      28.164  15.867  39.6620  0.00  0.00     0.000 OA
ATOM     94   O  SGN C   5      25.832  15.295  39.5700  0.00  0.00     0.000 OA
ENDBRANCH 79 89
BRANCH 75 95
ATOM     95  O4  BDP C   6      28.213  10.882  44.6270  0.00  0.00     0.000 O
BRANCH 95 99
ATOM     96  C1  BDP C   6      29.457  11.910  48.6080  0.00  0.00     0.000 C
ATOM     97  C2  BDP C   6      28.164  12.473  48.0880  0.00  0.00     0.000 C
ATOM     98  C3  BDP C   6      27.621  11.763  46.8390  0.00  0.00     0.000 C
ATOM     99  C4  BDP C   6      28.703  11.596  45.7830  0.00  0.00     0.000 C
ATOM    100  C5  BDP C   6      29.946  10.978  46.4660  0.00  0.00     0.000 C
ATOM    101  O5  BDP C   6      30.296  11.946  47.4680  0.00  0.00     0.000 O
BRANCH 100 102
ATOM    102   C  BDP C   6      31.117  10.839  45.5260  0.00  0.00     0.000 C
ATOM    103   O  BDP C   6      31.941   9.919  45.6280  0.00  0.00     0.000 OA
ATOM    104   O  BDP C   6      31.217  11.684  44.6290  0.00  0.00     0.000 OA
ENDBRANCH 100 102
ENDBRANCH 95 99
ENDBRANCH 75 95
ENDBRANCH 74 78
ENDBRANCH 58 74
ENDBRANCH 57 61
ENDBRANCH 37 57
ENDBRANCH 36 40
ENDBRANCH 23 36
ENDBRANCH 22 26
ENDBRANCH 1 22
TORSDOF 20
ENDMDL
MODEL 10
REMARK VINA RESULT:      -8.0      7.150     15.514
ROOT
ATOM      1  C1  NGY C   1       0.042  17.115  36.7010  0.00  0.00     0.000 C
ATOM      2  C2  NGY C   1      -0.713  18.393  37.0390  0.00  0.00     0.000 C
ATOM      3  C3  NGY C   1      -2.080  18.060  37.6290  0.00  0.00     0.000 C
ATOM      4  C4  NGY C   1      -2.808  17.151  36.6580  0.00  0.00     0.000 C
ATOM      5  C5  NGY C   1      -1.989  15.877  36.4710  0.00  0.00     0.000 C
ATOM      6  O5  NGY C   1      -0.710  16.240  35.8880  0.00  0.00     0.000 O
ATOM      7   O  NGY C   1      -2.791  19.266  37.8670  0.00  0.00     0.000 O
ATOM      9  HD  NGY C   1      -2.879  20.040  37.4890  0.00  0.00     0.000 HD
ATOM      9   O  NGY C   1      -4.106  16.831  37.1370  0.00  0.00     0.000 O
ATOM     11  HD  NGY C   1      -4.193  17.605  36.7580  0.00  0.00     0.000 HD
ENDROOT
BRANCH 2 13
ATOM     11   N  NGY C   1       0.048  19.189  37.9730  0.00  0.00     0.000 N
ATOM     13  HD  NGY C   1       0.006  19.952  37.5650  0.00  0.00     0.000 HD
ATOM     13   C  NGY C   1       0.269  20.487  37.7670  0.00  0.00     0.000 C
ATOM     14   O  NGY C   1      -0.044  21.025  36.7040  0.00  0.00     0.000 OA
ATOM     15   C  NGY C   1       0.886  21.252  38.8980  0.00  0.00     0.000 C
ENDBRANCH 2 13
BRANCH 5 16
ATOM     16   C  NGY C   1      -2.585  14.868  35.5420  0.00  0.00     0.000 C
ATOM     17   O  NGY C   1      -1.896  11.269  35.7070  0.00  0.00     0.000 OA
ATOM     18   O  NGY C   1      -1.938  13.610  35.7520  0.00  0.00     0.000 O
ATOM     19   S  NGY C   1      -2.707  12.352  35.2110  0.00  0.00     0.000 S
ATOM     20   O  NGY C   1      -2.694  12.431  33.7740  0.00  0.00     0.000 OA
ATOM     21   O  NGY C   1      -4.037  12.460  35.7870  0.00  0.00     0.000 OA
ENDBRANCH 5 16
BRANCH 1 22
ATOM     22  O4  BDP C   2       0.449  16.535  37.8500  0.00  0.00     0.000 O
BRANCH 22 26
ATOM     23  C1  BDP C   2       3.386  14.597  39.9910  0.00  0.00     0.000 C
ATOM     24  C2  BDP C   2       3.873  15.665  39.0400  0.00  0.00     0.000 C
ATOM     25  C3  BDP C   2       2.713  16.525  38.6100  0.00  0.00     0.000 C
ATOM     26  C4  BDP C   2       1.587  15.657  38.0590  0.00  0.00     0.000 C
ATOM     27  C5  BDP C   2       1.301  14.511  39.0200  0.00  0.00     0.000 C
ATOM     28  O5  BDP C   2       2.474  13.702  39.2940  0.00  0.00     0.000 O
ATOM     29   O  BDP C   2       4.762  16.589  39.6690  0.00  0.00     0.000 O
ATOM     31  HD  BDP C   2       4.709  17.414  39.4110  0.00  0.00     0.000 HD
ATOM     31   O  BDP C   2       3.199  17.397  37.5970  0.00  0.00     0.000 O
ATOM     33  HD  BDP C   2       3.146  18.222  37.3390  0.00  0.00     0.000 HD
BRANCH 27 33
ATOM     33   C  BDP C   2       0.260  13.556  38.4860  0.00  0.00     0.000 C
ATOM     34   O  BDP C   2       0.525  12.711  37.5980  0.00  0.00     0.000 OA
ATOM     35   O  BDP C   2      -0.879  13.640  38.9150  0.00  0.00     0.000 OA
ENDBRANCH 27 33
BRANCH 23 36
ATOM     36  O4  SGN C   3       4.355  13.837  40.5530  0.00  0.00     0.000 O
BRANCH 36 40
ATOM     37  C1  SGN C   3       5.285  11.700  44.0170  0.00  0.00     0.000 C
ATOM     38  C2  SGN C   3       4.949  10.896  42.7500  0.00  0.00     0.000 C
ATOM     39  C3  SGN C   3       5.068  11.775  41.5140  0.00  0.00     0.000 C
ATOM     40  C4  SGN C   3       4.172  12.983  41.6860  0.00  0.00     0.000 C
ATOM     41  C5  SGN C   3       4.556  13.698  42.9630  0.00  0.00     0.000 C
ATOM     42  O5  SGN C   3       4.403  12.810  44.0810  0.00  0.00     0.000 O
ATOM     43   O  SGN C   3       4.695  11.023  40.3660  0.00  0.00     0.000 O
ATOM     45  HD  SGN C   3       4.541  11.865  40.2300  0.00  0.00     0.000 HD
BRANCH 38 47
ATOM     45   N  SGN C   3       4.680   9.892  43.7950  0.00  0.00     0.000 N
ATOM     47  HD  SGN C   3       4.466  10.642  43.4190  0.00  0.00     0.000 HD
ATOM     47   S  SGN C   3       5.448   8.527  43.5230  0.00  0.00     0.000 S
ATOM     48   O  SGN C   3       4.960   7.882  42.3560  0.00  0.00     0.000 OA
ATOM     49   O  SGN C   3       6.841   8.829  43.5530  0.00  0.00     0.000 OA
ATOM     50   O  SGN C   3       5.046   7.725  44.6770  0.00  0.00     0.000 OA
ENDBRANCH 38 47
BRANCH 41 51
ATOM     51   C  SGN C   3       3.739  14.928  43.2490  0.00  0.00     0.000 C
ATOM     52   O  SGN C   3       4.795  18.479  42.8590  0.00  0.00     0.000 OA
ATOM     53   O  SGN C   3       2.640  17.486  42.5410  0.00  0.00     0.000 OA
ATOM     54   O  SGN C   3       3.652  17.523  44.7180  0.00  0.00     0.000 OA
ATOM     55   O  SGN C   3       4.500  16.068  42.9190  0.00  0.00     0.000 O
ATOM     56   S  SGN C   3       3.833  17.525  43.2960  0.00  0.00     0.000 S
ENDBRANCH 41 51
BRANCH 37 57
ATOM     57  O4  IDS C   4       6.557  12.166  44.0700  0.00  0.00     0.000 O
BRANCH 57 61
ATOM     58  C1  IDS C   4       9.992  12.417  45.6850  0.00  0.00     0.000 C
ATOM     59  C2  IDS C   4       9.352  11.070  45.5640  0.00  0.00     0.000 C
ATOM     60  C3  IDS C   4       7.849  11.101  45.8510  0.00  0.00     0.000 C
ATOM     61  C4  IDS C   4       7.094  12.342  45.3950  0.00  0.00     0.000 C
ATOM     62  C5  IDS C   4       7.994  13.581  45.4620  0.00  0.00     0.000 C
ATOM     63  O5  IDS C   4       9.269  13.337  44.8860  0.00  0.00     0.000 O
ATOM     64   O  IDS C   4       7.737  11.003  47.2590  0.00  0.00     0.000 O
ATOM     66  HD  IDS C   4       7.423  11.740  47.5900  0.00  0.00     0.000 HD
BRANCH 59 66
ATOM     66   O  IDS C   4       9.506  10.517  44.2050  0.00  0.00     0.000 O
ATOM     67   S  IDS C   4      10.402   9.209  44.0670  0.00  0.00     0.000 S
ATOM     68   O  IDS C   4       9.654   8.219  44.8050  0.00  0.00     0.000 OA
ATOM     69   O  IDS C   4      10.494   8.967  42.6410  0.00  0.00     0.000 OA
ATOM     70   O  IDS C   4      11.681   9.495  44.6990  0.00  0.00     0.000 OA
ENDBRANCH 59 66
BRANCH 62 71
ATOM     71   C  IDS C   4       7.426  14.770  44.7100  0.00  0.00     0.000 C
ATOM     72   O  IDS C   4       7.840  15.045  43.6010  0.00  0.00     0.000 OA
ATOM     73   O  IDS C   4       6.609  15.508  45.2960  0.00  0.00     0.000 OA
ENDBRANCH 62 71
BRANCH 58 74
ATOM     74  O4  SGN C   5      10.349  12.772  46.9520  0.00  0.00     0.000 O
BRANCH 74 78
ATOM     75  C1  SGN C   5      12.434  15.638  49.1610  0.00  0.00     0.000 C
ATOM     76  C2  SGN C   5      10.901  15.655  49.3080  0.00  0.00     0.000 C
ATOM     77  C3  SGN C   5      10.287  14.370  48.7380  0.00  0.00     0.000 C
ATOM     78  C4  SGN C   5      10.838  14.051  47.3550  0.00  0.00     0.000 C
ATOM     79  C5  SGN C   5      12.359  14.052  47.4020  0.00  0.00     0.000 C
ATOM     80  O5  SGN C   5      12.830  15.359  47.8240  0.00  0.00     0.000 O
ATOM     81   O  SGN C   5       8.871  14.516  48.6910  0.00  0.00     0.000 O
ATOM     83  HD  SGN C   5       8.437  14.939  49.3090  0.00  0.00     0.000 HD
BRANCH 76 85
ATOM     83   N  SGN C   5      10.086  15.979  50.4860  0.00  0.00     0.000 N
ATOM     85  HD  SGN C   5       9.722  16.540  51.0360  0.00  0.00     0.000 HD
ATOM     85   S  SGN C   5      10.327  17.097  51.6210  0.00  0.00     0.000 S
ATOM     86   O  SGN C   5       9.257  17.093  52.5570  0.00  0.00     0.000 OA
ATOM     87   O  SGN C   5      11.635  16.898  52.1330  0.00  0.00     0.000 OA
ATOM     88   O  SGN C   5      10.222  18.303  50.6900  0.00  0.00     0.000 OA
ENDBRANCH 76 85
BRANCH 79 89
ATOM     89   C  SGN C   5      13.004  13.720  46.0730  0.00  0.00     0.000 C
ATOM     90   O  SGN C   5      12.563  14.662  45.0650  0.00  0.00     0.000 O
ATOM     91   S  SGN C   5      13.605  15.005  43.8930  0.00  0.00     0.000 S
ATOM     92   O  SGN C   5      14.829  15.398  44.5410  0.00  0.00     0.000 OA
ATOM     93   O  SGN C   5      13.759  13.812  43.1010  0.00  0.00     0.000 OA
ATOM     94   O  SGN C   5      12.963  16.078  43.1840  0.00  0.00     0.000 OA
ENDBRANCH 79 89
BRANCH 75 95
ATOM     95  O4  BDP C   6      12.876  14.644  49.9870  0.00  0.00     0.000 O
BRANCH 95 99
ATOM     96  C1  BDP C   6      16.771  14.384  51.7790  0.00  0.00     0.000 C
ATOM     97  C2  BDP C   6      16.364  15.672  51.1210  0.00  0.00     0.000 C
ATOM     98  C3  BDP C   6      14.856  15.801  50.8580  0.00  0.00     0.000 C
ATOM     99  C4  BDP C   6      14.303  14.551  50.1890  0.00  0.00     0.000 C
ATOM    100  C5  BDP C   6      14.779  13.324  51.0010  0.00  0.00     0.000 C
ATOM    101  O5  BDP C   6      16.211  13.404  50.9240  0.00  0.00     0.000 O
BRANCH 100 102
ATOM    102   C  BDP C   6      14.353  12.017  50.3820  0.00  0.00     0.000 C
ATOM    103   O  BDP C   6      13.195  11.817  49.9870  0.00  0.00     0.000 OA
ATOM    104   O  BDP C   6      15.220  11.142  50.2700  0.00  0.00     0.000 OA
ENDBRANCH 100 102
ENDBRANCH 95 99
ENDBRANCH 75 95
ENDBRANCH 74 78
ENDBRANCH 58 74
ENDBRANCH 57 61
ENDBRANCH 37 57
ENDBRANCH 36 40
ENDBRANCH 23 36
ENDBRANCH 22 26
ENDBRANCH 1 22
TORSDOF 20
ENDMDL
MODEL 11
REMARK VINA RESULT:      -8.0      3.597     16.471
ROOT
ATOM      1  C1  NGY C   1      -0.199  11.982  53.4010  0.00  0.00     0.000 C
ATOM      2  C2  NGY C   1      -1.624  12.198  52.9110  0.00  0.00     0.000 C
ATOM      3  C3  NGY C   1      -2.076  13.624  53.2100  0.00  0.00     0.000 C
ATOM      4  C4  NGY C   1      -1.886  13.882  54.6920  0.00  0.00     0.000 C
ATOM      5  C5  NGY C   1      -0.408  13.714  55.0340  0.00  0.00     0.000 C
ATOM      6  O5  NGY C   1      -0.031  12.340  54.7560  0.00  0.00     0.000 O
ATOM      7   O  NGY C   1      -3.430  13.778  52.8100  0.00  0.00     0.000 O
ATOM      9  HD  NGY C   1      -4.150  13.298  52.8020  0.00  0.00     0.000 HD
ATOM      9   O  NGY C   1      -2.322  15.188  55.0410  0.00  0.00     0.000 O
ATOM     11  HD  NGY C   1      -3.042  14.708  55.0330  0.00  0.00     0.000 HD
ENDROOT
BRANCH 2 13
ATOM     11   N  NGY C   1      -2.394  11.146  52.2890  0.00  0.00     0.000 N
ATOM     13  HD  NGY C   1      -2.376  11.432  51.4720  0.00  0.00     0.000 HD
ATOM     13   C  NGY C   1      -2.650  11.148  50.9820  0.00  0.00     0.000 C
ATOM     14   O  NGY C   1      -2.363  12.118  50.2780  0.00  0.00     0.000 OA
ATOM     15   C  NGY C   1      -3.274   9.909  50.4170  0.00  0.00     0.000 C
ENDBRANCH 2 13
BRANCH 5 16
ATOM     16   C  NGY C   1      -0.056  13.947  56.4680  0.00  0.00     0.000 C
ATOM     17   O  NGY C   1       1.650  16.953  57.6980  0.00  0.00     0.000 OA
ATOM     18   O  NGY C   1       0.783  15.102  56.5540  0.00  0.00     0.000 O
ATOM     19   S  NGY C   1       0.888  15.762  57.9760  0.00  0.00     0.000 S
ATOM     20   O  NGY C   1       1.600  14.840  58.8210  0.00  0.00     0.000 OA
ATOM     21   O  NGY C   1      -0.492  15.976  58.3830  0.00  0.00     0.000 OA
ENDBRANCH 5 16
BRANCH 1 22
ATOM     22  O4  BDP C   2       0.647  12.641  52.5810  0.00  0.00     0.000 O
BRANCH 22 26
ATOM     23  C1  BDP C   2       4.416  12.666  50.9210  0.00  0.00     0.000 C
ATOM     24  C2  BDP C   2       3.987  11.357  51.5400  0.00  0.00     0.000 C
ATOM     25  C3  BDP C   2       2.499  11.370  51.7700  0.00  0.00     0.000 C
ATOM     26  C4  BDP C   2       2.098  12.606  52.5690  0.00  0.00     0.000 C
ATOM     27  C5  BDP C   2       2.731  13.847  51.9520  0.00  0.00     0.000 C
ATOM     28  O5  BDP C   2       4.176  13.752  51.8590  0.00  0.00     0.000 O
ATOM     29   O  BDP C   2       4.182  10.249  50.6610  0.00  0.00     0.000 O
ATOM     31  HD  BDP C   2       3.590   9.618  50.6950  0.00  0.00     0.000 HD
ATOM     31   O  BDP C   2       2.183  10.192  52.5020  0.00  0.00     0.000 O
ATOM     33  HD  BDP C   2       1.591   9.561  52.5360  0.00  0.00     0.000 HD
BRANCH 27 33
ATOM     33   C  BDP C   2       2.453  15.096  52.7550  0.00  0.00     0.000 C
ATOM     34   O  BDP C   2       2.086  16.166  52.2140  0.00  0.00     0.000 OA
ATOM     35   O  BDP C   2       2.627  15.061  53.9610  0.00  0.00     0.000 OA
ENDBRANCH 27 33
BRANCH 23 36
ATOM     36  O4  SGN C   3       5.714  12.731  50.5440  0.00  0.00     0.000 O
BRANCH 36 40
ATOM     37  C1  SGN C   3       8.619  15.035  48.6250  0.00  0.00     0.000 C
ATOM     38  C2  SGN C   3       7.788  15.708  49.7300  0.00  0.00     0.000 C
ATOM     39  C3  SGN C   3       7.114  14.660  50.6020  0.00  0.00     0.000 C
ATOM     40  C4  SGN C   3       6.279  13.755  49.7210  0.00  0.00     0.000 C
ATOM     41  C5  SGN C   3       7.168  13.157  48.6540  0.00  0.00     0.000 C
ATOM     42  O5  SGN C   3       7.754  14.205  47.8670  0.00  0.00     0.000 O
ATOM     43   O  SGN C   3       6.306  15.310  51.5760  0.00  0.00     0.000 O
ATOM     45  HD  SGN C   3       5.985  14.524  51.4030  0.00  0.00     0.000 HD
BRANCH 38 47
ATOM     45   N  SGN C   3       7.586  17.168  49.7410  0.00  0.00     0.000 N
ATOM     47  HD  SGN C   3       7.243  16.374  49.7950  0.00  0.00     0.000 HD
ATOM     47   S  SGN C   3       8.952  17.959  49.9210  0.00  0.00     0.000 S
ATOM     48   O  SGN C   3       9.521  17.727  51.2010  0.00  0.00     0.000 OA
ATOM     49   O  SGN C   3       9.762  17.637  48.7920  0.00  0.00     0.000 OA
ATOM     50   O  SGN C   3       8.499  19.348  49.8790  0.00  0.00     0.000 OA
ENDBRANCH 38 47
BRANCH 41 51
ATOM     51   C  SGN C   3       6.456  12.228  47.7090  0.00  0.00     0.000 C
ATOM     52   O  SGN C   3       5.414   8.711  48.3600  0.00  0.00     0.000 OA
ATOM     53   O  SGN C   3       4.350  10.395  47.0330  0.00  0.00     0.000 OA
ATOM     54   O  SGN C   3       6.507   9.541  46.4140  0.00  0.00     0.000 OA
ATOM     55   O  SGN C   3       6.207  11.008  48.3700  0.00  0.00     0.000 O
ATOM     56   S  SGN C   3       5.560   9.801  47.4570  0.00  0.00     0.000 S
ENDBRANCH 41 51
BRANCH 37 57
ATOM     57  O4  IDS C   4       9.648  14.275  49.0750  0.00  0.00     0.000 O
BRANCH 57 61
ATOM     58  C1  IDS C   4      13.407  13.865  49.4930  0.00  0.00     0.000 C
ATOM     59  C2  IDS C   4      12.827  15.244  49.5250  0.00  0.00     0.000 C
ATOM     60  C3  IDS C   4      11.715  15.442  48.4910  0.00  0.00     0.000 C
ATOM     61  C4  IDS C   4      10.811  14.246  48.2260  0.00  0.00     0.000 C
ATOM     62  C5  IDS C   4      11.583  12.933  48.3980  0.00  0.00     0.000 C
ATOM     63  O5  IDS C   4      12.351  12.925  49.5920  0.00  0.00     0.000 O
ATOM     64   O  IDS C   4      12.381  15.773  47.2870  0.00  0.00     0.000 O
ATOM     66  HD  IDS C   4      12.282  15.142  46.7030  0.00  0.00     0.000 HD
BRANCH 59 66
ATOM     66   O  IDS C   4      12.234  15.553  50.8410  0.00  0.00     0.000 O
ATOM     67   S  IDS C   4      12.954  16.685  51.6960  0.00  0.00     0.000 S
ATOM     68   O  IDS C   4      12.763  17.872  50.8970  0.00  0.00     0.000 OA
ATOM     69   O  IDS C   4      12.262  16.688  52.9690  0.00  0.00     0.000 OA
ATOM     70   O  IDS C   4      14.360  16.324  51.7910  0.00  0.00     0.000 OA
ENDBRANCH 59 66
BRANCH 62 71
ATOM     71   C  IDS C   4      10.678  11.718  48.4850  0.00  0.00     0.000 C
ATOM     72   O  IDS C   4      10.612  11.080  49.5180  0.00  0.00     0.000 OA
ATOM     73   O  IDS C   4      10.093  11.338  47.4510  0.00  0.00     0.000 OA
ENDBRANCH 62 71
BRANCH 58 74
ATOM     74  O4  SGN C   5      14.384  13.674  48.5620  0.00  0.00     0.000 O
BRANCH 74 78
ATOM     75  C1  SGN C   5      18.144  11.977  47.9130  0.00  0.00     0.000 C
ATOM     76  C2  SGN C   5      16.948  11.225  47.2990  0.00  0.00     0.000 C
ATOM     77  C3  SGN C   5      15.692  12.105  47.3060  0.00  0.00     0.000 C
ATOM     78  C4  SGN C   5      15.469  12.752  48.6660  0.00  0.00     0.000 C
ATOM     79  C5  SGN C   5      16.739  13.468  49.1020  0.00  0.00     0.000 C
ATOM     80  O5  SGN C   5      17.828  12.511  49.1910  0.00  0.00     0.000 O
ATOM     81   O  SGN C   5      14.569  11.311  46.9400  0.00  0.00     0.000 O
ATOM     83  HD  SGN C   5      14.629  10.686  46.3430  0.00  0.00     0.000 HD
BRANCH 76 85
ATOM     83   N  SGN C   5      17.977  10.335  46.7450  0.00  0.00     0.000 N
ATOM     85  HD  SGN C   5      18.451  10.026  46.0900  0.00  0.00     0.000 HD
ATOM     85   S  SGN C   5      17.980   9.511  45.3610  0.00  0.00     0.000 S
ATOM     86   O  SGN C   5      19.206   8.809  45.2030  0.00  0.00     0.000 OA
ATOM     87   O  SGN C   5      16.787   8.743  45.3290  0.00  0.00     0.000 OA
ATOM     88   O  SGN C   5      17.935  10.730  44.4430  0.00  0.00     0.000 OA
ENDBRANCH 76 85
BRANCH 79 89
ATOM     89   C  SGN C   5      16.609  14.167  50.4400  0.00  0.00     0.000 C
ATOM     90   O  SGN C   5      17.809  13.953  51.2230  0.00  0.00     0.000 O
ATOM     91   S  SGN C   5      18.230  15.129  52.2320  0.00  0.00     0.000 S
ATOM     92   O  SGN C   5      18.267  16.339  51.4530  0.00  0.00     0.000 OA
ATOM     93   O  SGN C   5      17.233  15.173  53.2700  0.00  0.00     0.000 OA
ATOM     94   O  SGN C   5      19.522  14.712  52.7040  0.00  0.00     0.000 OA
ENDBRANCH 79 89
BRANCH 75 95
ATOM     95  O4  BDP C   6      18.427  12.995  47.0470  0.00  0.00     0.000 O
BRANCH 95 99
ATOM     96  C1  BDP C   6      22.529  13.916  46.1690  0.00  0.00     0.000 C
ATOM     97  C2  BDP C   6      22.224  13.030  47.3430  0.00  0.00     0.000 C
ATOM     98  C3  BDP C   6      20.800  12.454  47.3500  0.00  0.00     0.000 C
ATOM     99  C4  BDP C   6      19.764  13.539  47.0950  0.00  0.00     0.000 C
ATOM    100  C5  BDP C   6      20.202  14.332  45.8410  0.00  0.00     0.000 C
ATOM    101  O5  BDP C   6      21.483  14.868  46.2130  0.00  0.00     0.000 O
BRANCH 100 102
ATOM    102   C  BDP C   6      19.286  15.490  45.5370  0.00  0.00     0.000 C
ATOM    103   O  BDP C   6      19.385  16.583  46.1140  0.00  0.00     0.000 OA
ATOM    104   O  BDP C   6      18.426  15.308  44.6660  0.00  0.00     0.000 OA
ENDBRANCH 100 102
ENDBRANCH 95 99
ENDBRANCH 75 95
ENDBRANCH 74 78
ENDBRANCH 58 74
ENDBRANCH 57 61
ENDBRANCH 37 57
ENDBRANCH 36 40
ENDBRANCH 23 36
ENDBRANCH 22 26
ENDBRANCH 1 22
TORSDOF 20
ENDMDL
MODEL 12
REMARK VINA RESULT:      -8.0     18.551     26.604
ROOT
ATOM      1  C1  NGY C   1      32.386   9.789  49.2610  0.00  0.00     0.000 C
ATOM      2  C2  NGY C   1      33.348   8.962  50.1020  0.00  0.00     0.000 C
ATOM      3  C3  NGY C   1      32.658   7.698  50.6050  0.00  0.00     0.000 C
ATOM      4  C4  NGY C   1      31.392   8.105  51.3340  0.00  0.00     0.000 C
ATOM      5  C5  NGY C   1      30.484   8.850  50.3600  0.00  0.00     0.000 C
ATOM      6  O5  NGY C   1      31.170  10.054  49.9280  0.00  0.00     0.000 O
ATOM      7   O  NGY C   1      33.552   6.982  51.4450  0.00  0.00     0.000 O
ATOM      9  HD  NGY C   1      34.163   7.167  52.0300  0.00  0.00     0.000 HD
ATOM      9   O  NGY C   1      30.719   6.969  51.8570  0.00  0.00     0.000 O
ATOM     11  HD  NGY C   1      31.331   7.154  52.4420  0.00  0.00     0.000 HD
ENDROOT
BRANCH 2 13
ATOM     11   N  NGY C   1      34.525   8.879  49.2700  0.00  0.00     0.000 N
ATOM     13  HD  NGY C   1      35.127   8.843  49.8920  0.00  0.00     0.000 HD
ATOM     13   C  NGY C   1      35.747   8.805  49.7950  0.00  0.00     0.000 C
ATOM     14   O  NGY C   1      35.930   8.949  51.0050  0.00  0.00     0.000 OA
ATOM     15   C  NGY C   1      36.870   8.512  48.8480  0.00  0.00     0.000 C
ENDBRANCH 2 13
BRANCH 5 16
ATOM     16   C  NGY C   1      29.181   9.311  50.9320  0.00  0.00     0.000 C
ATOM     17   O  NGY C   1      28.205  12.835  51.2270  0.00  0.00     0.000 OA
ATOM     18   O  NGY C   1      29.227  10.732  51.0920  0.00  0.00     0.000 O
ATOM     19   S  NGY C   1      27.834  11.443  51.2490  0.00  0.00     0.000 S
ATOM     20   O  NGY C   1      27.291  11.039  52.5190  0.00  0.00     0.000 OA
ATOM     21   O  NGY C   1      27.057  10.979  50.1110  0.00  0.00     0.000 OA
ENDBRANCH 5 16
BRANCH 1 22
ATOM     22  O4  BDP C   2      32.203   9.170  48.0750  0.00  0.00     0.000 O
BRANCH 22 26
ATOM     23  C1  BDP C   2      31.442   9.249  44.0280  0.00  0.00     0.000 C
ATOM     24  C2  BDP C   2      32.711   9.941  44.4640  0.00  0.00     0.000 C
ATOM     25  C3  BDP C   2      33.053   9.531  45.8730  0.00  0.00     0.000 C
ATOM     26  C4  BDP C   2      31.860   9.762  46.7940  0.00  0.00     0.000 C
ATOM     27  C5  BDP C   2      30.602   9.173  46.1700  0.00  0.00     0.000 C
ATOM     28  O5  BDP C   2      30.330   9.706  44.8490  0.00  0.00     0.000 O
ATOM     29   O  BDP C   2      33.847   9.523  43.7070  0.00  0.00     0.000 O
ATOM     31  HD  BDP C   2      34.598   9.466  44.1340  0.00  0.00     0.000 HD
ATOM     31   O  BDP C   2      34.151  10.335  46.2830  0.00  0.00     0.000 O
ATOM     33  HD  BDP C   2      34.903  10.279  46.7100  0.00  0.00     0.000 HD
BRANCH 27 33
ATOM     33   C  BDP C   2      29.365   9.455  46.9890  0.00  0.00     0.000 C
ATOM     34   O  BDP C   2      28.571   8.546  47.3300  0.00  0.00     0.000 OA
ATOM     35   O  BDP C   2      29.121  10.611  47.2930  0.00  0.00     0.000 OA
ENDBRANCH 27 33
BRANCH 23 36
ATOM     36  O4  SGN C   3      31.097   9.434  42.7330  0.00  0.00     0.000 O
BRANCH 36 40
ATOM     37  C1  SGN C   3      29.665   7.376  39.3940  0.00  0.00     0.000 C
ATOM     38  C2  SGN C   3      28.723   8.387  40.0680  0.00  0.00     0.000 C
ATOM     39  C3  SGN C   3      29.511   9.339  40.9550  0.00  0.00     0.000 C
ATOM     40  C4  SGN C   3      30.303   8.530  41.9590  0.00  0.00     0.000 C
ATOM     41  C5  SGN C   3      31.181   7.550  41.2120  0.00  0.00     0.000 C
ATOM     42  O5  SGN C   3      30.365   6.679  40.4130  0.00  0.00     0.000 O
ATOM     43   O  SGN C   3      28.610  10.223  41.6100  0.00  0.00     0.000 O
ATOM     45  HD  SGN C   3      29.324  10.120  42.0900  0.00  0.00     0.000 HD
BRANCH 38 47
ATOM     45   N  SGN C   3      27.297   8.050  39.9110  0.00  0.00     0.000 N
ATOM     47  HD  SGN C   3      27.971   8.181  40.4380  0.00  0.00     0.000 HD
ATOM     47   S  SGN C   3      26.761   8.387  38.4520  0.00  0.00     0.000 S
ATOM     48   O  SGN C   3      26.767   9.786  38.2080  0.00  0.00     0.000 OA
ATOM     49   O  SGN C   3      27.507   7.576  37.5460  0.00  0.00     0.000 OA
ATOM     50   O  SGN C   3      25.368   7.955  38.5400  0.00  0.00     0.000 OA
ENDBRANCH 38 47
BRANCH 41 51
ATOM     51   C  SGN C   3      32.029   6.682  42.1010  0.00  0.00     0.000 C
ATOM     52   O  SGN C   3      35.724   6.231  41.9520  0.00  0.00     0.000 OA
ATOM     53   O  SGN C   3      34.264   6.230  43.8490  0.00  0.00     0.000 OA
ATOM     54   O  SGN C   3      34.083   4.519  42.1730  0.00  0.00     0.000 OA
ATOM     55   O  SGN C   3      33.382   6.841  41.7360  0.00  0.00     0.000 O
ATOM     56   S  SGN C   3      34.464   5.862  42.4990  0.00  0.00     0.000 S
ENDBRANCH 41 51
BRANCH 37 57
ATOM     57  O4  IDS C   4      30.576   7.925  38.5530  0.00  0.00     0.000 O
BRANCH 57 61
ATOM     58  C1  IDS C   4      32.269   7.367  35.1930  0.00  0.00     0.000 C
ATOM     59  C2  IDS C   4      30.976   6.668  35.4700  0.00  0.00     0.000 C
ATOM     60  C3  IDS C   4      30.883   6.145  36.9060  0.00  0.00     0.000 C
ATOM     61  C4  IDS C   4      31.526   7.003  37.9860  0.00  0.00     0.000 C
ATOM     62  C5  IDS C   4      32.748   7.746  37.4340  0.00  0.00     0.000 C
ATOM     63  O5  IDS C   4      32.471   8.360  36.1840  0.00  0.00     0.000 O
ATOM     64   O  IDS C   4      31.533   4.889  36.8880  0.00  0.00     0.000 O
ATOM     66  HD  IDS C   4      32.261   4.917  37.3560  0.00  0.00     0.000 HD
BRANCH 59 66
ATOM     66   O  IDS C   4      29.821   7.566  35.2760  0.00  0.00     0.000 O
ATOM     67   S  IDS C   4      28.810   7.180  34.1100  0.00  0.00     0.000 S
ATOM     68   O  IDS C   4      28.254   5.926  34.5590  0.00  0.00     0.000 OA
ATOM     69   O  IDS C   4      27.868   8.280  34.0540  0.00  0.00     0.000 OA
ATOM     70   O  IDS C   4      29.595   7.015  32.8960  0.00  0.00     0.000 OA
ENDBRANCH 59 66
BRANCH 62 71
ATOM     71   C  IDS C   4      33.225   8.864  38.3420  0.00  0.00     0.000 C
ATOM     72   O  IDS C   4      33.128  10.022  37.9860  0.00  0.00     0.000 OA
ATOM     73   O  IDS C   4      33.807   8.560  39.4030  0.00  0.00     0.000 OA
ENDBRANCH 62 71
BRANCH 58 74
ATOM     74  O4  SGN C   5      33.304   6.549  34.8490  0.00  0.00     0.000 O
BRANCH 74 78
ATOM     75  C1  SGN C   5      37.138   6.476  33.1960  0.00  0.00     0.000 C
ATOM     76  C2  SGN C   5      37.054   6.256  34.7190  0.00  0.00     0.000 C
ATOM     77  C3  SGN C   5      35.610   5.964  35.1460  0.00  0.00     0.000 C
ATOM     78  C4  SGN C   5      34.634   6.966  34.5440  0.00  0.00     0.000 C
ATOM     79  C5  SGN C   5      34.841   7.035  33.0380  0.00  0.00     0.000 C
ATOM     80  O5  SGN C   5      36.203   7.452  32.7550  0.00  0.00     0.000 O
ATOM     81   O  SGN C   5      35.535   5.986  36.5670  0.00  0.00     0.000 O
ATOM     83  HD  SGN C   5      36.179   5.681  37.0610  0.00  0.00     0.000 HD
BRANCH 76 85
ATOM     83   N  SGN C   5      38.510   6.078  34.6420  0.00  0.00     0.000 N
ATOM     85  HD  SGN C   5      39.224   5.588  34.6480  0.00  0.00     0.000 HD
ATOM     85   S  SGN C   5      39.469   5.114  35.5040  0.00  0.00     0.000 S
ATOM     86   O  SGN C   5      40.816   5.229  35.0620  0.00  0.00     0.000 OA
ATOM     87   O  SGN C   5      39.213   5.384  36.8730  0.00  0.00     0.000 OA
ATOM     88   O  SGN C   5      38.857   3.800  35.0260  0.00  0.00     0.000 OA
ENDBRANCH 76 85
BRANCH 79 89
ATOM     89   C  SGN C   5      33.895   7.992  32.3420  0.00  0.00     0.000 C
ATOM     90   O  SGN C   5      34.112   7.940  30.9100  0.00  0.00     0.000 O
ATOM     91   S  SGN C   5      32.834   8.210  29.9780  0.00  0.00     0.000 S
ATOM     92   O  SGN C   5      31.804   7.311  30.4300  0.00  0.00     0.000 OA
ATOM     93   O  SGN C   5      32.470   9.593  30.1470  0.00  0.00     0.000 OA
ATOM     94   O  SGN C   5      33.318   7.908  28.6580  0.00  0.00     0.000 OA
ENDBRANCH 79 89
BRANCH 75 95
ATOM     95  O4  BDP C   6      36.844   5.269  32.6290  0.00  0.00     0.000 O
BRANCH 95 99
ATOM     96  C1  BDP C   6      37.927   3.675  28.7910  0.00  0.00     0.000 C
ATOM     97  C2  BDP C   6      38.879   4.613  29.4770  0.00  0.00     0.000 C
ATOM     98  C3  BDP C   6      38.597   4.820  30.9730  0.00  0.00     0.000 C
ATOM     99  C4  BDP C   6      37.127   5.125  31.2200  0.00  0.00     0.000 C
ATOM    100  C5  BDP C   6      36.287   4.057  30.4820  0.00  0.00     0.000 C
ATOM    101  O5  BDP C   6      36.662   4.226  29.1050  0.00  0.00     0.000 O
BRANCH 100 102
ATOM    102   C  BDP C   6      34.804   4.304  30.5930  0.00  0.00     0.000 C
ATOM    103   O  BDP C   6      34.151   4.836  29.6830  0.00  0.00     0.000 OA
ATOM    104   O  BDP C   6      34.253   3.939  31.6380  0.00  0.00     0.000 OA
ENDBRANCH 100 102
ENDBRANCH 95 99
ENDBRANCH 75 95
ENDBRANCH 74 78
ENDBRANCH 58 74
ENDBRANCH 57 61
ENDBRANCH 37 57
ENDBRANCH 36 40
ENDBRANCH 23 36
ENDBRANCH 22 26
ENDBRANCH 1 22
TORSDOF 20
ENDMDL
MODEL 13
REMARK VINA RESULT:      -8.0     15.178     22.928
ROOT
ATOM      1  C1  NGY C   1      36.638   1.715  33.6960  0.00  0.00     0.000 C
ATOM      2  C2  NGY C   1      37.951   1.332  34.3660  0.00  0.00     0.000 C
ATOM      3  C3  NGY C   1      39.029   2.360  34.0430  0.00  0.00     0.000 C
ATOM      4  C4  NGY C   1      39.121   2.495  32.5350  0.00  0.00     0.000 C
ATOM      5  C5  NGY C   1      37.770   2.962  32.0020  0.00  0.00     0.000 C
ATOM      6  O5  NGY C   1      36.783   1.944  32.3110  0.00  0.00     0.000 O
ATOM      7   O  NGY C   1      40.259   1.943  34.6180  0.00  0.00     0.000 O
ATOM      9  HD  NGY C   1      40.677   1.198  34.7570  0.00  0.00     0.000 HD
ATOM      9   O  NGY C   1      40.136   3.419  32.1680  0.00  0.00     0.000 O
ATOM     11  HD  NGY C   1      40.554   2.673  32.3080  0.00  0.00     0.000 HD
ENDROOT
BRANCH 2 13
ATOM     11   N  NGY C   1      38.409   0.222  35.1690  0.00  0.00     0.000 N
ATOM     13  HD  NGY C   1      38.121   0.488  35.9420  0.00  0.00     0.000 HD
ATOM     13   C  NGY C   1      38.195   0.177  36.4830  0.00  0.00     0.000 C
ATOM     14   O  NGY C   1      37.725   1.143  37.0860  0.00  0.00     0.000 OA
ATOM     15   C  NGY C   1      38.527  -1.111  37.1740  0.00  0.00     0.000 C
ENDBRANCH 2 13
BRANCH 5 16
ATOM     16   C  NGY C   1      37.703   3.153  30.5200  0.00  0.00     0.000 C
ATOM     17   O  NGY C   1      35.749   1.018  28.2650  0.00  0.00     0.000 OA
ATOM     18   O  NGY C   1      37.037   2.027  29.9410  0.00  0.00     0.000 O
ATOM     19   S  NGY C   1      36.479   2.241  28.4880  0.00  0.00     0.000 S
ATOM     20   O  NGY C   1      37.613   2.370  27.6110  0.00  0.00     0.000 OA
ATOM     21   O  NGY C   1      35.674   3.448  28.5790  0.00  0.00     0.000 OA
ENDBRANCH 5 16
BRANCH 1 22
ATOM     22  O4  BDP C   2      36.113   2.775  34.3460  0.00  0.00     0.000 O
BRANCH 22 26
ATOM     23  C1  BDP C   2      32.899   5.033  35.5860  0.00  0.00     0.000 C
ATOM     24  C2  BDP C   2      32.960   3.630  36.1420  0.00  0.00     0.000 C
ATOM     25  C3  BDP C   2      34.335   3.056  35.9150  0.00  0.00     0.000 C
ATOM     26  C4  BDP C   2      34.718   3.169  34.4440  0.00  0.00     0.000 C
ATOM     27  C5  BDP C   2      34.450   4.583  33.9460  0.00  0.00     0.000 C
ATOM     28  O5  BDP C   2      33.073   4.994  34.1420  0.00  0.00     0.000 O
ATOM     29   O  BDP C   2      32.813   3.599  37.5620  0.00  0.00     0.000 O
ATOM     31  HD  BDP C   2      33.276   3.003  37.9870  0.00  0.00     0.000 HD
ATOM     31   O  BDP C   2      34.281   1.689  36.3030  0.00  0.00     0.000 O
ATOM     33  HD  BDP C   2      34.744   1.093  36.7280  0.00  0.00     0.000 HD
BRANCH 27 33
ATOM     33   C  BDP C   2      34.718   4.736  32.4680  0.00  0.00     0.000 C
ATOM     34   O  BDP C   2      34.250   3.937  31.6210  0.00  0.00     0.000 OA
ATOM     35   O  BDP C   2      35.440   5.647  32.1000  0.00  0.00     0.000 OA
ENDBRANCH 27 33
BRANCH 23 36
ATOM     36  O4  SGN C   3      31.754   5.708  35.8430  0.00  0.00     0.000 O
BRANCH 36 40
ATOM     37  C1  SGN C   3      30.156   9.440  36.8130  0.00  0.00     0.000 C
ATOM     38  C2  SGN C   3      30.247   9.067  35.3240  0.00  0.00     0.000 C
ATOM     39  C3  SGN C   3      30.424   7.565  35.1620  0.00  0.00     0.000 C
ATOM     40  C4  SGN C   3      31.646   7.130  35.9420  0.00  0.00     0.000 C
ATOM     41  C5  SGN C   3      31.482   7.557  37.3840  0.00  0.00     0.000 C
ATOM     42  O5  SGN C   3      31.336   8.984  37.4540  0.00  0.00     0.000 O
ATOM     43   O  SGN C   3      30.565   7.256  33.7800  0.00  0.00     0.000 O
ATOM     45  HD  SGN C   3      30.973   6.661  34.2590  0.00  0.00     0.000 HD
BRANCH 38 47
ATOM     45   N  SGN C   3      30.336  10.500  34.9890  0.00  0.00     0.000 N
ATOM     47  HD  SGN C   3      30.736   9.773  35.2370  0.00  0.00     0.000 HD
ATOM     47   S  SGN C   3      29.029  11.022  34.2500  0.00  0.00     0.000 S
ATOM     48   O  SGN C   3      28.884  10.425  32.9700  0.00  0.00     0.000 OA
ATOM     49   O  SGN C   3      27.947  10.851  35.1630  0.00  0.00     0.000 OA
ATOM     50   O  SGN C   3      29.346  12.435  34.0490  0.00  0.00     0.000 OA
ENDBRANCH 38 47
BRANCH 41 51
ATOM     51   C  SGN C   3      32.634   7.178  38.2730  0.00  0.00     0.000 C
ATOM     52   O  SGN C   3      36.267   7.452  37.4950  0.00  0.00     0.000 OA
ATOM     53   O  SGN C   3      35.132   7.718  39.5860  0.00  0.00     0.000 OA
ATOM     54   O  SGN C   3      35.152   5.590  38.4750  0.00  0.00     0.000 OA
ATOM     55   O  SGN C   3      33.841   7.489  37.6120  0.00  0.00     0.000 O
ATOM     56   S  SGN C   3      35.227   7.017  38.3630  0.00  0.00     0.000 S
ENDBRANCH 41 51
BRANCH 37 57
ATOM     57  O4  IDS C   4      29.089   8.915  37.4630  0.00  0.00     0.000 O
BRANCH 57 61
ATOM     58  C1  IDS C   4      27.262  11.112  39.9740  0.00  0.00     0.000 C
ATOM     59  C2  IDS C   4      28.551  11.602  39.3960  0.00  0.00     0.000 C
ATOM     60  C3  IDS C   4      29.598  10.493  39.2590  0.00  0.00     0.000 C
ATOM     61  C4  IDS C   4      29.080   9.110  38.8900  0.00  0.00     0.000 C
ATOM     62  C5  IDS C   4      27.677   8.883  39.4650  0.00  0.00     0.000 C
ATOM     63  O5  IDS C   4      26.823   9.992  39.2230  0.00  0.00     0.000 O
ATOM     64   O  IDS C   4      30.222  10.411  40.5270  0.00  0.00     0.000 O
ATOM     66  HD  IDS C   4      30.035   9.657  40.9090  0.00  0.00     0.000 HD
BRANCH 59 66
ATOM     66   O  IDS C   4      28.361  12.166  38.0460  0.00  0.00     0.000 O
ATOM     67   S  IDS C   4      28.635  13.725  37.8820  0.00  0.00     0.000 S
ATOM     68   O  IDS C   4      30.048  13.841  38.1540  0.00  0.00     0.000 OA
ATOM     69   O  IDS C   4      28.249  14.030  36.5190  0.00  0.00     0.000 OA
ATOM     70   O  IDS C   4      27.837  14.410  38.8870  0.00  0.00     0.000 OA
ENDBRANCH 59 66
BRANCH 62 71
ATOM     71   C  IDS C   4      26.972   7.685  38.8590  0.00  0.00     0.000 C
ATOM     72   O  IDS C   4      27.393   6.563  39.0620  0.00  0.00     0.000 OA
ATOM     73   O  IDS C   4      26.025   7.888  38.0730  0.00  0.00     0.000 OA
ENDBRANCH 62 71
BRANCH 58 74
ATOM     74  O4  SGN C   5      27.226  11.056  41.3360  0.00  0.00     0.000 O
BRANCH 74 78
ATOM     75  C1  SGN C   5      24.737  10.937  44.6880  0.00  0.00     0.000 C
ATOM     76  C2  SGN C   5      25.287   9.581  44.2060  0.00  0.00     0.000 C
ATOM     77  C3  SGN C   5      26.436   9.785  43.2090  0.00  0.00     0.000 C
ATOM     78  C4  SGN C   5      26.070  10.797  42.1320  0.00  0.00     0.000 C
ATOM     79  C5  SGN C   5      25.573  12.078  42.7860  0.00  0.00     0.000 C
ATOM     80  O5  SGN C   5      24.404  11.786  43.5970  0.00  0.00     0.000 O
ATOM     81   O  SGN C   5      26.767   8.530  42.6230  0.00  0.00     0.000 O
ATOM     83  HD  SGN C   5      26.747   7.796  43.0820  0.00  0.00     0.000 HD
BRANCH 76 85
ATOM     83   N  SGN C   5      24.495   8.725  45.0980  0.00  0.00     0.000 N
ATOM     85  HD  SGN C   5      24.306   8.396  45.8760  0.00  0.00     0.000 HD
ATOM     85   S  SGN C   5      24.982   7.790  46.3150  0.00  0.00     0.000 S
ATOM     86   O  SGN C   5      23.867   7.167  46.9400  0.00  0.00     0.000 OA
ATOM     87   O  SGN C   5      25.997   6.937  45.8090  0.00  0.00     0.000 OA
ATOM     88   O  SGN C   5      25.525   8.920  47.1860  0.00  0.00     0.000 OA
ENDBRANCH 76 85
BRANCH 79 89
ATOM     89   C  SGN C   5      25.205  13.161  41.7920  0.00  0.00     0.000 C
ATOM     90   O  SGN C   5      24.598  14.278  42.4870  0.00  0.00     0.000 O
ATOM     91   S  SGN C   5      24.836  15.734  41.8570  0.00  0.00     0.000 S
ATOM     92   O  SGN C   5      26.259  15.876  41.6860  0.00  0.00     0.000 OA
ATOM     93   O  SGN C   5      24.125  15.775  40.6040  0.00  0.00     0.000 OA
ATOM     94   O  SGN C   5      24.288  16.618  42.8490  0.00  0.00     0.000 OA
ENDBRANCH 79 89
BRANCH 75 95
ATOM     95  O4  BDP C   6      25.740  11.506  45.4220  0.00  0.00     0.000 O
BRANCH 95 99
ATOM     96  C1  BDP C   6      25.054  14.498  48.4250  0.00  0.00     0.000 C
ATOM     97  C2  BDP C   6      23.874  13.934  47.6860  0.00  0.00     0.000 C
ATOM     98  C3  BDP C   6      24.164  12.630  46.9280  0.00  0.00     0.000 C
ATOM     99  C4  BDP C   6      25.432  12.746  46.0950  0.00  0.00     0.000 C
ATOM    100  C5  BDP C   6      26.553  13.302  47.0030  0.00  0.00     0.000 C
ATOM    101  O5  BDP C   6      26.045  14.581  47.4180  0.00  0.00     0.000 O
BRANCH 100 102
ATOM    102   C  BDP C   6      27.843  13.534  46.2590  0.00  0.00     0.000 C
ATOM    103   O  BDP C   6      28.934  13.126  46.6840  0.00  0.00     0.000 OA
ATOM    104   O  BDP C   6      27.768  14.145  45.1870  0.00  0.00     0.000 OA
ENDBRANCH 100 102
ENDBRANCH 95 99
ENDBRANCH 75 95
ENDBRANCH 74 78
ENDBRANCH 58 74
ENDBRANCH 57 61
ENDBRANCH 37 57
ENDBRANCH 36 40
ENDBRANCH 23 36
ENDBRANCH 22 26
ENDBRANCH 1 22
TORSDOF 20
ENDMDL
MODEL 14
REMARK VINA RESULT:      -7.8      5.667      9.768
ROOT
ATOM      1  C1  NGY C   1      16.548  16.629  51.0700  0.00  0.00     0.000 C
ATOM      2  C2  NGY C   1      17.659  15.662  51.4520  0.00  0.00     0.000 C
ATOM      3  C3  NGY C   1      17.557  15.296  52.9290  0.00  0.00     0.000 C
ATOM      4  C4  NGY C   1      17.551  16.580  53.7380  0.00  0.00     0.000 C
ATOM      5  C5  NGY C   1      16.346  17.417  53.3170  0.00  0.00     0.000 C
ATOM      6  O5  NGY C   1      16.498  17.760  51.9150  0.00  0.00     0.000 O
ATOM      7   O  NGY C   1      18.645  14.452  53.2770  0.00  0.00     0.000 O
ATOM      9  HD  NGY C   1      19.483  14.374  53.0710  0.00  0.00     0.000 HD
ATOM      9   O  NGY C   1      17.491  16.304  55.1290  0.00  0.00     0.000 O
ATOM     11  HD  NGY C   1      18.329  16.226  54.9230  0.00  0.00     0.000 HD
ENDROOT
BRANCH 2 13
ATOM     11   N  NGY C   1      17.565  14.568  50.5140  0.00  0.00     0.000 N
ATOM     13  HD  NGY C   1      18.409  14.420  50.3940  0.00  0.00     0.000 HD
ATOM     13   C  NGY C   1      18.651  13.980  50.0150  0.00  0.00     0.000 C
ATOM     14   O  NGY C   1      19.775  14.440  50.2220  0.00  0.00     0.000 OA
ATOM     15   C  NGY C   1      18.434  12.729  49.2200  0.00  0.00     0.000 C
ENDBRANCH 2 13
BRANCH 5 16
ATOM     16   C  NGY C   1      16.195  18.719  54.0360  0.00  0.00     0.000 C
ATOM     17   O  NGY C   1      13.409  21.046  53.5030  0.00  0.00     0.000 OA
ATOM     18   O  NGY C   1      15.130  19.458  53.4320  0.00  0.00     0.000 O
ATOM     19   S  NGY C   1      14.530  20.621  54.3020  0.00  0.00     0.000 S
ATOM     20   O  NGY C   1      15.544  21.637  54.4100  0.00  0.00     0.000 OA
ATOM     21   O  NGY C   1      14.199  19.995  55.5720  0.00  0.00     0.000 OA
ENDBRANCH 5 16
BRANCH 1 22
ATOM     22  O4  BDP C   2      15.378  15.956  51.0350  0.00  0.00     0.000 O
BRANCH 22 26
ATOM     23  C1  BDP C   2      11.735  15.299  49.2300  0.00  0.00     0.000 C
ATOM     24  C2  BDP C   2      12.865  15.667  48.2980  0.00  0.00     0.000 C
ATOM     25  C3  BDP C   2      14.181  15.518  49.0160  0.00  0.00     0.000 C
ATOM     26  C4  BDP C   2      14.162  16.303  50.3230  0.00  0.00     0.000 C
ATOM     27  C5  BDP C   2      12.891  15.983  51.0990  0.00  0.00     0.000 C
ATOM     28  O5  BDP C   2      11.686  16.245  50.3350  0.00  0.00     0.000 O
ATOM     29   O  BDP C   2      12.979  14.765  47.1970  0.00  0.00     0.000 O
ATOM     31  HD  BDP C   2      13.780  14.591  46.9200  0.00  0.00     0.000 HD
ATOM     31   O  BDP C   2      15.185  16.035  48.1500  0.00  0.00     0.000 O
ATOM     33  HD  BDP C   2      15.986  15.861  47.8730  0.00  0.00     0.000 HD
BRANCH 27 33
ATOM     33   C  BDP C   2      12.763  16.803  52.3610  0.00  0.00     0.000 C
ATOM     34   O  BDP C   2      12.351  17.987  52.3460  0.00  0.00     0.000 OA
ATOM     35   O  BDP C   2      13.105  16.299  53.4180  0.00  0.00     0.000 OA
ENDBRANCH 27 33
BRANCH 23 36
ATOM     36  O4  SGN C   3      10.506  15.266  48.6650  0.00  0.00     0.000 O
BRANCH 36 40
ATOM     37  C1  SGN C   3       6.957  13.108  48.2410  0.00  0.00     0.000 C
ATOM     38  C2  SGN C   3       7.317  13.622  49.6450  0.00  0.00     0.000 C
ATOM     39  C3  SGN C   3       8.362  14.725  49.5550  0.00  0.00     0.000 C
ATOM     40  C4  SGN C   3       9.567  14.196  48.8080  0.00  0.00     0.000 C
ATOM     41  C5  SGN C   3       9.118  13.692  47.4540  0.00  0.00     0.000 C
ATOM     42  O5  SGN C   3       8.148  12.647  47.6230  0.00  0.00     0.000 O
ATOM     43   O  SGN C   3       8.718  15.140  50.8680  0.00  0.00     0.000 O
ATOM     45  HD  SGN C   3       9.380  15.276  50.3260  0.00  0.00     0.000 HD
BRANCH 38 47
ATOM     45   N  SGN C   3       6.464  12.507  50.0930  0.00  0.00     0.000 N
ATOM     47  HD  SGN C   3       7.219  12.773  49.7620  0.00  0.00     0.000 HD
ATOM     47   S  SGN C   3       5.221  13.012  50.9470  0.00  0.00     0.000 S
ATOM     48   O  SGN C   3       5.637  13.584  52.1780  0.00  0.00     0.000 OA
ATOM     49   O  SGN C   3       4.444  13.841  50.0850  0.00  0.00     0.000 OA
ATOM     50   O  SGN C   3       4.537  11.755  51.2460  0.00  0.00     0.000 OA
ENDBRANCH 38 47
BRANCH 41 51
ATOM     51   C  SGN C   3      10.230  13.140  46.6030  0.00  0.00     0.000 C
ATOM     52   O  SGN C   3      11.837   9.791  46.8870  0.00  0.00     0.000 OA
ATOM     53   O  SGN C   3      11.409  11.117  44.9390  0.00  0.00     0.000 OA
ATOM     54   O  SGN C   3      12.937  11.887  46.6240  0.00  0.00     0.000 OA
ATOM     55   O  SGN C   3      10.506  11.820  47.0140  0.00  0.00     0.000 O
ATOM     56   S  SGN C   3      11.794  11.087  46.2990  0.00  0.00     0.000 S
ENDBRANCH 41 51
BRANCH 37 57
ATOM     57  O4  IDS C   4       6.387  14.031  47.4290  0.00  0.00     0.000 O
BRANCH 57 61
ATOM     58  C1  IDS C   4       3.385  13.566  45.1390  0.00  0.00     0.000 C
ATOM     59  C2  IDS C   4       3.835  12.412  45.9770  0.00  0.00     0.000 C
ATOM     60  C3  IDS C   4       5.359  12.292  46.0520  0.00  0.00     0.000 C
ATOM     61  C4  IDS C   4       6.144  13.597  46.0770  0.00  0.00     0.000 C
ATOM     62  C5  IDS C   4       5.418  14.683  45.2750  0.00  0.00     0.000 C
ATOM     63  O5  IDS C   4       4.035  14.740  45.5960  0.00  0.00     0.000 O
ATOM     64   O  IDS C   4       5.733  11.569  44.8940  0.00  0.00     0.000 O
ATOM     66  HD  IDS C   4       6.186  12.074  44.3550  0.00  0.00     0.000 HD
BRANCH 59 66
ATOM     66   O  IDS C   4       3.356  12.532  47.3680  0.00  0.00     0.000 O
ATOM     67   S  IDS C   4       2.333  11.420  47.8660  0.00  0.00     0.000 S
ATOM     68   O  IDS C   4       3.120  10.210  47.8320  0.00  0.00     0.000 OA
ATOM     69   O  IDS C   4       1.931  11.849  49.1910  0.00  0.00     0.000 OA
ATOM     70   O  IDS C   4       1.242  11.377  46.9050  0.00  0.00     0.000 OA
ENDBRANCH 59 66
BRANCH 62 71
ATOM     71   C  IDS C   4       5.956  16.076  45.5380  0.00  0.00     0.000 C
ATOM     72   O  IDS C   4       5.310  16.865  46.2000  0.00  0.00     0.000 OA
ATOM     73   O  IDS C   4       7.016  16.419  44.9760  0.00  0.00     0.000 OA
ENDBRANCH 62 71
BRANCH 58 74
ATOM     74  O4  SGN C   5       3.326  13.315  43.8000  0.00  0.00     0.000 O
BRANCH 74 78
ATOM     75  C1  SGN C   5       1.226  14.001  40.2550  0.00  0.00     0.000 C
ATOM     76  C2  SGN C   5       2.363  14.992  40.5700  0.00  0.00     0.000 C
ATOM     77  C3  SGN C   5       3.262  14.448  41.6880  0.00  0.00     0.000 C
ATOM     78  C4  SGN C   5       2.445  13.947  42.8710  0.00  0.00     0.000 C
ATOM     79  C5  SGN C   5       1.392  12.964  42.3790  0.00  0.00     0.000 C
ATOM     80  O5  SGN C   5       0.517  13.627  41.4290  0.00  0.00     0.000 O
ATOM     81   O  SGN C   5       4.159  15.475  42.1000  0.00  0.00     0.000 O
ATOM     83  HD  SGN C   5       4.501  16.034  41.5330  0.00  0.00     0.000 HD
BRANCH 76 85
ATOM     83   N  SGN C   5       2.506  15.064  39.1100  0.00  0.00     0.000 N
ATOM     85  HD  SGN C   5       2.921  15.311  38.3920  0.00  0.00     0.000 HD
ATOM     85   S  SGN C   5       2.979  16.298  38.1890  0.00  0.00     0.000 S
ATOM     86   O  SGN C   5       3.015  15.912  36.8210  0.00  0.00     0.000 OA
ATOM     87   O  SGN C   5       2.162  17.409  38.5250  0.00  0.00     0.000 OA
ATOM     88   O  SGN C   5       4.392  16.397  38.7570  0.00  0.00     0.000 OA
ENDBRANCH 76 85
BRANCH 79 89
ATOM     89   C  SGN C   5       0.539  12.387  43.4910  0.00  0.00     0.000 C
ATOM     90   O  SGN C   5      -0.753  13.043  43.5070  0.00  0.00     0.000 O
ATOM     91   S  SGN C   5      -2.002  12.161  43.9950  0.00  0.00     0.000 S
ATOM     92   O  SGN C   5      -1.985  10.959  43.2030  0.00  0.00     0.000 OA
ATOM     93   O  SGN C   5      -1.814  11.899  45.3980  0.00  0.00     0.000 OA
ATOM     94   O  SGN C   5      -3.131  13.010  43.7230  0.00  0.00     0.000 OA
ENDBRANCH 79 89
BRANCH 75 95
ATOM     95  O4  BDP C   6       1.830  12.902  39.7140  0.00  0.00     0.000 O
BRANCH 95 99
ATOM     96  C1  BDP C   6      -0.218  10.074  37.2130  0.00  0.00     0.000 C
ATOM     97  C2  BDP C   6      -0.981  11.257  37.7390  0.00  0.00     0.000 C
ATOM     98  C3  BDP C   6      -0.097  12.388  38.2860  0.00  0.00     0.000 C
ATOM     99  C4  BDP C   6       0.963  11.850  39.2370  0.00  0.00     0.000 C
ATOM    100  C5  BDP C   6       1.675  10.669  38.5390  0.00  0.00     0.000 C
ATOM    101  O5  BDP C   6       0.615   9.728  38.3040  0.00  0.00     0.000 O
BRANCH 100 102
ATOM    102   C  BDP C   6       2.700  10.003  39.4220  0.00  0.00     0.000 C
ATOM    103   O  BDP C   6       3.911  10.251  39.3350  0.00  0.00     0.000 OA
ATOM    104   O  BDP C   6       2.276   9.197  40.2600  0.00  0.00     0.000 OA
ENDBRANCH 100 102
ENDBRANCH 95 99
ENDBRANCH 75 95
ENDBRANCH 74 78
ENDBRANCH 58 74
ENDBRANCH 57 61
ENDBRANCH 37 57
ENDBRANCH 36 40
ENDBRANCH 23 36
ENDBRANCH 22 26
ENDBRANCH 1 22
TORSDOF 20
ENDMDL
MODEL 15
REMARK VINA RESULT:      -7.7      7.232     11.296
ROOT
ATOM      1  C1  NGY C   1      14.639  12.669  45.1410  0.00  0.00     0.000 C
ATOM      2  C2  NGY C   1      15.351  12.507  46.4770  0.00  0.00     0.000 C
ATOM      3  C3  NGY C   1      15.408  13.844  47.2100  0.00  0.00     0.000 C
ATOM      4  C4  NGY C   1      16.047  14.865  46.2890  0.00  0.00     0.000 C
ATOM      5  C5  NGY C   1      15.194  14.990  45.0300  0.00  0.00     0.000 C
ATOM      6  O5  NGY C   1      15.188  13.705  44.3550  0.00  0.00     0.000 O
ATOM      7   O  NGY C   1      16.139  13.683  48.4170  0.00  0.00     0.000 O
ATOM      9  HD  NGY C   1      16.827  13.233  48.6910  0.00  0.00     0.000 HD
ATOM      9   O  NGY C   1      16.159  16.128  46.9300  0.00  0.00     0.000 O
ATOM     11  HD  NGY C   1      16.847  15.678  47.2030  0.00  0.00     0.000 HD
ENDROOT
BRANCH 2 13
ATOM     11   N  NGY C   1      15.852  11.720  47.5790  0.00  0.00     0.000 N
ATOM     13  HD  NGY C   1      15.325  11.037  47.5070  0.00  0.00     0.000 HD
ATOM     13   C  NGY C   1      15.331  10.532  47.8820  0.00  0.00     0.000 C
ATOM     14   O  NGY C   1      14.310  10.124  47.3250  0.00  0.00     0.000 OA
ATOM     15   C  NGY C   1      16.062   9.718  48.9050  0.00  0.00     0.000 C
ENDBRANCH 2 13
BRANCH 5 16
ATOM     16   C  NGY C   1      15.691  15.975  44.0200  0.00  0.00     0.000 C
ATOM     17   O  NGY C   1      19.012  15.818  42.4690  0.00  0.00     0.000 OA
ATOM     18   O  NGY C   1      17.085  15.740  43.7970  0.00  0.00     0.000 O
ATOM     19   S  NGY C   1      17.674  16.353  42.4760  0.00  0.00     0.000 S
ATOM     20   O  NGY C   1      17.657  17.784  42.6270  0.00  0.00     0.000 OA
ATOM     21   O  NGY C   1      16.795  15.869  41.4240  0.00  0.00     0.000 OA
ENDBRANCH 5 16
BRANCH 1 22
ATOM     22  O4  BDP C   2      13.319  12.834  45.3690  0.00  0.00     0.000 O
BRANCH 22 26
ATOM     23  C1  BDP C   2       9.380  12.404  44.2460  0.00  0.00     0.000 C
ATOM     24  C2  BDP C   2      10.194  11.131  44.2620  0.00  0.00     0.000 C
ATOM     25  C3  BDP C   2      11.473  11.359  45.0240  0.00  0.00     0.000 C
ATOM     26  C4  BDP C   2      12.211  12.572  44.4690  0.00  0.00     0.000 C
ATOM     27  C5  BDP C   2      11.249  13.745  44.3330  0.00  0.00     0.000 C
ATOM     28  O5  BDP C   2      10.097  13.433  43.5080  0.00  0.00     0.000 O
ATOM     29   O  BDP C   2       9.552  10.083  44.9870  0.00  0.00     0.000 O
ATOM     31  HD  BDP C   2      10.066   9.553  45.4390  0.00  0.00     0.000 HD
ATOM     31   O  BDP C   2      12.265  10.189  44.8620  0.00  0.00     0.000 O
ATOM     33  HD  BDP C   2      12.780   9.658  45.3140  0.00  0.00     0.000 HD
BRANCH 27 33
ATOM     33   C  BDP C   2      11.895  14.952  43.6960  0.00  0.00     0.000 C
ATOM     34   O  BDP C   2      11.836  16.091  44.2160  0.00  0.00     0.000 OA
ATOM     35   O  BDP C   2      12.460  14.809  42.6240  0.00  0.00     0.000 OA
ENDBRANCH 27 33
BRANCH 23 36
ATOM     36  O4  SGN C   3       8.146  12.295  43.7020  0.00  0.00     0.000 O
BRANCH 36 40
ATOM     37  C1  SGN C   3       4.173  13.565  43.8730  0.00  0.00     0.000 C
ATOM     38  C2  SGN C   3       5.245  14.616  43.5440  0.00  0.00     0.000 C
ATOM     39  C3  SGN C   3       6.532  13.941  43.0940  0.00  0.00     0.000 C
ATOM     40  C4  SGN C   3       6.980  12.977  44.1720  0.00  0.00     0.000 C
ATOM     41  C5  SGN C   3       5.860  11.998  44.4470  0.00  0.00     0.000 C
ATOM     42  O5  SGN C   3       4.690  12.709  44.8800  0.00  0.00     0.000 O
ATOM     43   O  SGN C   3       7.523  14.933  42.8540  0.00  0.00     0.000 O
ATOM     45  HD  SGN C   3       7.901  14.187  43.0790  0.00  0.00     0.000 HD
BRANCH 38 47
ATOM     45   N  SGN C   3       5.151  16.084  43.6410  0.00  0.00     0.000 N
ATOM     47  HD  SGN C   3       5.638  15.370  43.6940  0.00  0.00     0.000 HD
ATOM     47   S  SGN C   3       3.804  16.639  43.0050  0.00  0.00     0.000 S
ATOM     48   O  SGN C   3       3.769  16.430  41.6010  0.00  0.00     0.000 OA
ATOM     49   O  SGN C   3       2.733  16.079  43.7630  0.00  0.00     0.000 OA
ATOM     50   O  SGN C   3       3.935  18.076  43.2390  0.00  0.00     0.000 OA
ENDBRANCH 38 47
BRANCH 41 51
ATOM     51   C  SGN C   3       6.182  10.976  45.5030  0.00  0.00     0.000 C
ATOM     52   O  SGN C   3       3.953   9.783  48.2400  0.00  0.00     0.000 OA
ATOM     53   O  SGN C   3       5.621   8.590  47.0030  0.00  0.00     0.000 OA
ATOM     54   O  SGN C   3       6.241  10.417  48.4330  0.00  0.00     0.000 OA
ATOM     55   O  SGN C   3       5.043  10.782  46.3110  0.00  0.00     0.000 O
ATOM     56   S  SGN C   3       5.234   9.802  47.6200  0.00  0.00     0.000 S
ENDBRANCH 41 51
BRANCH 37 57
ATOM     57  O4  IDS C   4       3.789  12.800  42.8220  0.00  0.00     0.000 O
BRANCH 57 61
ATOM     58  C1  IDS C   4       1.213  11.444  40.3730  0.00  0.00     0.000 C
ATOM     59  C2  IDS C   4       1.251  12.916  40.6330  0.00  0.00     0.000 C
ATOM     60  C3  IDS C   4       1.495  13.251  42.1070  0.00  0.00     0.000 C
ATOM     61  C4  IDS C   4       2.430  12.323  42.8700  0.00  0.00     0.000 C
ATOM     62  C5  IDS C   4       2.333  10.891  42.3320  0.00  0.00     0.000 C
ATOM     63  O5  IDS C   4       2.385  10.856  40.9130  0.00  0.00     0.000 O
ATOM     64   O  IDS C   4       0.219  13.198  42.7170  0.00  0.00     0.000 O
ATOM     66  HD  IDS C   4       0.177  12.536  43.2740  0.00  0.00     0.000 HD
BRANCH 59 66
ATOM     66   O  IDS C   4       2.330  13.574  39.8710  0.00  0.00     0.000 O
ATOM     67   S  IDS C   4       1.878  14.526  38.6780  0.00  0.00     0.000 S
ATOM     68   O  IDS C   4       1.178  15.591  39.3560  0.00  0.00     0.000 OA
ATOM     69   O  IDS C   4       3.112  14.923  38.0290  0.00  0.00     0.000 OA
ATOM     70   O  IDS C   4       0.986  13.756  37.8260  0.00  0.00     0.000 OA
ENDBRANCH 59 66
BRANCH 62 71
ATOM     71   C  IDS C   4       3.466  10.000  42.8040  0.00  0.00     0.000 C
ATOM     72   O  IDS C   4       4.397   9.752  42.0620  0.00  0.00     0.000 OA
ATOM     73   O  IDS C   4       3.366   9.452  43.9200  0.00  0.00     0.000 OA
ENDBRANCH 62 71
BRANCH 58 74
ATOM     74  O4  SGN C   5       0.006  10.851  40.5980  0.00  0.00     0.000 O
BRANCH 74 78
ATOM     75  C1  SGN C   5      -2.612   7.773  39.5410  0.00  0.00     0.000 C
ATOM     76  C2  SGN C   5      -1.414   7.369  40.4210  0.00  0.00     0.000 C
ATOM     77  C3  SGN C   5      -0.736   8.610  41.0170  0.00  0.00     0.000 C
ATOM     78  C4  SGN C   5      -0.478   9.671  39.9560  0.00  0.00     0.000 C
ATOM     79  C5  SGN C   5      -1.769   9.962  39.2050  0.00  0.00     0.000 C
ATOM     80  O5  SGN C   5      -2.245   8.746  38.5710  0.00  0.00     0.000 O
ATOM     81   O  SGN C   5       0.484   8.216  41.6370  0.00  0.00     0.000 O
ATOM     83  HD  SGN C   5       0.556   7.465  42.0620  0.00  0.00     0.000 HD
BRANCH 76 85
ATOM     83   N  SGN C   5      -2.224   6.470  41.2530  0.00  0.00     0.000 N
ATOM     85  HD  SGN C   5      -2.312   5.825  41.8250  0.00  0.00     0.000 HD
ATOM     85   S  SGN C   5      -2.034   4.897  41.5440  0.00  0.00     0.000 S
ATOM     86   O  SGN C   5      -3.028   4.435  42.4480  0.00  0.00     0.000 OA
ATOM     87   O  SGN C   5      -1.952   4.245  40.2860  0.00  0.00     0.000 OA
ATOM     88   O  SGN C   5      -0.684   5.021  42.2460  0.00  0.00     0.000 OA
ENDBRANCH 76 85
BRANCH 79 89
ATOM     89   C  SGN C   5      -1.620  11.028  38.1390  0.00  0.00     0.000 C
ATOM     90   O  SGN C   5      -1.682  10.420  36.8260  0.00  0.00     0.000 O
ATOM     91   S  SGN C   5      -2.305  11.313  35.6460  0.00  0.00     0.000 S
ATOM     92   O  SGN C   5      -3.584  11.775  36.1190  0.00  0.00     0.000 OA
ATOM     93   O  SGN C   5      -1.385  12.393  35.4020  0.00  0.00     0.000 OA
ATOM     94   O  SGN C   5      -2.400  10.389  34.5480  0.00  0.00     0.000 OA
ENDBRANCH 79 89
BRANCH 75 95
ATOM     95  O4  BDP C   6      -3.539   8.302  40.3930  0.00  0.00     0.000 O
BRANCH 95 99
ATOM     96  C1  BDP C   6      -7.829   8.370  40.2040  0.00  0.00     0.000 C
ATOM     97  C2  BDP C   6      -7.106   7.138  39.7380  0.00  0.00     0.000 C
ATOM     98  C3  BDP C   6      -5.640   7.053  40.1920  0.00  0.00     0.000 C
ATOM     99  C4  BDP C   6      -4.902   8.356  39.9210  0.00  0.00     0.000 C
ATOM    100  C5  BDP C   6      -5.755   9.515  40.4890  0.00  0.00     0.000 C
ATOM    101  O5  BDP C   6      -6.987   9.416  39.7570  0.00  0.00     0.000 O
BRANCH 100 102
ATOM    102   C  BDP C   6      -5.155  10.870  40.2070  0.00  0.00     0.000 C
ATOM    103   O  BDP C   6      -5.153  11.370  39.0730  0.00  0.00     0.000 OA
ATOM    104   O  BDP C   6      -4.670  11.476  41.1690  0.00  0.00     0.000 OA
ENDBRANCH 100 102
ENDBRANCH 95 99
ENDBRANCH 75 95
ENDBRANCH 74 78
ENDBRANCH 58 74
ENDBRANCH 57 61
ENDBRANCH 37 57
ENDBRANCH 36 40
ENDBRANCH 23 36
ENDBRANCH 22 26
ENDBRANCH 1 22
TORSDOF 20
ENDMDL
MODEL 16
REMARK VINA RESULT:      -7.7      6.667     15.686
ROOT
ATOM      1  C1  NGY C   1       0.508  15.697  36.8380  0.00  0.00     0.000 C
ATOM      2  C2  NGY C   1      -0.448  16.881  36.8690  0.00  0.00     0.000 C
ATOM      3  C3  NGY C   1      -1.775  16.473  37.5020  0.00  0.00     0.000 C
ATOM      4  C4  NGY C   1      -2.308  15.267  36.7530  0.00  0.00     0.000 C
ATOM      5  C5  NGY C   1      -1.296  14.131  36.8700  0.00  0.00     0.000 C
ATOM      6  O5  NGY C   1      -0.062  14.555  36.2350  0.00  0.00     0.000 O
ATOM      7   O  NGY C   1      -2.673  17.572  37.4540  0.00  0.00     0.000 O
ATOM      9  HD  NGY C   1      -2.859  18.219  36.9090  0.00  0.00     0.000 HD
ATOM      9   O  NGY C   1      -3.564  14.858  37.2770  0.00  0.00     0.000 O
ATOM     11  HD  NGY C   1      -3.750  15.505  36.7320  0.00  0.00     0.000 HD
ENDROOT
BRANCH 2 13
ATOM     11   N  NGY C   1      -0.774  18.269  37.0950  0.00  0.00     0.000 N
ATOM     13  HD  NGY C   1       0.024  18.604  37.0480  0.00  0.00     0.000 HD
ATOM     13   C  NGY C   1       0.167  19.213  37.1170  0.00  0.00     0.000 C
ATOM     14   O  NGY C   1       1.363  18.920  37.0890  0.00  0.00     0.000 OA
ATOM     15   C  NGY C   1      -0.306  20.634  37.1490  0.00  0.00     0.000 C
ENDBRANCH 2 13
BRANCH 5 16
ATOM     16   C  NGY C   1      -1.687  12.860  36.1860  0.00  0.00     0.000 C
ATOM     17   O  NGY C   1      -2.412   9.724  37.9450  0.00  0.00     0.000 OA
ATOM     18   O  NGY C   1      -1.679  11.800  37.1460  0.00  0.00     0.000 O
ATOM     19   S  NGY C   1      -2.477  10.509  36.7390  0.00  0.00     0.000 S
ATOM     20   O  NGY C   1      -1.766   9.896  35.6470  0.00  0.00     0.000 OA
ATOM     21   O  NGY C   1      -3.797  10.994  36.3720  0.00  0.00     0.000 OA
ENDBRANCH 5 16
BRANCH 1 22
ATOM     22  O4  BDP C   2       0.944  15.458  38.0930  0.00  0.00     0.000 O
BRANCH 22 26
ATOM     23  C1  BDP C   2       3.918  14.348  40.7180  0.00  0.00     0.000 C
ATOM     24  C2  BDP C   2       4.298  15.415  39.7190  0.00  0.00     0.000 C
ATOM     25  C3  BDP C   2       3.054  15.979  39.0830  0.00  0.00     0.000 C
ATOM     26  C4  BDP C   2       2.198  14.855  38.5100  0.00  0.00     0.000 C
ATOM     27  C5  BDP C   2       2.026  13.754  39.5490  0.00  0.00     0.000 C
ATOM     28  O5  BDP C   2       3.293  13.231  40.0250  0.00  0.00     0.000 O
ATOM     29   O  BDP C   2       4.904  16.550  40.3380  0.00  0.00     0.000 O
ATOM     31  HD  BDP C   2       4.722  17.323  39.9930  0.00  0.00     0.000 HD
ATOM     31   O  BDP C   2       3.480  16.849  38.0420  0.00  0.00     0.000 O
ATOM     33  HD  BDP C   2       3.298  17.622  37.6970  0.00  0.00     0.000 HD
BRANCH 27 33
ATOM     33   C  BDP C   2       1.268  12.565  39.0100  0.00  0.00     0.000 C
ATOM     34   O  BDP C   2       0.327  12.032  39.6450  0.00  0.00     0.000 OA
ATOM     35   O  BDP C   2       1.612  12.094  37.9380  0.00  0.00     0.000 OA
ENDBRANCH 27 33
BRANCH 23 36
ATOM     36  O4  SGN C   3       4.940  13.853  41.4530  0.00  0.00     0.000 O
BRANCH 36 40
ATOM     37  C1  SGN C   3       6.025  12.221  45.1400  0.00  0.00     0.000 C
ATOM     38  C2  SGN C   3       5.509  11.259  44.0570  0.00  0.00     0.000 C
ATOM     39  C3  SGN C   3       5.579  11.915  42.6860  0.00  0.00     0.000 C
ATOM     40  C4  SGN C   3       4.800  13.212  42.7240  0.00  0.00     0.000 C
ATOM     41  C5  SGN C   3       5.358  14.083  43.8280  0.00  0.00     0.000 C
ATOM     42  O5  SGN C   3       5.242  13.403  45.0880  0.00  0.00     0.000 O
ATOM     43   O  SGN C   3       5.041  11.026  41.7140  0.00  0.00     0.000 O
ATOM     45  HD  SGN C   3       4.942  11.846  41.4520  0.00  0.00     0.000 HD
BRANCH 38 47
ATOM     45   N  SGN C   3       5.256  10.461  45.2700  0.00  0.00     0.000 N
ATOM     47  HD  SGN C   3       5.068  11.158  44.7920  0.00  0.00     0.000 HD
ATOM     47   S  SGN C   3       5.893   9.008  45.1730  0.00  0.00     0.000 S
ATOM     48   O  SGN C   3       5.260   8.231  44.1670  0.00  0.00     0.000 OA
ATOM     49   O  SGN C   3       7.302   9.187  45.0510  0.00  0.00     0.000 OA
ATOM     50   O  SGN C   3       5.532   8.438  46.4700  0.00  0.00     0.000 OA
ENDBRANCH 38 47
BRANCH 41 51
ATOM     51   C  SGN C   3       4.669  15.413  43.9700  0.00  0.00     0.000 C
ATOM     52   O  SGN C   3       6.075  18.774  43.1920  0.00  0.00     0.000 OA
ATOM     53   O  SGN C   3       3.830  17.973  42.9720  0.00  0.00     0.000 OA
ATOM     54   O  SGN C   3       4.851  18.152  45.1380  0.00  0.00     0.000 OA
ATOM     55   O  SGN C   3       5.540  16.427  43.5200  0.00  0.00     0.000 O
ATOM     56   S  SGN C   3       5.025  17.976  43.7270  0.00  0.00     0.000 S
ENDBRANCH 41 51
BRANCH 37 57
ATOM     57  O4  IDS C   4       7.329  12.570  45.0120  0.00  0.00     0.000 O
BRANCH 57 61
ATOM     58  C1  IDS C   4      10.949  12.775  46.1610  0.00  0.00     0.000 C
ATOM     59  C2  IDS C   4      10.267  11.444  46.1710  0.00  0.00     0.000 C
ATOM     60  C3  IDS C   4       8.815  11.526  46.6480  0.00  0.00     0.000 C
ATOM     61  C4  IDS C   4       8.037  12.772  46.2500  0.00  0.00     0.000 C
ATOM     62  C5  IDS C   4       8.967  13.987  46.1560  0.00  0.00     0.000 C
ATOM     63  O5  IDS C   4      10.151  13.690  45.4290  0.00  0.00     0.000 O
ATOM     64   O  IDS C   4       8.885  11.477  48.0610  0.00  0.00     0.000 O
ATOM     66  HD  IDS C   4       8.634  12.232  48.4030  0.00  0.00     0.000 HD
BRANCH 59 66
ATOM     66   O  IDS C   4      10.231  10.843  44.8240  0.00  0.00     0.000 O
ATOM     67   S  IDS C   4      11.111   9.536  44.6050  0.00  0.00     0.000 S
ATOM     68   O  IDS C   4      10.487   8.570  45.4760  0.00  0.00     0.000 OA
ATOM     69   O  IDS C   4      11.000   9.244  43.1890  0.00  0.00     0.000 OA
ATOM     70   O  IDS C   4      12.465   9.852  45.0350  0.00  0.00     0.000 OA
ENDBRANCH 59 66
BRANCH 62 71
ATOM     71   C  IDS C   4       8.335  15.167  45.4420  0.00  0.00     0.000 C
ATOM     72   O  IDS C   4       8.688  15.460  44.3160  0.00  0.00     0.000 OA
ATOM     73   O  IDS C   4       7.530  15.881  46.0730  0.00  0.00     0.000 OA
ENDBRANCH 62 71
BRANCH 58 74
ATOM     74  O4  SGN C   5      11.476  13.160  47.3580  0.00  0.00     0.000 O
BRANCH 74 78
ATOM     75  C1  SGN C   5      15.480  14.048  48.1480  0.00  0.00     0.000 C
ATOM     76  C2  SGN C   5      14.466  14.486  49.2220  0.00  0.00     0.000 C
ATOM     77  C3  SGN C   5      13.106  13.814  48.9900  0.00  0.00     0.000 C
ATOM     78  C4  SGN C   5      12.661  13.935  47.5390  0.00  0.00     0.000 C
ATOM     79  C5  SGN C   5      13.771  13.436  46.6250  0.00  0.00     0.000 C
ATOM     80  O5  SGN C   5      14.967  14.233  46.8350  0.00  0.00     0.000 O
ATOM     81   O  SGN C   5      12.145  14.405  49.8590  0.00  0.00     0.000 O
ATOM     83  HD  SGN C   5      12.350  14.651  50.6640  0.00  0.00     0.000 HD
BRANCH 76 85
ATOM     83   N  SGN C   5      15.622  14.992  49.9720  0.00  0.00     0.000 N
ATOM     85  HD  SGN C   5      16.220  14.928  50.5960  0.00  0.00     0.000 HD
ATOM     85   S  SGN C   5      15.912  14.951  51.5560  0.00  0.00     0.000 S
ATOM     86   O  SGN C   5      17.183  15.519  51.8440  0.00  0.00     0.000 OA
ATOM     87   O  SGN C   5      14.786  15.525  52.2020  0.00  0.00     0.000 OA
ATOM     88   O  SGN C   5      15.963  13.430  51.6760  0.00  0.00     0.000 OA
ENDBRANCH 76 85
BRANCH 79 89
ATOM     89   C  SGN C   5      13.413  13.494  45.1540  0.00  0.00     0.000 C
ATOM     90   O  SGN C   5      13.897  14.733  44.5800  0.00  0.00     0.000 O
ATOM     91   S  SGN C   5      14.329  14.691  43.0350  0.00  0.00     0.000 S
ATOM     92   O  SGN C   5      15.260  13.601  42.9020  0.00  0.00     0.000 OA
ATOM     93   O  SGN C   5      13.128  14.487  42.2650  0.00  0.00     0.000 OA
ATOM     94   O  SGN C   5      14.925  15.982  42.8230  0.00  0.00     0.000 OA
ENDBRANCH 79 89
BRANCH 75 95
ATOM     95  O4  BDP C   6      15.705  12.719  48.3690  0.00  0.00     0.000 O
BRANCH 95 99
ATOM     96  C1  BDP C   6      19.377  10.596  47.6910  0.00  0.00     0.000 C
ATOM     97  C2  BDP C   6      19.402  12.099  47.6920  0.00  0.00     0.000 C
ATOM     98  C3  BDP C   6      18.157  12.752  48.3110  0.00  0.00     0.000 C
ATOM     99  C4  BDP C   6      16.878  12.145  47.7530  0.00  0.00     0.000 C
ATOM    100  C5  BDP C   6      16.996  10.606  47.8550  0.00  0.00     0.000 C
ATOM    101  O5  BDP C   6      18.148  10.303  47.0530  0.00  0.00     0.000 O
BRANCH 100 102
ATOM    102   C  BDP C   6      15.811   9.892  47.2560  0.00  0.00     0.000 C
ATOM    103   O  BDP C   6      15.885   9.268  46.1880  0.00  0.00     0.000 OA
ATOM    104   O  BDP C   6      14.750   9.942  47.8890  0.00  0.00     0.000 OA
ENDBRANCH 100 102
ENDBRANCH 95 99
ENDBRANCH 75 95
ENDBRANCH 74 78
ENDBRANCH 58 74
ENDBRANCH 57 61
ENDBRANCH 37 57
ENDBRANCH 36 40
ENDBRANCH 23 36
ENDBRANCH 22 26
ENDBRANCH 1 22
TORSDOF 20
ENDMDL
MODEL 17
REMARK VINA RESULT:      -7.6      3.604     15.423
ROOT
ATOM      1  C1  NGY C   1       1.708  10.828  52.4750  0.00  0.00     0.000 C
ATOM      2  C2  NGY C   1       1.378   9.345  52.5580  0.00  0.00     0.000 C
ATOM      3  C3  NGY C   1      -0.013   9.080  51.9890  0.00  0.00     0.000 C
ATOM      4  C4  NGY C   1      -1.001   9.975  52.7130  0.00  0.00     0.000 C
ATOM      5  C5  NGY C   1      -0.604  11.430  52.4820  0.00  0.00     0.000 C
ATOM      6  O5  NGY C   1       0.711  11.640  53.0590  0.00  0.00     0.000 O
ATOM      7   O  NGY C   1      -0.327   7.704  52.1440  0.00  0.00     0.000 O
ATOM      9  HD  NGY C   1      -0.187   7.080  52.7280  0.00  0.00     0.000 HD
ATOM      9   O  NGY C   1      -2.324   9.750  52.2500  0.00  0.00     0.000 O
ATOM     11  HD  NGY C   1      -2.185   9.127  52.8340  0.00  0.00     0.000 HD
ENDROOT
BRANCH 2 13
ATOM     11   N  NGY C   1       2.490   8.566  53.0500  0.00  0.00     0.000 N
ATOM     13  HD  NGY C   1       2.541   7.985  52.4100  0.00  0.00     0.000 HD
ATOM     13   C  NGY C   1       2.956   7.513  52.3810  0.00  0.00     0.000 C
ATOM     14   O  NGY C   1       2.367   7.077  51.3900  0.00  0.00     0.000 OA
ATOM     15   C  NGY C   1       4.236   6.913  52.8760  0.00  0.00     0.000 C
ENDBRANCH 2 13
BRANCH 5 16
ATOM     16   C  NGY C   1      -1.495  12.442  53.1300  0.00  0.00     0.000 C
ATOM     17   O  NGY C   1      -0.483  15.890  53.8690  0.00  0.00     0.000 OA
ATOM     18   O  NGY C   1      -0.716  13.595  53.4610  0.00  0.00     0.000 O
ATOM     19   S  NGY C   1      -1.531  14.912  53.7280  0.00  0.00     0.000 S
ATOM     20   O  NGY C   1      -2.266  14.716  54.9500  0.00  0.00     0.000 OA
ATOM     21   O  NGY C   1      -2.380  15.061  52.5570  0.00  0.00     0.000 OA
ENDBRANCH 5 16
BRANCH 1 22
ATOM     22  O4  BDP C   2       1.949  11.149  51.1860  0.00  0.00     0.000 O
BRANCH 22 26
ATOM     23  C1  BDP C   2       4.603  13.503  49.0940  0.00  0.00     0.000 C
ATOM     24  C2  BDP C   2       4.637  13.662  50.5960  0.00  0.00     0.000 C
ATOM     25  C3  BDP C   2       3.908  12.514  51.2430  0.00  0.00     0.000 C
ATOM     26  C4  BDP C   2       2.507  12.379  50.6540  0.00  0.00     0.000 C
ATOM     27  C5  BDP C   2       2.581  12.405  49.1330  0.00  0.00     0.000 C
ATOM     28  O5  BDP C   2       3.229  13.598  48.6240  0.00  0.00     0.000 O
ATOM     29   O  BDP C   2       5.959  13.561  51.1240  0.00  0.00     0.000 O
ATOM     31  HD  BDP C   2       6.040  13.178  51.8960  0.00  0.00     0.000 HD
ATOM     31   O  BDP C   2       3.828  12.805  52.6320  0.00  0.00     0.000 O
ATOM     33  HD  BDP C   2       3.909  12.421  53.4050  0.00  0.00     0.000 HD
BRANCH 27 33
ATOM     33   C  BDP C   2       1.216  12.374  48.4890  0.00  0.00     0.000 C
ATOM     34   O  BDP C   2       0.891  11.489  47.6600  0.00  0.00     0.000 OA
ATOM     35   O  BDP C   2       0.424  13.260  48.7630  0.00  0.00     0.000 OA
ENDBRANCH 27 33
BRANCH 23 36
ATOM     36  O4  SGN C   3       5.337  14.403  48.3990  0.00  0.00     0.000 O
BRANCH 36 40
ATOM     37  C1  SGN C   3       7.709  14.632  44.9710  0.00  0.00     0.000 C
ATOM     38  C2  SGN C   3       6.451  15.514  45.0300  0.00  0.00     0.000 C
ATOM     39  C3  SGN C   3       5.961  15.647  46.4640  0.00  0.00     0.000 C
ATOM     40  C4  SGN C   3       5.722  14.263  47.0290  0.00  0.00     0.000 C
ATOM     41  C5  SGN C   3       7.000  13.461  46.9100  0.00  0.00     0.000 C
ATOM     42  O5  SGN C   3       7.387  13.368  45.5310  0.00  0.00     0.000 O
ATOM     43   O  SGN C   3       4.765  16.417  46.4810  0.00  0.00     0.000 O
ATOM     45  HD  SGN C   3       4.775  15.873  47.1550  0.00  0.00     0.000 HD
BRANCH 38 47
ATOM     45   N  SGN C   3       6.281  15.517  43.5660  0.00  0.00     0.000 N
ATOM     47  HD  SGN C   3       6.110  15.143  44.3280  0.00  0.00     0.000 HD
ATOM     47   S  SGN C   3       6.721  16.899  42.9160  0.00  0.00     0.000 S
ATOM     48   O  SGN C   3       5.863  17.957  43.3190  0.00  0.00     0.000 OA
ATOM     49   O  SGN C   3       8.110  17.058  43.1970  0.00  0.00     0.000 OA
ATOM     50   O  SGN C   3       6.484  16.648  41.4950  0.00  0.00     0.000 OA
ENDBRANCH 38 47
BRANCH 41 51
ATOM     51   C  SGN C   3       6.898  12.059  47.4450  0.00  0.00     0.000 C
ATOM     52   O  SGN C   3       4.065   9.679  47.0070  0.00  0.00     0.000 OA
ATOM     53   O  SGN C   3       6.414   9.242  47.1490  0.00  0.00     0.000 OA
ATOM     54   O  SGN C   3       5.231  10.157  49.0270  0.00  0.00     0.000 OA
ATOM     55   O  SGN C   3       5.683  11.491  47.0070  0.00  0.00     0.000 O
ATOM     56   S  SGN C   3       5.315  10.003  47.6050  0.00  0.00     0.000 S
ENDBRANCH 41 51
BRANCH 37 57
ATOM     57  O4  IDS C   4       8.780  15.129  45.6370  0.00  0.00     0.000 O
BRANCH 57 61
ATOM     58  C1  IDS C   4      12.560  15.482  45.8760  0.00  0.00     0.000 C
ATOM     59  C2  IDS C   4      11.931  15.398  44.5210  0.00  0.00     0.000 C
ATOM     60  C3  IDS C   4      10.789  14.381  44.4610  0.00  0.00     0.000 C
ATOM     61  C4  IDS C   4       9.923  14.255  45.7070  0.00  0.00     0.000 C
ATOM     62  C5  IDS C   4      10.746  14.530  46.9710  0.00  0.00     0.000 C
ATOM     63  O5  IDS C   4      11.542  15.699  46.8370  0.00  0.00     0.000 O
ATOM     64   O  IDS C   4      11.413  13.133  44.2250  0.00  0.00     0.000 O
ATOM     66  HD  IDS C   4      11.323  12.614  44.9120  0.00  0.00     0.000 HD
BRANCH 59 66
ATOM     66   O  IDS C   4      11.360  16.694  44.1070  0.00  0.00     0.000 O
ATOM     67   S  IDS C   4      12.392  17.804  43.6230  0.00  0.00     0.000 S
ATOM     68   O  IDS C   4      12.955  17.229  42.4250  0.00  0.00     0.000 OA
ATOM     69   O  IDS C   4      11.590  18.993  43.4120  0.00  0.00     0.000 OA
ATOM     70   O  IDS C   4      13.392  17.947  44.6700  0.00  0.00     0.000 OA
ENDBRANCH 59 66
BRANCH 62 71
ATOM     71   C  IDS C   4       9.888  14.758  48.2010  0.00  0.00     0.000 C
ATOM     72   O  IDS C   4       9.286  15.805  48.3400  0.00  0.00     0.000 OA
ATOM     73   O  IDS C   4       9.903  13.896  49.1030  0.00  0.00     0.000 OA
ENDBRANCH 62 71
BRANCH 58 74
ATOM     74  O4  SGN C   5      13.521  14.547  46.1220  0.00  0.00     0.000 O
BRANCH 74 78
ATOM     75  C1  SGN C   5      17.160  13.698  47.9880  0.00  0.00     0.000 C
ATOM     76  C2  SGN C   5      15.956  13.916  48.9230  0.00  0.00     0.000 C
ATOM     77  C3  SGN C   5      14.641  13.876  48.1330  0.00  0.00     0.000 C
ATOM     78  C4  SGN C   5      14.708  14.750  46.8890  0.00  0.00     0.000 C
ATOM     79  C5  SGN C   5      15.940  14.382  46.0750  0.00  0.00     0.000 C
ATOM     80  O5  SGN C   5      17.132  14.588  46.8800  0.00  0.00     0.000 O
ATOM     81   O  SGN C   5      13.579  14.297  48.9830  0.00  0.00     0.000 O
ATOM     83  HD  SGN C   5      13.560  14.088  49.8230  0.00  0.00     0.000 HD
BRANCH 76 85
ATOM     83   N  SGN C   5      15.866  12.910  49.9890  0.00  0.00     0.000 N
ATOM     85  HD  SGN C   5      15.833  12.677  50.8230  0.00  0.00     0.000 HD
ATOM     85   S  SGN C   5      16.648  12.838  51.3960  0.00  0.00     0.000 S
ATOM     86   O  SGN C   5      16.218  11.709  52.1450  0.00  0.00     0.000 OA
ATOM     87   O  SGN C   5      18.034  12.934  51.1100  0.00  0.00     0.000 OA
ATOM     88   O  SGN C   5      16.063  14.123  51.9770  0.00  0.00     0.000 OA
ENDBRANCH 76 85
BRANCH 79 89
ATOM     89   C  SGN C   5      16.083  15.184  44.7980  0.00  0.00     0.000 C
ATOM     90   O  SGN C   5      16.732  14.379  43.7840  0.00  0.00     0.000 O
ATOM     91   S  SGN C   5      16.315  14.666  42.2600  0.00  0.00     0.000 S
ATOM     92   O  SGN C   5      14.879  14.593  42.2110  0.00  0.00     0.000 OA
ATOM     93   O  SGN C   5      16.812  15.976  41.9250  0.00  0.00     0.000 OA
ATOM     94   O  SGN C   5      16.968  13.610  41.5350  0.00  0.00     0.000 OA
ENDBRANCH 79 89
BRANCH 75 95
ATOM     95  O4  BDP C   6      17.059  12.410  47.5450  0.00  0.00     0.000 O
BRANCH 95 99
ATOM     96  C1  BDP C   6      20.502   9.877  47.1250  0.00  0.00     0.000 C
ATOM     97  C2  BDP C   6      20.706  11.313  47.5180  0.00  0.00     0.000 C
ATOM     98  C3  BDP C   6      19.436  12.022  48.0110  0.00  0.00     0.000 C
ATOM     99  C4  BDP C   6      18.270  11.790  47.0610  0.00  0.00     0.000 C
ATOM    100  C5  BDP C   6      18.173  10.271  46.7860  0.00  0.00     0.000 C
ATOM    101  O5  BDP C   6      19.442   9.955  46.1910  0.00  0.00     0.000 O
BRANCH 100 102
ATOM    102   C  BDP C   6      17.094   9.928  45.7890  0.00  0.00     0.000 C
ATOM    103   O  BDP C   6      16.135   9.198  46.0770  0.00  0.00     0.000 OA
ATOM    104   O  BDP C   6      17.199  10.422  44.6600  0.00  0.00     0.000 OA
ENDBRANCH 100 102
ENDBRANCH 95 99
ENDBRANCH 75 95
ENDBRANCH 74 78
ENDBRANCH 58 74
ENDBRANCH 57 61
ENDBRANCH 37 57
ENDBRANCH 36 40
ENDBRANCH 23 36
ENDBRANCH 22 26
ENDBRANCH 1 22
TORSDOF 20
ENDMDL
MODEL 18
REMARK VINA RESULT:      -7.6      3.660      6.253
ROOT
ATOM      1  C1  NGY C   1      16.270  12.296  47.5620  0.00  0.00     0.000 C
ATOM      2  C2  NGY C   1      16.747  12.770  48.9280  0.00  0.00     0.000 C
ATOM      3  C3  NGY C   1      17.339  14.172  48.8240  0.00  0.00     0.000 C
ATOM      4  C4  NGY C   1      18.422  14.153  47.7630  0.00  0.00     0.000 C
ATOM      5  C5  NGY C   1      17.798  13.744  46.4320  0.00  0.00     0.000 C
ATOM      6  O5  NGY C   1      17.271  12.399  46.5720  0.00  0.00     0.000 O
ATOM      7   O  NGY C   1      17.841  14.561  50.0940  0.00  0.00     0.000 O
ATOM      9  HD  NGY C   1      18.240  14.184  50.7650  0.00  0.00     0.000 HD
ATOM      9   O  NGY C   1      19.037  15.428  47.6430  0.00  0.00     0.000 O
ATOM     11  HD  NGY C   1      19.436  15.051  48.3130  0.00  0.00     0.000 HD
ENDROOT
BRANCH 2 13
ATOM     11   N  NGY C   1      15.672  12.249  49.7390  0.00  0.00     0.000 N
ATOM     13  HD  NGY C   1      16.031  12.352  50.5210  0.00  0.00     0.000 HD
ATOM     13   C  NGY C   1      15.763  12.195  51.0670  0.00  0.00     0.000 C
ATOM     14   O  NGY C   1      16.820  12.453  51.6440  0.00  0.00     0.000 OA
ATOM     15   C  NGY C   1      14.514  11.834  51.8130  0.00  0.00     0.000 C
ENDBRANCH 2 13
BRANCH 5 16
ATOM     16   C  NGY C   1      18.745  13.689  45.2770  0.00  0.00     0.000 C
ATOM     17   O  NGY C   1      18.362  11.420  42.4190  0.00  0.00     0.000 OA
ATOM     18   O  NGY C   1      18.416  12.557  44.4660  0.00  0.00     0.000 O
ATOM     19   S  NGY C   1      18.986  12.581  43.0020  0.00  0.00     0.000 S
ATOM     20   O  NGY C   1      20.416  12.443  43.1000  0.00  0.00     0.000 OA
ATOM     21   O  NGY C   1      18.562  13.863  42.4650  0.00  0.00     0.000 OA
ENDBRANCH 5 16
BRANCH 1 22
ATOM     22  O4  BDP C   2      15.146  12.970  47.2370  0.00  0.00     0.000 O
BRANCH 22 26
ATOM     23  C1  BDP C   2      11.544  12.565  45.2810  0.00  0.00     0.000 C
ATOM     24  C2  BDP C   2      12.363  11.302  45.4030  0.00  0.00     0.000 C
ATOM     25  C3  BDP C   2      13.446  11.499  46.4300  0.00  0.00     0.000 C
ATOM     26  C4  BDP C   2      14.259  12.748  46.1080  0.00  0.00     0.000 C
ATOM     27  C5  BDP C   2      13.323  13.918  45.8330  0.00  0.00     0.000 C
ATOM     28  O5  BDP C   2      12.379  13.641  44.7670  0.00  0.00     0.000 O
ATOM     29   O  BDP C   2      11.603  10.209  45.9190  0.00  0.00     0.000 O
ATOM     31  HD  BDP C   2      12.022   9.659  46.4410  0.00  0.00     0.000 HD
ATOM     31   O  BDP C   2      14.279  10.347  46.3790  0.00  0.00     0.000 O
ATOM     33  HD  BDP C   2      14.697   9.797  46.9010  0.00  0.00     0.000 HD
BRANCH 27 33
ATOM     33   C  BDP C   2      14.064  15.164  45.4120  0.00  0.00     0.000 C
ATOM     34   O  BDP C   2      13.888  15.695  44.2890  0.00  0.00     0.000 OA
ATOM     35   O  BDP C   2      14.882  15.641  46.1800  0.00  0.00     0.000 OA
ENDBRANCH 27 33
BRANCH 23 36
ATOM     36  O4  SGN C   3      10.455  12.475  44.4820  0.00  0.00     0.000 O
BRANCH 36 40
ATOM     37  C1  SGN C   3       6.598  14.040  44.8020  0.00  0.00     0.000 C
ATOM     38  C2  SGN C   3       7.210  13.930  43.3960  0.00  0.00     0.000 C
ATOM     39  C3  SGN C   3       8.388  12.967  43.4020  0.00  0.00     0.000 C
ATOM     40  C4  SGN C   3       9.393  13.432  44.4340  0.00  0.00     0.000 C
ATOM     41  C5  SGN C   3       8.702  13.533  45.7760  0.00  0.00     0.000 C
ATOM     42  O5  SGN C   3       7.616  14.469  45.6930  0.00  0.00     0.000 O
ATOM     43   O  SGN C   3       8.970  12.931  42.1050  0.00  0.00     0.000 O
ATOM     45  HD  SGN C   3       9.569  12.743  42.7020  0.00  0.00     0.000 HD
BRANCH 38 47
ATOM     45   N  SGN C   3       6.670  14.976  42.5080  0.00  0.00     0.000 N
ATOM     47  HD  SGN C   3       7.350  14.641  42.9260  0.00  0.00     0.000 HD
ATOM     47   S  SGN C   3       5.233  14.596  41.9430  0.00  0.00     0.000 S
ATOM     48   O  SGN C   3       5.298  13.473  41.0760  0.00  0.00     0.000 OA
ATOM     49   O  SGN C   3       4.367  14.486  43.0710  0.00  0.00     0.000 OA
ATOM     50   O  SGN C   3       4.914  15.769  41.1310  0.00  0.00     0.000 OA
ENDBRANCH 38 47
BRANCH 41 51
ATOM     51   C  SGN C   3       9.598  13.983  46.8970  0.00  0.00     0.000 C
ATOM     52   O  SGN C   3       8.589  14.882  50.3690  0.00  0.00     0.000 OA
ATOM     53   O  SGN C   3      10.594  13.833  49.5880  0.00  0.00     0.000 OA
ATOM     54   O  SGN C   3      10.076  16.090  48.9550  0.00  0.00     0.000 OA
ATOM     55   O  SGN C   3       8.818  14.172  48.0570  0.00  0.00     0.000 O
ATOM     56   S  SGN C   3       9.593  14.804  49.3630  0.00  0.00     0.000 S
ENDBRANCH 41 51
BRANCH 37 57
ATOM     57  O4  IDS C   4       6.073  12.886  45.2820  0.00  0.00     0.000 O
BRANCH 57 61
ATOM     58  C1  IDS C   4       3.086  11.485  47.1760  0.00  0.00     0.000 C
ATOM     59  C2  IDS C   4       2.945  12.806  46.4890  0.00  0.00     0.000 C
ATOM     60  C3  IDS C   4       4.193  13.682  46.6270  0.00  0.00     0.000 C
ATOM     61  C4  IDS C   4       5.535  12.962  46.6160  0.00  0.00     0.000 C
ATOM     62  C5  IDS C   4       5.407  11.565  47.2350  0.00  0.00     0.000 C
ATOM     63  O5  IDS C   4       4.280  10.865  46.7290  0.00  0.00     0.000 O
ATOM     64   O  IDS C   4       4.051  14.339  47.8730  0.00  0.00     0.000 O
ATOM     66  HD  IDS C   4       4.654  14.064  48.4310  0.00  0.00     0.000 HD
BRANCH 59 66
ATOM     66   O  IDS C   4       2.708  12.643  45.0420  0.00  0.00     0.000 O
ATOM     67   S  IDS C   4       1.252  13.010  44.5140  0.00  0.00     0.000 S
ATOM     68   O  IDS C   4       1.161  14.429  44.7630  0.00  0.00     0.000 OA
ATOM     69   O  IDS C   4       1.257  12.634  43.1140  0.00  0.00     0.000 OA
ATOM     70   O  IDS C   4       0.301  12.262  45.3210  0.00  0.00     0.000 OA
ENDBRANCH 59 66
BRANCH 62 71
ATOM     71   C  IDS C   4       6.602  10.676  46.9490  0.00  0.00     0.000 C
ATOM     72   O  IDS C   4       6.498   9.745  46.1740  0.00  0.00     0.000 OA
ATOM     73   O  IDS C   4       7.649  10.860  47.6010  0.00  0.00     0.000 OA
ENDBRANCH 62 71
BRANCH 58 74
ATOM     74  O4  SGN C   5       2.800  11.497  48.5090  0.00  0.00     0.000 O
BRANCH 74 78
ATOM     75  C1  SGN C   5       1.404   9.323  51.7900  0.00  0.00     0.000 C
ATOM     76  C2  SGN C   5       2.724   8.831  51.1660  0.00  0.00     0.000 C
ATOM     77  C3  SGN C   5       3.301   9.888  50.2150  0.00  0.00     0.000 C
ATOM     78  C4  SGN C   5       2.243  10.415  49.2540  0.00  0.00     0.000 C
ATOM     79  C5  SGN C   5       1.027  10.877  50.0430  0.00  0.00     0.000 C
ATOM     80  O5  SGN C   5       0.486   9.762  50.7980  0.00  0.00     0.000 O
ATOM     81   O  SGN C   5       4.389   9.318  49.4960  0.00  0.00     0.000 O
ATOM     83  HD  SGN C   5       4.936   8.758  49.8670  0.00  0.00     0.000 HD
BRANCH 76 85
ATOM     83   N  SGN C   5       3.096   8.457  52.5360  0.00  0.00     0.000 N
ATOM     85  HD  SGN C   5       3.658   8.157  53.1230  0.00  0.00     0.000 HD
ATOM     85   S  SGN C   5       3.951   7.194  53.0540  0.00  0.00     0.000 S
ATOM     86   O  SGN C   5       4.110   7.247  54.4660  0.00  0.00     0.000 OA
ATOM     87   O  SGN C   5       3.346   6.029  52.5160  0.00  0.00     0.000 OA
ATOM     88   O  SGN C   5       5.252   7.575  52.3520  0.00  0.00     0.000 OA
ENDBRANCH 76 85
BRANCH 79 89
ATOM     89   C  SGN C   5      -0.077  11.443  49.1730  0.00  0.00     0.000 C
ATOM     90   O  SGN C   5      -0.718  12.550  49.8530  0.00  0.00     0.000 O
ATOM     91   S  SGN C   5      -1.304  13.723  48.9270  0.00  0.00     0.000 S
ATOM     92   O  SGN C   5      -0.229  14.133  48.0610  0.00  0.00     0.000 OA
ATOM     93   O  SGN C   5      -2.418  13.171  48.1990  0.00  0.00     0.000 OA
ATOM     94   O  SGN C   5      -1.691  14.731  49.8760  0.00  0.00     0.000 OA
ENDBRANCH 79 89
BRANCH 75 95
ATOM     95  O4  BDP C   6       1.743  10.371  52.5980  0.00  0.00     0.000 O
BRANCH 95 99
ATOM     96  C1  BDP C   6      -0.350  11.485  56.1800  0.00  0.00     0.000 C
ATOM     97  C2  BDP C   6      -0.749  10.219  55.4750  0.00  0.00     0.000 C
ATOM     98  C3  BDP C   6       0.280   9.712  54.4530  0.00  0.00     0.000 C
ATOM     99  C4  BDP C   6       0.737  10.829  53.5270  0.00  0.00     0.000 C
ATOM    100  C5  BDP C   6       1.144  12.038  54.4020  0.00  0.00     0.000 C
ATOM    101  O5  BDP C   6      -0.064  12.364  55.1080  0.00  0.00     0.000 O
BRANCH 100 102
ATOM    102   C  BDP C   6       1.543  13.240  53.5840  0.00  0.00     0.000 C
ATOM    103   O  BDP C   6       0.968  13.544  52.5290  0.00  0.00     0.000 OA
ATOM    104   O  BDP C   6       2.474  13.928  54.0200  0.00  0.00     0.000 OA
ENDBRANCH 100 102
ENDBRANCH 95 99
ENDBRANCH 75 95
ENDBRANCH 74 78
ENDBRANCH 58 74
ENDBRANCH 57 61
ENDBRANCH 37 57
ENDBRANCH 36 40
ENDBRANCH 23 36
ENDBRANCH 22 26
ENDBRANCH 1 22
TORSDOF 20
ENDMDL
MODEL 19
REMARK VINA RESULT:      -7.5      5.341     18.500
ROOT
ATOM      1  C1  NGY C   1      11.182  12.239  46.3300  0.00  0.00     0.000 C
ATOM      2  C2  NGY C   1      10.480  11.793  45.0550  0.00  0.00     0.000 C
ATOM      3  C3  NGY C   1      10.325  12.970  44.0980  0.00  0.00     0.000 C
ATOM      4  C4  NGY C   1       9.617  14.091  44.8340  0.00  0.00     0.000 C
ATOM      5  C5  NGY C   1      10.463  14.498  46.0370  0.00  0.00     0.000 C
ATOM      6  O5  NGY C   1      10.562  13.357  46.9290  0.00  0.00     0.000 O
ATOM      7   O  NGY C   1       9.604  12.546  42.9500  0.00  0.00     0.000 O
ATOM      9  HD  NGY C   1       8.950  12.007  42.7710  0.00  0.00     0.000 HD
ATOM      9   O  NGY C   1       9.412  15.209  43.9810  0.00  0.00     0.000 O
ATOM     11  HD  NGY C   1       8.758  14.670  43.8030  0.00  0.00     0.000 HD
ENDROOT
BRANCH 2 13
ATOM     11   N  NGY C   1      10.822  10.924  43.9540  0.00  0.00     0.000 N
ATOM     13  HD  NGY C   1      10.589  10.166  44.3030  0.00  0.00     0.000 HD
ATOM     13   C  NGY C   1      10.639   9.606  44.0220  0.00  0.00     0.000 C
ATOM     14   O  NGY C   1      10.307   9.062  45.0760  0.00  0.00     0.000 OA
ATOM     15   C  NGY C   1      10.831   8.834  42.7520  0.00  0.00     0.000 C
ENDBRANCH 2 13
BRANCH 5 16
ATOM     16   C  NGY C   1       9.898  15.608  46.8640  0.00  0.00     0.000 C
ATOM     17   O  NGY C   1      10.808  19.138  46.4530  0.00  0.00     0.000 OA
ATOM     18   O  NGY C   1      10.626  16.807  46.5840  0.00  0.00     0.000 O
ATOM     19   S  NGY C   1       9.917  18.146  46.9990  0.00  0.00     0.000 S
ATOM     20   O  NGY C   1       9.877  18.178  48.4380  0.00  0.00     0.000 OA
ATOM     21   O  NGY C   1       8.603  18.070  46.3830  0.00  0.00     0.000 OA
ENDBRANCH 5 16
BRANCH 1 22
ATOM     22  O4  BDP C   2      12.486  12.453  46.0560  0.00  0.00     0.000 O
BRANCH 22 26
ATOM     23  C1  BDP C   2      16.449  12.592  47.1700  0.00  0.00     0.000 C
ATOM     24  C2  BDP C   2      15.828  11.215  47.1490  0.00  0.00     0.000 C
ATOM     25  C3  BDP C   2      14.527  11.259  46.3900  0.00  0.00     0.000 C
ATOM     26  C4  BDP C   2      13.623  12.350  46.9530  0.00  0.00     0.000 C
ATOM     27  C5  BDP C   2      14.406  13.649  47.0920  0.00  0.00     0.000 C
ATOM     28  O5  BDP C   2      15.593  13.503  47.9140  0.00  0.00     0.000 O
ATOM     29   O  BDP C   2      16.613  10.274  46.4180  0.00  0.00     0.000 O
ATOM     31  HD  BDP C   2      16.180   9.677  45.9650  0.00  0.00     0.000 HD
ATOM     31   O  BDP C   2      13.913   9.986  46.5480  0.00  0.00     0.000 O
ATOM     33  HD  BDP C   2      13.480   9.388  46.0950  0.00  0.00     0.000 HD
BRANCH 27 33
ATOM     33   C  BDP C   2      13.594  14.747  47.7370  0.00  0.00     0.000 C
ATOM     34   O  BDP C   2      13.573  15.915  47.2810  0.00  0.00     0.000 OA
ATOM     35   O  BDP C   2      12.969  14.487  48.7520  0.00  0.00     0.000 OA
ENDBRANCH 27 33
BRANCH 23 36
ATOM     36  O4  SGN C   3      17.688  12.660  47.7110  0.00  0.00     0.000 O
BRANCH 36 40
ATOM     37  C1  SGN C   3      21.281  14.702  47.1220  0.00  0.00     0.000 C
ATOM     38  C2  SGN C   3      20.607  14.826  48.4970  0.00  0.00     0.000 C
ATOM     39  C3  SGN C   3      19.587  13.713  48.6930  0.00  0.00     0.000 C
ATOM     40  C4  SGN C   3      18.591  13.758  47.5550  0.00  0.00     0.000 C
ATOM     41  C5  SGN C   3      19.341  13.653  46.2450  0.00  0.00     0.000 C
ATOM     42  O5  SGN C   3      20.268  14.743  46.1290  0.00  0.00     0.000 O
ATOM     43   O  SGN C   3      18.938  13.887  49.9460  0.00  0.00     0.000 O
ATOM     45  HD  SGN C   3      18.412  13.473  49.3970  0.00  0.00     0.000 HD
BRANCH 38 47
ATOM     45   N  SGN C   3      21.202  16.156  48.7170  0.00  0.00     0.000 N
ATOM     47  HD  SGN C   3      20.554  15.681  48.3940  0.00  0.00     0.000 HD
ATOM     47   S  SGN C   3      22.368  16.118  49.7960  0.00  0.00     0.000 S
ATOM     48   O  SGN C   3      21.869  15.798  51.0870  0.00  0.00     0.000 OA
ATOM     49   O  SGN C   3      23.383  15.264  49.2710  0.00  0.00     0.000 OA
ATOM     50   O  SGN C   3      22.798  17.515  49.8190  0.00  0.00     0.000 OA
ENDBRANCH 38 47
BRANCH 41 51
ATOM     51   C  SGN C   3      18.459  13.681  45.0270  0.00  0.00     0.000 C
ATOM     52   O  SGN C   3      18.148  11.051  42.4070  0.00  0.00     0.000 OA
ATOM     53   O  SGN C   3      16.488  12.541  43.2740  0.00  0.00     0.000 OA
ATOM     54   O  SGN C   3      18.374  13.396  42.0580  0.00  0.00     0.000 OA
ATOM     55   O  SGN C   3      18.609  12.465  44.3280  0.00  0.00     0.000 O
ATOM     56   S  SGN C   3      17.832  12.355  42.8810  0.00  0.00     0.000 S
ENDBRANCH 41 51
BRANCH 37 57
ATOM     57  O4  IDS C   4      22.001  13.567  46.9450  0.00  0.00     0.000 O
BRANCH 57 61
ATOM     58  C1  IDS C   4      25.296  12.497  45.3740  0.00  0.00     0.000 C
ATOM     59  C2  IDS C   4      25.058  13.953  45.6220  0.00  0.00     0.000 C
ATOM     60  C3  IDS C   4      23.623  14.380  45.3070  0.00  0.00     0.000 C
ATOM     61  C4  IDS C   4      22.527  13.370  45.6190  0.00  0.00     0.000 C
ATOM     62  C5  IDS C   4      23.043  11.937  45.4410  0.00  0.00     0.000 C
ATOM     63  O5  IDS C   4      24.306  11.750  46.0610  0.00  0.00     0.000 O
ATOM     64   O  IDS C   4      23.608  14.637  43.9150  0.00  0.00     0.000 O
ATOM     66  HD  IDS C   4      23.115  14.056  43.5040  0.00  0.00     0.000 HD
BRANCH 59 66
ATOM     66   O  IDS C   4      25.300  14.308  47.0340  0.00  0.00     0.000 O
ATOM     67   S  IDS C   4      26.672  15.047  47.3550  0.00  0.00     0.000 S
ATOM     68   O  IDS C   4      26.542  16.303  46.6570  0.00  0.00     0.000 OA
ATOM     69   O  IDS C   4      26.709  15.152  48.8010  0.00  0.00     0.000 OA
ATOM     70   O  IDS C   4      27.740  14.231  46.7980  0.00  0.00     0.000 OA
ENDBRANCH 59 66
BRANCH 62 71
ATOM     71   C  IDS C   4      22.127  10.895  46.0560  0.00  0.00     0.000 C
ATOM     72   O  IDS C   4      22.533  10.178  46.9500  0.00  0.00     0.000 OA
ATOM     73   O  IDS C   4      20.998  10.726  45.5540  0.00  0.00     0.000 OA
ENDBRANCH 62 71
BRANCH 58 74
ATOM     74  O4  SGN C   5      25.597  12.175  44.0830  0.00  0.00     0.000 O
BRANCH 74 78
ATOM     75  C1  SGN C   5      27.593   9.166  41.9860  0.00  0.00     0.000 C
ATOM     76  C2  SGN C   5      26.183   9.523  41.4770  0.00  0.00     0.000 C
ATOM     77  C3  SGN C   5      25.704  10.844  42.0920  0.00  0.00     0.000 C
ATOM     78  C4  SGN C   5      25.914  10.870  43.6000  0.00  0.00     0.000 C
ATOM     79  C5  SGN C   5      27.361  10.520  43.9160  0.00  0.00     0.000 C
ATOM     80  O5  SGN C   5      27.662   9.194  43.4060  0.00  0.00     0.000 O
ATOM     81   O  SGN C   5      24.327  11.028  41.7760  0.00  0.00     0.000 O
ATOM     83  HD  SGN C   5      24.001  10.789  41.0100  0.00  0.00     0.000 HD
BRANCH 76 85
ATOM     83   N  SGN C   5      26.560   8.614  40.3870  0.00  0.00     0.000 N
ATOM     85  HD  SGN C   5      26.732   8.443  39.5560  0.00  0.00     0.000 HD
ATOM     85   S  SGN C   5      25.981   8.521  38.8870  0.00  0.00     0.000 S
ATOM     86   O  SGN C   5      26.669   7.519  38.1500  0.00  0.00     0.000 OA
ATOM     87   O  SGN C   5      24.571   8.394  38.9890  0.00  0.00     0.000 OA
ATOM     88   O  SGN C   5      26.429   9.913  38.4500  0.00  0.00     0.000 OA
ENDBRANCH 76 85
BRANCH 79 89
ATOM     89   C  SGN C   5      27.678  10.543  45.3980  0.00  0.00     0.000 C
ATOM     90   O  SGN C   5      26.808   9.621  46.0990  0.00  0.00     0.000 O
ATOM     91   S  SGN C   5      27.411   8.917  47.4090  0.00  0.00     0.000 S
ATOM     92   O  SGN C   5      28.664   8.328  47.0150  0.00  0.00     0.000 OA
ATOM     93   O  SGN C   5      27.574   9.945  48.4050  0.00  0.00     0.000 OA
ATOM     94   O  SGN C   5      26.407   7.947  47.7550  0.00  0.00     0.000 OA
ENDBRANCH 79 89
BRANCH 75 95
ATOM     95  O4  BDP C   6      28.427  10.115  41.4670  0.00  0.00     0.000 O
BRANCH 95 99
ATOM     96  C1  BDP C   6      32.266   8.921  39.9550  0.00  0.00     0.000 C
ATOM     97  C2  BDP C   6      31.494   7.954  40.8080  0.00  0.00     0.000 C
ATOM     98  C3  BDP C   6      30.008   8.304  40.9760  0.00  0.00     0.000 C
ATOM     99  C4  BDP C   6      29.824   9.766  41.3590  0.00  0.00     0.000 C
ATOM    100  C5  BDP C   6      30.648  10.625  40.3720  0.00  0.00     0.000 C
ATOM    101  O5  BDP C   6      31.995  10.167  40.5700  0.00  0.00     0.000 O
BRANCH 100 102
ATOM    102   C  BDP C   6      30.604  12.095  40.7040  0.00  0.00     0.000 C
ATOM    103   O  BDP C   6      30.348  12.509  41.8440  0.00  0.00     0.000 OA
ATOM    104   O  BDP C   6      30.849  12.884  39.7830  0.00  0.00     0.000 OA
ENDBRANCH 100 102
ENDBRANCH 95 99
ENDBRANCH 75 95
ENDBRANCH 74 78
ENDBRANCH 58 74
ENDBRANCH 57 61
ENDBRANCH 37 57
ENDBRANCH 36 40
ENDBRANCH 23 36
ENDBRANCH 22 26
ENDBRANCH 1 22
TORSDOF 20
ENDMDL
MODEL 20
REMARK VINA RESULT:      -7.5      3.247      5.817
ROOT
ATOM      1  C1  NGY C   1      16.282  12.806  49.1690  0.00  0.00     0.000 C
ATOM      2  C2  NGY C   1      16.782  14.121  49.7500  0.00  0.00     0.000 C
ATOM      3  C3  NGY C   1      17.400  14.983  48.6540  0.00  0.00     0.000 C
ATOM      4  C4  NGY C   1      18.472  14.168  47.9560  0.00  0.00     0.000 C
ATOM      5  C5  NGY C   1      17.826  12.925  47.3500  0.00  0.00     0.000 C
ATOM      6  O5  NGY C   1      17.275  12.127  48.4290  0.00  0.00     0.000 O
ATOM      7   O  NGY C   1      17.923  16.170  49.2320  0.00  0.00     0.000 O
ATOM      9  HD  NGY C   1      18.321  16.399  49.9670  0.00  0.00     0.000 HD
ATOM      9   O  NGY C   1      19.111  14.930  46.9430  0.00  0.00     0.000 O
ATOM     11  HD  NGY C   1      19.509  15.159  47.6770  0.00  0.00     0.000 HD
ENDROOT
BRANCH 2 13
ATOM     11   N  NGY C   1      16.888  14.872  50.9790  0.00  0.00     0.000 N
ATOM     13  HD  NGY C   1      16.045  15.007  51.1270  0.00  0.00     0.000 HD
ATOM     13   C  NGY C   1      15.808  15.325  51.6160  0.00  0.00     0.000 C
ATOM     14   O  NGY C   1      14.689  15.245  51.1070  0.00  0.00     0.000 OA
ATOM     15   C  NGY C   1      16.026  15.905  52.9800  0.00  0.00     0.000 C
ENDBRANCH 2 13
BRANCH 5 16
ATOM     16   C  NGY C   1      18.761  12.018  46.6140  0.00  0.00     0.000 C
ATOM     17   O  NGY C   1      17.748   8.848  45.0700  0.00  0.00     0.000 OA
ATOM     18   O  NGY C   1      18.086  10.788  46.3390  0.00  0.00     0.000 O
ATOM     19   S  NGY C   1      18.723   9.901  45.2100  0.00  0.00     0.000 S
ATOM     20   O  NGY C   1      19.983   9.417  45.7100  0.00  0.00     0.000 OA
ATOM     21   O  NGY C   1      18.854  10.795  44.0720  0.00  0.00     0.000 OA
ENDBRANCH 5 16
BRANCH 1 22
ATOM     22  O4  BDP C   2      15.169  13.047  48.4440  0.00  0.00     0.000 O
BRANCH 22 26
ATOM     23  C1  BDP C   2      11.383  11.962  47.2360  0.00  0.00     0.000 C
ATOM     24  C2  BDP C   2      11.666  11.801  48.7110  0.00  0.00     0.000 C
ATOM     25  C3  BDP C   2      12.916  12.559  49.0720  0.00  0.00     0.000 C
ATOM     26  C4  BDP C   2      14.067  12.144  48.1610  0.00  0.00     0.000 C
ATOM     27  C5  BDP C   2      13.613  12.177  46.7080  0.00  0.00     0.000 C
ATOM     28  O5  BDP C   2      12.451  11.343  46.4640  0.00  0.00     0.000 O
ATOM     29   O  BDP C   2      10.660  12.403  49.5270  0.00  0.00     0.000 O
ATOM     31  HD  BDP C   2      10.928  12.774  50.2620  0.00  0.00     0.000 HD
ATOM     31   O  BDP C   2      13.221  12.235  50.4230  0.00  0.00     0.000 O
ATOM     33  HD  BDP C   2      13.489  12.605  51.1580  0.00  0.00     0.000 HD
BRANCH 27 33
ATOM     33   C  BDP C   2      14.679  11.681  45.7590  0.00  0.00     0.000 C
ATOM     34   O  BDP C   2      15.244  12.442  44.9370  0.00  0.00     0.000 OA
ATOM     35   O  BDP C   2      14.966  10.496  45.7770  0.00  0.00     0.000 OA
ENDBRANCH 27 33
BRANCH 23 36
ATOM     36  O4  SGN C   3      10.212  11.435  46.8100  0.00  0.00     0.000 O
BRANCH 36 40
ATOM     37  C1  SGN C   3       6.548  12.467  45.0950  0.00  0.00     0.000 C
ATOM     38  C2  SGN C   3       7.573  11.742  44.2080  0.00  0.00     0.000 C
ATOM     39  C3  SGN C   3       8.632  11.063  45.0640  0.00  0.00     0.000 C
ATOM     40  C4  SGN C   3       9.276  12.101  45.9580  0.00  0.00     0.000 C
ATOM     41  C5  SGN C   3       8.196  12.778  46.7740  0.00  0.00     0.000 C
ATOM     42  O5  SGN C   3       7.247  13.405  45.8980  0.00  0.00     0.000 O
ATOM     43   O  SGN C   3       9.598  10.451  44.2170  0.00  0.00     0.000 O
ATOM     45  HD  SGN C   3       9.961  10.663  44.9750  0.00  0.00     0.000 HD
BRANCH 38 47
ATOM     45   N  SGN C   3       6.839  10.731  43.4250  0.00  0.00     0.000 N
ATOM     47  HD  SGN C   3       7.213  10.958  44.1730  0.00  0.00     0.000 HD
ATOM     47   S  SGN C   3       6.208  11.343  42.1010  0.00  0.00     0.000 S
ATOM     48   O  SGN C   3       5.189  12.286  42.4010  0.00  0.00     0.000 OA
ATOM     49   O  SGN C   3       7.297  11.808  41.3060  0.00  0.00     0.000 OA
ATOM     50   O  SGN C   3       5.569  10.171  41.5060  0.00  0.00     0.000 OA
ENDBRANCH 38 47
BRANCH 41 51
ATOM     51   C  SGN C   3       8.708  13.835  47.7150  0.00  0.00     0.000 C
ATOM     52   O  SGN C   3       7.065  15.078  50.8190  0.00  0.00     0.000 OA
ATOM     53   O  SGN C   3       9.393  14.813  50.3280  0.00  0.00     0.000 OA
ATOM     54   O  SGN C   3       8.064  16.395  49.1040  0.00  0.00     0.000 OA
ATOM     55   O  SGN C   3       7.803  13.966  48.7890  0.00  0.00     0.000 O
ATOM     56   S  SGN C   3       8.111  15.178  49.8590  0.00  0.00     0.000 S
ENDBRANCH 41 51
BRANCH 37 57
ATOM     57  O4  IDS C   4       5.835  11.657  45.9140  0.00  0.00     0.000 O
BRANCH 57 61
ATOM     58  C1  IDS C   4       2.241  11.460  47.1460  0.00  0.00     0.000 C
ATOM     59  C2  IDS C   4       2.562  12.382  46.0120  0.00  0.00     0.000 C
ATOM     60  C3  IDS C   4       3.893  13.113  46.2030  0.00  0.00     0.000 C
ATOM     61  C4  IDS C   4       5.009  12.331  46.8820  0.00  0.00     0.000 C
ATOM     62  C5  IDS C   4       4.435  11.339  47.9000  0.00  0.00     0.000 C
ATOM     63  O5  IDS C   4       3.348  10.601  47.3610  0.00  0.00     0.000 O
ATOM     64   O  IDS C   4       3.587  14.240  47.0040  0.00  0.00     0.000 O
ATOM     66  HD  IDS C   4       3.958  14.167  47.7830  0.00  0.00     0.000 HD
BRANCH 59 66
ATOM     66   O  IDS C   4       2.665  11.653  44.7340  0.00  0.00     0.000 O
ATOM     67   S  IDS C   4       1.696  12.129  43.5640  0.00  0.00     0.000 S
ATOM     68   O  IDS C   4       2.153  13.469  43.2840  0.00  0.00     0.000 OA
ATOM     69   O  IDS C   4       1.907  11.175  42.4940  0.00  0.00     0.000 OA
ATOM     70   O  IDS C   4       0.343  12.124  44.0980  0.00  0.00     0.000 OA
ENDBRANCH 59 66
BRANCH 62 71
ATOM     71   C  IDS C   4       5.446  10.303  48.3550  0.00  0.00     0.000 C
ATOM     72   O  IDS C   4       5.178   9.119  48.2900  0.00  0.00     0.000 OA
ATOM     73   O  IDS C   4       6.502  10.699  48.8880  0.00  0.00     0.000 OA
ENDBRANCH 62 71
BRANCH 58 74
ATOM     74  O4  SGN C   5       1.640  12.053  48.2170  0.00  0.00     0.000 O
BRANCH 74 78
ATOM     75  C1  SGN C   5      -1.067  11.629  51.3690  0.00  0.00     0.000 C
ATOM     76  C2  SGN C   5       0.223  10.792  51.4680  0.00  0.00     0.000 C
ATOM     77  C3  SGN C   5       1.267  11.282  50.4560  0.00  0.00     0.000 C
ATOM     78  C4  SGN C   5       0.665  11.450  49.0670  0.00  0.00     0.000 C
ATOM     79  C5  SGN C   5      -0.579  12.321  49.1560  0.00  0.00     0.000 C
ATOM     80  O5  SGN C   5      -1.550  11.692  50.0330  0.00  0.00     0.000 O
ATOM     81   O  SGN C   5       2.348  10.356  50.4230  0.00  0.00     0.000 O
ATOM     83  HD  SGN C   5       2.626   9.957  51.1400  0.00  0.00     0.000 HD
BRANCH 76 85
ATOM     83   N  SGN C   5       0.562   9.834  52.5280  0.00  0.00     0.000 N
ATOM     85  HD  SGN C   5       0.413   9.445  53.2870  0.00  0.00     0.000 HD
ATOM     85   S  SGN C   5       0.471  10.002  54.1270  0.00  0.00     0.000 S
ATOM     86   O  SGN C   5       0.859   8.798  54.7760  0.00  0.00     0.000 OA
ATOM     87   O  SGN C   5       1.187  11.179  54.4660  0.00  0.00     0.000 OA
ATOM     88   O  SGN C   5      -1.044  10.181  54.1880  0.00  0.00     0.000 OA
ENDBRANCH 76 85
BRANCH 79 89
ATOM     89   C  SGN C   5      -1.240  12.568  47.8150  0.00  0.00     0.000 C
ATOM     90   O  SGN C   5      -2.524  11.899  47.7700  0.00  0.00     0.000 O
ATOM     91   S  SGN C   5      -3.668  12.592  46.8830  0.00  0.00     0.000 S
ATOM     92   O  SGN C   5      -3.754  13.959  47.3280  0.00  0.00     0.000 OA
ATOM     93   O  SGN C   5      -3.259  12.486  45.5060  0.00  0.00     0.000 OA
ATOM     94   O  SGN C   5      -4.839  11.816  47.1890  0.00  0.00     0.000 OA
ENDBRANCH 79 89
BRANCH 75 95
ATOM     95  O4  BDP C   6      -0.730  12.883  51.7940  0.00  0.00     0.000 O
BRANCH 95 99
ATOM     96  C1  BDP C   6      -3.072  15.906  53.7490  0.00  0.00     0.000 C
ATOM     97  C2  BDP C   6      -3.323  14.465  54.0920  0.00  0.00     0.000 C
ATOM     98  C3  BDP C   6      -2.208  13.505  53.6500  0.00  0.00     0.000 C
ATOM     99  C4  BDP C   6      -1.814  13.746  52.2000  0.00  0.00     0.000 C
ATOM    100  C5  BDP C   6      -1.558  15.261  52.0210  0.00  0.00     0.000 C
ATOM    101  O5  BDP C   6      -2.821  15.858  52.3560  0.00  0.00     0.000 O
BRANCH 100 102
ATOM    102   C  BDP C   6      -1.234  15.631  50.5950  0.00  0.00     0.000 C
ATOM    103   O  BDP C   6      -2.107  15.723  49.7200  0.00  0.00     0.000 OA
ATOM    104   O  BDP C   6      -0.046  15.854  50.3320  0.00  0.00     0.000 OA
ENDBRANCH 100 102
ENDBRANCH 95 99
ENDBRANCH 75 95
ENDBRANCH 74 78
ENDBRANCH 58 74
ENDBRANCH 57 61
ENDBRANCH 37 57
ENDBRANCH 36 40
ENDBRANCH 23 36
ENDBRANCH 22 26
ENDBRANCH 1 22
TORSDOF 20
ENDMDL
MODEL 21
REMARK VINA RESULT:      -7.4     15.744     23.197
ROOT
ATOM      1  C1  NGY C   1      35.980   2.813  32.1970  0.00  0.00     0.000 C
ATOM      2  C2  NGY C   1      37.324   2.418  32.7930  0.00  0.00     0.000 C
ATOM      3  C3  NGY C   1      38.396   3.428  32.3940  0.00  0.00     0.000 C
ATOM      4  C4  NGY C   1      38.400   3.545  30.8820  0.00  0.00     0.000 C
ATOM      5  C5  NGY C   1      37.026   4.025  30.4240  0.00  0.00     0.000 C
ATOM      6  O5  NGY C   1      36.046   3.024  30.8020  0.00  0.00     0.000 O
ATOM      7   O  NGY C   1      39.652   3.000  32.9000  0.00  0.00     0.000 O
ATOM      9  HD  NGY C   1      40.067   2.250  33.0240  0.00  0.00     0.000 HD
ATOM      9   O  NGY C   1      39.404   4.450  30.4450  0.00  0.00     0.000 O
ATOM     11  HD  NGY C   1      39.819   3.700  30.5690  0.00  0.00     0.000 HD
ENDROOT
BRANCH 2 13
ATOM     11   N  NGY C   1      38.178   1.882  33.8260  0.00  0.00     0.000 N
ATOM     13  HD  NGY C   1      37.568   1.574  34.3580  0.00  0.00     0.000 HD
ATOM     13   C  NGY C   1      37.677   1.283  34.9050  0.00  0.00     0.000 C
ATOM     14   O  NGY C   1      36.466   1.290  35.1330  0.00  0.00     0.000 OA
ATOM     15   C  NGY C   1      38.653   0.584  35.8010  0.00  0.00     0.000 C
ENDBRANCH 2 13
BRANCH 5 16
ATOM     16   C  NGY C   1      36.875   4.200  28.9460  0.00  0.00     0.000 C
ATOM     17   O  NGY C   1      36.129   7.407  27.3280  0.00  0.00     0.000 OA
ATOM     18   O  NGY C   1      36.378   5.516  28.6880  0.00  0.00     0.000 O
ATOM     19   S  NGY C   1      36.574   6.041  27.2200  0.00  0.00     0.000 S
ATOM     20   O  NGY C   1      35.721   5.252  26.3690  0.00  0.00     0.000 OA
ATOM     21   O  NGY C   1      37.991   5.857  26.9520  0.00  0.00     0.000 OA
ENDBRANCH 5 16
BRANCH 1 22
ATOM     22  O4  BDP C   2      35.508   3.887  32.8630  0.00  0.00     0.000 O
BRANCH 22 26
ATOM     23  C1  BDP C   2      32.382   6.012  34.5010  0.00  0.00     0.000 C
ATOM     24  C2  BDP C   2      32.430   4.545  34.8600  0.00  0.00     0.000 C
ATOM     25  C3  BDP C   2      33.784   3.984  34.5130  0.00  0.00     0.000 C
ATOM     26  C4  BDP C   2      34.126   4.288  33.0590  0.00  0.00     0.000 C
ATOM     27  C5  BDP C   2      33.874   5.762  32.7660  0.00  0.00     0.000 C
ATOM     28  O5  BDP C   2      32.512   6.167  33.0600  0.00  0.00     0.000 O
ATOM     29   O  BDP C   2      32.324   4.325  36.2660  0.00  0.00     0.000 O
ATOM     31  HD  BDP C   2      32.786   3.669  36.5910  0.00  0.00     0.000 HD
ATOM     31   O  BDP C   2      33.712   2.577  34.7140  0.00  0.00     0.000 O
ATOM     33  HD  BDP C   2      34.174   1.921  35.0390  0.00  0.00     0.000 HD
BRANCH 27 33
ATOM     33   C  BDP C   2      34.101   6.109  31.3140  0.00  0.00     0.000 C
ATOM     34   O  BDP C   2      34.627   7.192  30.9630  0.00  0.00     0.000 OA
ATOM     35   O  BDP C   2      33.726   5.320  30.4630  0.00  0.00     0.000 OA
ENDBRANCH 27 33
BRANCH 23 36
ATOM     36  O4  SGN C   3      31.261   6.666  34.8840  0.00  0.00     0.000 O
BRANCH 36 40
ATOM     37  C1  SGN C   3      29.811  10.278  36.3940  0.00  0.00     0.000 C
ATOM     38  C2  SGN C   3      29.739  10.059  34.8740  0.00  0.00     0.000 C
ATOM     39  C3  SGN C   3      29.884   8.581  34.5420  0.00  0.00     0.000 C
ATOM     40  C4  SGN C   3      31.178   8.071  35.1380  0.00  0.00     0.000 C
ATOM     41  C5  SGN C   3      31.173   8.348  36.6250  0.00  0.00     0.000 C
ATOM     42  O5  SGN C   3      31.049   9.760  36.8550  0.00  0.00     0.000 O
ATOM     43   O  SGN C   3      29.873   8.415  33.1290  0.00  0.00     0.000 O
ATOM     45  HD  SGN C   3      30.324   7.774  33.4980  0.00  0.00     0.000 HD
BRANCH 38 47
ATOM     45   N  SGN C   3      29.847  11.478  34.4910  0.00  0.00     0.000 N
ATOM     47  HD  SGN C   3      30.240  10.720  34.6340  0.00  0.00     0.000 HD
ATOM     47   S  SGN C   3      28.432  12.112  34.1410  0.00  0.00     0.000 S
ATOM     48   O  SGN C   3      27.878  11.528  32.9710  0.00  0.00     0.000 OA
ATOM     49   O  SGN C   3      27.646  12.036  35.3290  0.00  0.00     0.000 OA
ATOM     50   O  SGN C   3      28.795  13.491  33.8230  0.00  0.00     0.000 OA
ENDBRANCH 38 47
BRANCH 41 51
ATOM     51   C  SGN C   3      32.411   7.881  37.3420  0.00  0.00     0.000 C
ATOM     52   O  SGN C   3      32.626   5.311  40.0300  0.00  0.00     0.000 OA
ATOM     53   O  SGN C   3      34.192   5.840  38.2980  0.00  0.00     0.000 OA
ATOM     54   O  SGN C   3      33.679   7.447  40.0070  0.00  0.00     0.000 OA
ATOM     55   O  SGN C   3      32.055   6.862  38.2490  0.00  0.00     0.000 O
ATOM     56   S  SGN C   3      33.251   6.315  39.2390  0.00  0.00     0.000 S
ENDBRANCH 41 51
BRANCH 37 57
ATOM     57  O4  IDS C   4      28.816   9.687  37.0990  0.00  0.00     0.000 O
BRANCH 57 61
ATOM     58  C1  IDS C   4      27.446  11.402  40.2060  0.00  0.00     0.000 C
ATOM     59  C2  IDS C   4      28.651  11.984  39.5370  0.00  0.00     0.000 C
ATOM     60  C3  IDS C   4      29.631  10.914  39.0500  0.00  0.00     0.000 C
ATOM     61  C4  IDS C   4      29.023   9.622  38.5230  0.00  0.00     0.000 C
ATOM     62  C5  IDS C   4      27.714   9.300  39.2530  0.00  0.00     0.000 C
ATOM     63  O5  IDS C   4      26.868  10.437  39.3430  0.00  0.00     0.000 O
ATOM     64   O  IDS C   4      30.433  10.603  40.1740  0.00  0.00     0.000 O
ATOM     66  HD  IDS C   4      30.281   9.793  40.4390  0.00  0.00     0.000 HD
BRANCH 59 66
ATOM     66   O  IDS C   4      28.281  12.782  38.3530  0.00  0.00     0.000 O
ATOM     67   S  IDS C   4      28.900  14.245  38.2600  0.00  0.00     0.000 S
ATOM     68   O  IDS C   4      30.316  13.995  38.1310  0.00  0.00     0.000 OA
ATOM     69   O  IDS C   4      28.277  14.842  37.0960  0.00  0.00     0.000 OA
ATOM     70   O  IDS C   4      28.587  14.924  39.5080  0.00  0.00     0.000 OA
ENDBRANCH 59 66
BRANCH 62 71
ATOM     71   C  IDS C   4      26.891   8.233  38.5570  0.00  0.00     0.000 C
ATOM     72   O  IDS C   4      25.761   8.480  38.1830  0.00  0.00     0.000 OA
ATOM     73   O  IDS C   4      27.361   7.080  38.4740  0.00  0.00     0.000 OA
ENDBRANCH 62 71
BRANCH 58 74
ATOM     74  O4  SGN C   5      27.610  11.102  41.5260  0.00  0.00     0.000 O
BRANCH 74 78
ATOM     75  C1  SGN C   5      25.883  11.183  45.3280  0.00  0.00     0.000 C
ATOM     76  C2  SGN C   5      25.601   9.925  44.4850  0.00  0.00     0.000 C
ATOM     77  C3  SGN C   5      26.548   9.857  43.2790  0.00  0.00     0.000 C
ATOM     78  C4  SGN C   5      26.601  11.184  42.5330  0.00  0.00     0.000 C
ATOM     79  C5  SGN C   5      26.914  12.305  43.5130  0.00  0.00     0.000 C
ATOM     80  O5  SGN C   5      25.880  12.361  44.5320  0.00  0.00     0.000 O
ATOM     81   O  SGN C   5      26.117   8.813  42.4110  0.00  0.00     0.000 O
ATOM     83  HD  SGN C   5      25.790   8.073  42.7190  0.00  0.00     0.000 HD
BRANCH 76 85
ATOM     83   N  SGN C   5      25.287   8.539  44.8530  0.00  0.00     0.000 N
ATOM     85  HD  SGN C   5      24.792   7.941  45.2360  0.00  0.00     0.000 HD
ATOM     85   S  SGN C   5      24.722   7.953  46.2430  0.00  0.00     0.000 S
ATOM     86   O  SGN C   5      24.519   6.549  46.1450  0.00  0.00     0.000 OA
ATOM     87   O  SGN C   5      25.585   8.411  47.2720  0.00  0.00     0.000 OA
ATOM     88   O  SGN C   5      23.387   8.693  46.2040  0.00  0.00     0.000 OA
ENDBRANCH 76 85
BRANCH 79 89
ATOM     89   C  SGN C   5      27.013  13.668  42.8600  0.00  0.00     0.000 C
ATOM     90   O  SGN C   5      25.760  13.991  42.2090  0.00  0.00     0.000 O
ATOM     91   S  SGN C   5      25.358  15.544  42.1490  0.00  0.00     0.000 S
ATOM     92   O  SGN C   5      25.441  16.038  43.4990  0.00  0.00     0.000 OA
ATOM     93   O  SGN C   5      26.296  16.191  41.2680  0.00  0.00     0.000 OA
ATOM     94   O  SGN C   5      24.017  15.519  41.6310  0.00  0.00     0.000 OA
ENDBRANCH 79 89
BRANCH 75 95
ATOM     95  O4  BDP C   6      27.125  10.998  45.8690  0.00  0.00     0.000 O
BRANCH 95 99
ATOM     96  C1  BDP C   6      28.127  12.603  49.7240  0.00  0.00     0.000 C
ATOM     97  C2  BDP C   6      26.809  12.977  49.1070  0.00  0.00     0.000 C
ATOM     98  C3  BDP C   6      26.377  12.076  47.9410  0.00  0.00     0.000 C
ATOM     99  C4  BDP C   6      27.507  11.886  46.9400  0.00  0.00     0.000 C
ATOM    100  C5  BDP C   6      28.774  11.472  47.7250  0.00  0.00     0.000 C
ATOM    101  O5  BDP C   6      29.000  12.580  48.6100  0.00  0.00     0.000 O
BRANCH 100 102
ATOM    102   C  BDP C   6      29.986  11.330  46.8390  0.00  0.00     0.000 C
ATOM    103   O  BDP C   6      30.702  10.319  46.8530  0.00  0.00     0.000 OA
ATOM    104   O  BDP C   6      30.234  12.272  46.0770  0.00  0.00     0.000 OA
ENDBRANCH 100 102
ENDBRANCH 95 99
ENDBRANCH 75 95
ENDBRANCH 74 78
ENDBRANCH 58 74
ENDBRANCH 57 61
ENDBRANCH 37 57
ENDBRANCH 36 40
ENDBRANCH 23 36
ENDBRANCH 22 26
ENDBRANCH 1 22
TORSDOF 20
ENDMDL
MODEL 22
REMARK VINA RESULT:      -7.3     19.006     26.886
ROOT
ATOM      1  C1  NGY C   1      33.189  10.390  48.3200  0.00  0.00     0.000 C
ATOM      2  C2  NGY C   1      34.012   9.449  49.1890  0.00  0.00     0.000 C
ATOM      3  C3  NGY C   1      33.096   8.491  49.9440  0.00  0.00     0.000 C
ATOM      4  C4  NGY C   1      32.078   9.312  50.7130  0.00  0.00     0.000 C
ATOM      5  C5  NGY C   1      31.270  10.144  49.7220  0.00  0.00     0.000 C
ATOM      6  O5  NGY C   1      32.177  11.054  49.0470  0.00  0.00     0.000 O
ATOM      7   O  NGY C   1      33.880   7.673  50.8010  0.00  0.00     0.000 O
ATOM      9  HD  NGY C   1      34.589   7.760  51.2910  0.00  0.00     0.000 HD
ATOM      9   O  NGY C   1      31.214   8.473  51.4660  0.00  0.00     0.000 O
ATOM     11  HD  NGY C   1      31.922   8.560  51.9570  0.00  0.00     0.000 HD
ENDROOT
BRANCH 2 13
ATOM     11   N  NGY C   1      35.022   8.978  48.2720  0.00  0.00     0.000 N
ATOM     13  HD  NGY C   1      35.660   8.830  48.8390  0.00  0.00     0.000 HD
ATOM     13   C  NGY C   1      36.233   8.615  48.6930  0.00  0.00     0.000 C
ATOM     14   O  NGY C   1      36.585   8.804  49.8590  0.00  0.00     0.000 OA
ATOM     15   C  NGY C   1      37.123   7.949  47.6890  0.00  0.00     0.000 C
ENDBRANCH 2 13
BRANCH 5 16
ATOM     16   C  NGY C   1      30.211  11.006  50.3310  0.00  0.00     0.000 C
ATOM     17   O  NGY C   1      26.894   9.791  51.3170  0.00  0.00     0.000 OA
ATOM     18   O  NGY C   1      28.989  10.265  50.3850  0.00  0.00     0.000 O
ATOM     19   S  NGY C   1      27.903  10.817  51.3770  0.00  0.00     0.000 S
ATOM     20   O  NGY C   1      27.440  12.072  50.8450  0.00  0.00     0.000 OA
ATOM     21   O  NGY C   1      28.598  10.946  52.6470  0.00  0.00     0.000 OA
ENDBRANCH 5 16
BRANCH 1 22
ATOM     22  O4  BDP C   2      32.704   9.698  47.2680  0.00  0.00     0.000 O
BRANCH 22 26
ATOM     23  C1  BDP C   2      32.054   9.495  43.2060  0.00  0.00     0.000 C
ATOM     24  C2  BDP C   2      33.267  10.288  43.6310  0.00  0.00     0.000 C
ATOM     25  C3  BDP C   2      33.593   9.981  45.0690  0.00  0.00     0.000 C
ATOM     26  C4  BDP C   2      32.363  10.193  45.9460  0.00  0.00     0.000 C
ATOM     27  C5  BDP C   2      31.161   9.493  45.3270  0.00  0.00     0.000 C
ATOM     28  O5  BDP C   2      30.894   9.930  43.9700  0.00  0.00     0.000 O
ATOM     29   O  BDP C   2      34.447   9.896  42.9280  0.00  0.00     0.000 O
ATOM     31  HD  BDP C   2      35.187   9.911  43.3760  0.00  0.00     0.000 HD
ATOM     31   O  BDP C   2      34.630  10.874  45.4570  0.00  0.00     0.000 O
ATOM     33  HD  BDP C   2      35.370  10.889  45.9060  0.00  0.00     0.000 HD
BRANCH 27 33
ATOM     33   C  BDP C   2      29.886   9.745  46.0970  0.00  0.00     0.000 C
ATOM     34   O  BDP C   2      29.069   8.828  46.3520  0.00  0.00     0.000 OA
ATOM     35   O  BDP C   2      29.636  10.887  46.4480  0.00  0.00     0.000 OA
ENDBRANCH 27 33
BRANCH 23 36
ATOM     36  O4  SGN C   3      31.735   9.582  41.8930  0.00  0.00     0.000 O
BRANCH 36 40
ATOM     37  C1  SGN C   3      30.599   7.370  38.5400  0.00  0.00     0.000 C
ATOM     38  C2  SGN C   3      29.489   8.054  39.3540  0.00  0.00     0.000 C
ATOM     39  C3  SGN C   3      30.074   9.143  40.2410  0.00  0.00     0.000 C
ATOM     40  C4  SGN C   3      31.143   8.533  41.1220  0.00  0.00     0.000 C
ATOM     41  C5  SGN C   3      32.176   7.865  40.2430  0.00  0.00     0.000 C
ATOM     42  O5  SGN C   3      31.552   6.843  39.4510  0.00  0.00     0.000 O
ATOM     43   O  SGN C   3      29.035   9.718  41.0240  0.00  0.00     0.000 O
ATOM     45  HD  SGN C   3      29.792   9.790  41.4390  0.00  0.00     0.000 HD
BRANCH 38 47
ATOM     45   N  SGN C   3      28.901   7.129  38.3680  0.00  0.00     0.000 N
ATOM     47  HD  SGN C   3      29.508   7.283  38.9660  0.00  0.00     0.000 HD
ATOM     47   S  SGN C   3      27.457   7.597  37.8980  0.00  0.00     0.000 S
ATOM     48   O  SGN C   3      26.519   7.534  38.9630  0.00  0.00     0.000 OA
ATOM     49   O  SGN C   3      27.623   8.864  37.2650  0.00  0.00     0.000 OA
ATOM     50   O  SGN C   3      27.107   6.555  36.9340  0.00  0.00     0.000 OA
ENDBRANCH 38 47
BRANCH 41 51
ATOM     51   C  SGN C   3      33.304   7.219  41.0020  0.00  0.00     0.000 C
ATOM     52   O  SGN C   3      33.138   4.154  43.1130  0.00  0.00     0.000 OA
ATOM     53   O  SGN C   3      34.924   4.964  41.7400  0.00  0.00     0.000 OA
ATOM     54   O  SGN C   3      34.205   6.211  43.6610  0.00  0.00     0.000 OA
ATOM     55   O  SGN C   3      32.822   6.051  41.6290  0.00  0.00     0.000 O
ATOM     56   S  SGN C   3      33.872   5.274  42.6300  0.00  0.00     0.000 S
ENDBRANCH 41 51
BRANCH 37 57
ATOM     57  O4  IDS C   4      31.249   8.183  37.6720  0.00  0.00     0.000 O
BRANCH 57 61
ATOM     58  C1  IDS C   4      32.216   8.942  34.0720  0.00  0.00     0.000 C
ATOM     59  C2  IDS C   4      30.904   8.275  34.3380  0.00  0.00     0.000 C
ATOM     60  C3  IDS C   4      30.991   7.217  35.4410  0.00  0.00     0.000 C
ATOM     61  C4  IDS C   4      31.936   7.515  36.5970  0.00  0.00     0.000 C
ATOM     62  C5  IDS C   4      33.137   8.339  36.1180  0.00  0.00     0.000 C
ATOM     63  O5  IDS C   4      32.736   9.427  35.2980  0.00  0.00     0.000 O
ATOM     64   O  IDS C   4      31.435   6.039  34.7950  0.00  0.00     0.000 O
ATOM     66  HD  IDS C   4      32.230   5.827  35.0630  0.00  0.00     0.000 HD
BRANCH 59 66
ATOM     66   O  IDS C   4      29.879   9.245  34.7670  0.00  0.00     0.000 O
ATOM     67   S  IDS C   4      28.626   9.428  33.8040  0.00  0.00     0.000 S
ATOM     68   O  IDS C   4      27.982   8.137  33.8540  0.00  0.00     0.000 OA
ATOM     69   O  IDS C   4      27.863  10.514  34.3870  0.00  0.00     0.000 OA
ATOM     70   O  IDS C   4      29.143   9.719  32.4760  0.00  0.00     0.000 OA
ENDBRANCH 59 66
BRANCH 62 71
ATOM     71   C  IDS C   4      33.927   8.955  37.2570  0.00  0.00     0.000 C
ATOM     72   O  IDS C   4      34.685   8.268  37.9150  0.00  0.00     0.000 OA
ATOM     73   O  IDS C   4      33.702  10.143  37.5620  0.00  0.00     0.000 OA
ENDBRANCH 62 71
BRANCH 58 74
ATOM     74  O4  SGN C   5      33.040   8.271  33.2180  0.00  0.00     0.000 O
BRANCH 74 78
ATOM     75  C1  SGN C   5      35.965   8.636  30.2590  0.00  0.00     0.000 C
ATOM     76  C2  SGN C   5      36.480   8.487  31.7030  0.00  0.00     0.000 C
ATOM     77  C3  SGN C   5      35.353   8.023  32.6360  0.00  0.00     0.000 C
ATOM     78  C4  SGN C   5      34.089   8.849  32.4410  0.00  0.00     0.000 C
ATOM     79  C5  SGN C   5      33.716   8.866  30.9670  0.00  0.00     0.000 C
ATOM     80  O5  SGN C   5      34.801   9.449  30.1980  0.00  0.00     0.000 O
ATOM     81   O  SGN C   5      35.804   8.110  33.9840  0.00  0.00     0.000 O
ATOM     83  HD  SGN C   5      36.621   7.922  34.2020  0.00  0.00     0.000 HD
BRANCH 76 85
ATOM     83   N  SGN C   5      37.644   7.924  31.0080  0.00  0.00     0.000 N
ATOM     85  HD  SGN C   5      38.361   7.439  30.9810  0.00  0.00     0.000 HD
ATOM     85   S  SGN C   5      39.154   7.728  31.5340  0.00  0.00     0.000 S
ATOM     86   O  SGN C   5      39.949   7.098  30.5380  0.00  0.00     0.000 OA
ATOM     87   O  SGN C   5      39.597   8.988  32.0130  0.00  0.00     0.000 OA
ATOM     88   O  SGN C   5      38.813   6.745  32.6510  0.00  0.00     0.000 OA
ENDBRANCH 76 85
BRANCH 79 89
ATOM     89   C  SGN C   5      32.451   9.647  30.6730  0.00  0.00     0.000 C
ATOM     90   O  SGN C   5      32.725  11.068  30.7420  0.00  0.00     0.000 O
ATOM     91   S  SGN C   5      31.861  12.017  29.7770  0.00  0.00     0.000 S
ATOM     92   O  SGN C   5      31.995  11.476  28.4500  0.00  0.00     0.000 OA
ATOM     93   O  SGN C   5      30.502  11.979  30.2530  0.00  0.00     0.000 OA
ATOM     94   O  SGN C   5      32.483  13.303  29.9360  0.00  0.00     0.000 OA
ENDBRANCH 79 89
BRANCH 75 95
ATOM     95  O4  BDP C   6      35.663   7.371  29.8400  0.00  0.00     0.000 O
BRANCH 95 99
ATOM     96  C1  BDP C   6      36.466   6.277  25.7650  0.00  0.00     0.000 C
ATOM     97  C2  BDP C   6      36.487   7.732  26.1380  0.00  0.00     0.000 C
ATOM     98  C3  BDP C   6      36.572   7.997  27.6490  0.00  0.00     0.000 C
ATOM     99  C4  BDP C   6      35.553   7.166  28.4140  0.00  0.00     0.000 C
ATOM    100  C5  BDP C   6      35.683   5.698  27.9440  0.00  0.00     0.000 C
ATOM    101  O5  BDP C   6      35.395   5.769  26.5380  0.00  0.00     0.000 O
BRANCH 100 102
ATOM    102   C  BDP C   6      34.663   4.790  28.5820  0.00  0.00     0.000 C
ATOM    103   O  BDP C   6      33.506   4.686  28.1480  0.00  0.00     0.000 OA
ATOM    104   O  BDP C   6      35.034   4.134  29.5620  0.00  0.00     0.000 OA
ENDBRANCH 100 102
ENDBRANCH 95 99
ENDBRANCH 75 95
ENDBRANCH 74 78
ENDBRANCH 58 74
ENDBRANCH 57 61
ENDBRANCH 37 57
ENDBRANCH 36 40
ENDBRANCH 23 36
ENDBRANCH 22 26
ENDBRANCH 1 22
TORSDOF 20
ENDMDL
MODEL 23
REMARK VINA RESULT:      -7.3      6.491     10.780
ROOT
ATOM      1  C1  NGY C   1      14.952  13.145  48.0090  0.00  0.00     0.000 C
ATOM      2  C2  NGY C   1      15.447  11.859  48.6560  0.00  0.00     0.000 C
ATOM      3  C3  NGY C   1      14.918  11.747  50.0820  0.00  0.00     0.000 C
ATOM      4  C4  NGY C   1      15.305  13.006  50.8340  0.00  0.00     0.000 C
ATOM      5  C5  NGY C   1      14.679  14.207  50.1310  0.00  0.00     0.000 C
ATOM      6  O5  NGY C   1      15.229  14.287  48.7910  0.00  0.00     0.000 O
ATOM      7   O  NGY C   1      15.452  10.578  50.6880  0.00  0.00     0.000 O
ATOM      9  HD  NGY C   1      16.198  10.139  50.6770  0.00  0.00     0.000 HD
ATOM      9   O  NGY C   1      14.867  12.947  52.1840  0.00  0.00     0.000 O
ATOM     11  HD  NGY C   1      15.613  12.508  52.1730  0.00  0.00     0.000 HD
ENDROOT
BRANCH 2 13
ATOM     11   N  NGY C   1      15.186  10.892  47.6160  0.00  0.00     0.000 N
ATOM     13  HD  NGY C   1      15.781  10.300  47.8300  0.00  0.00     0.000 HD
ATOM     13   C  NGY C   1      15.882   9.760  47.5240  0.00  0.00     0.000 C
ATOM     14   O  NGY C   1      16.869   9.560  48.2340  0.00  0.00     0.000 OA
ATOM     15   C  NGY C   1      15.388   8.744  46.5400  0.00  0.00     0.000 C
ENDBRANCH 2 13
BRANCH 5 16
ATOM     16   C  NGY C   1      14.963  15.532  50.7640  0.00  0.00     0.000 C
ATOM     17   O  NGY C   1      12.675  17.235  53.0720  0.00  0.00     0.000 OA
ATOM     18   O  NGY C   1      13.779  15.991  51.4220  0.00  0.00     0.000 O
ATOM     19   S  NGY C   1      13.992  17.114  52.5000  0.00  0.00     0.000 S
ATOM     20   O  NGY C   1      14.396  18.305  51.7980  0.00  0.00     0.000 OA
ATOM     21   O  NGY C   1      15.018  16.585  53.3830  0.00  0.00     0.000 OA
ENDBRANCH 5 16
BRANCH 1 22
ATOM     22  O4  BDP C   2      13.638  13.012  47.7300  0.00  0.00     0.000 O
BRANCH 22 26
ATOM     23  C1  BDP C   2      10.407  13.696  45.2690  0.00  0.00     0.000 C
ATOM     24  C2  BDP C   2      11.658  13.207  44.5780  0.00  0.00     0.000 C
ATOM     25  C3  BDP C   2      12.618  12.656  45.6010  0.00  0.00     0.000 C
ATOM     26  C4  BDP C   2      12.865  13.683  46.7000  0.00  0.00     0.000 C
ATOM     27  C5  BDP C   2      11.536  14.235  47.2010  0.00  0.00     0.000 C
ATOM     28  O5  BDP C   2      10.735  14.815  46.1400  0.00  0.00     0.000 O
ATOM     29   O  BDP C   2      11.407  12.095  43.7190  0.00  0.00     0.000 O
ATOM     31  HD  BDP C   2      12.026  11.492  43.6750  0.00  0.00     0.000 HD
ATOM     31   O  BDP C   2      13.831  12.371  44.9170  0.00  0.00     0.000 O
ATOM     33  HD  BDP C   2      14.451  11.767  44.8720  0.00  0.00     0.000 HD
BRANCH 27 33
ATOM     33   C  BDP C   2      11.715  15.330  48.2250  0.00  0.00     0.000 C
ATOM     34   O  BDP C   2      11.222  15.252  49.3760  0.00  0.00     0.000 OA
ATOM     35   O  BDP C   2      12.330  16.333  47.9010  0.00  0.00     0.000 OA
ENDBRANCH 27 33
BRANCH 23 36
ATOM     36  O4  SGN C   3       9.410  14.096  44.4460  0.00  0.00     0.000 O
BRANCH 36 40
ATOM     37  C1  SGN C   3       5.291  14.772  44.5460  0.00  0.00     0.000 C
ATOM     38  C2  SGN C   3       6.200  15.952  44.1640  0.00  0.00     0.000 C
ATOM     39  C3  SGN C   3       7.577  15.452  43.7520  0.00  0.00     0.000 C
ATOM     40  C4  SGN C   3       8.152  14.621  44.8790  0.00  0.00     0.000 C
ATOM     41  C5  SGN C   3       7.186  13.503  45.2020  0.00  0.00     0.000 C
ATOM     42  O5  SGN C   3       5.920  14.054  45.5960  0.00  0.00     0.000 O
ATOM     43   O  SGN C   3       8.412  16.566  43.4620  0.00  0.00     0.000 O
ATOM     45  HD  SGN C   3       8.894  15.896  43.7260  0.00  0.00     0.000 HD
BRANCH 38 47
ATOM     45   N  SGN C   3       5.875  17.389  44.2130  0.00  0.00     0.000 N
ATOM     47  HD  SGN C   3       6.465  16.762  44.3030  0.00  0.00     0.000 HD
ATOM     47   S  SGN C   3       4.481  17.710  43.5190  0.00  0.00     0.000 S
ATOM     48   O  SGN C   3       4.529  17.462  42.1210  0.00  0.00     0.000 OA
ATOM     49   O  SGN C   3       3.484  17.008  44.2600  0.00  0.00     0.000 OA
ATOM     50   O  SGN C   3       4.379  19.155  43.7130  0.00  0.00     0.000 OA
ENDBRANCH 38 47
BRANCH 41 51
ATOM     51   C  SGN C   3       7.645  12.595  46.3100  0.00  0.00     0.000 C
ATOM     52   O  SGN C   3       6.386  12.499  49.8150  0.00  0.00     0.000 OA
ATOM     53   O  SGN C   3       7.175  10.713  48.4300  0.00  0.00     0.000 OA
ATOM     54   O  SGN C   3       8.661  12.471  49.1130  0.00  0.00     0.000 OA
ATOM     55   O  SGN C   3       6.873  12.854  47.4620  0.00  0.00     0.000 O
ATOM     56   S  SGN C   3       7.317  12.060  48.8330  0.00  0.00     0.000 S
ENDBRANCH 41 51
BRANCH 37 57
ATOM     57  O4  IDS C   4       5.034  13.906  43.5350  0.00  0.00     0.000 O
BRANCH 57 61
ATOM     58  C1  IDS C   4       2.687  12.129  41.1260  0.00  0.00     0.000 C
ATOM     59  C2  IDS C   4       2.523  13.601  41.3330  0.00  0.00     0.000 C
ATOM     60  C3  IDS C   4       2.707  14.017  42.7940  0.00  0.00     0.000 C
ATOM     61  C4  IDS C   4       3.752  13.252  43.5940  0.00  0.00     0.000 C
ATOM     62  C5  IDS C   4       3.854  11.802  43.1080  0.00  0.00     0.000 C
ATOM     63  O5  IDS C   4       3.922  11.724  41.6920  0.00  0.00     0.000 O
ATOM     64   O  IDS C   4       1.444  13.814  43.4010  0.00  0.00     0.000 O
ATOM     66  HD  IDS C   4       1.487  13.172  43.9820  0.00  0.00     0.000 HD
BRANCH 59 66
ATOM     66   O  IDS C   4       3.510  14.371  40.5520  0.00  0.00     0.000 O
ATOM     67   S  IDS C   4       2.937  15.255  39.3580  0.00  0.00     0.000 S
ATOM     68   O  IDS C   4       2.128  16.239  40.0370  0.00  0.00     0.000 OA
ATOM     69   O  IDS C   4       4.110  15.784  38.6900  0.00  0.00     0.000 OA
ATOM     70   O  IDS C   4       2.130  14.379  38.5230  0.00  0.00     0.000 OA
ENDBRANCH 59 66
BRANCH 62 71
ATOM     71   C  IDS C   4       5.093  11.090  43.6170  0.00  0.00     0.000 C
ATOM     72   O  IDS C   4       5.983  10.789  42.8460  0.00  0.00     0.000 OA
ATOM     73   O  IDS C   4       5.124  10.733  44.8110  0.00  0.00     0.000 OA
ENDBRANCH 62 71
BRANCH 58 74
ATOM     74  O4  SGN C   5       1.569  11.386  41.3670  0.00  0.00     0.000 O
BRANCH 74 78
ATOM     75  C1  SGN C   5      -0.659   8.021  40.2920  0.00  0.00     0.000 C
ATOM     76  C2  SGN C   5       0.494   7.779  41.2830  0.00  0.00     0.000 C
ATOM     77  C3  SGN C   5       1.005   9.108  41.8570  0.00  0.00     0.000 C
ATOM     78  C4  SGN C   5       1.250  10.135  40.7600  0.00  0.00     0.000 C
ATOM     79  C5  SGN C   5       0.003  10.262  39.8960  0.00  0.00     0.000 C
ATOM     80  O5  SGN C   5      -0.305   8.975  39.2980  0.00  0.00     0.000 O
ATOM     81   O  SGN C   5       2.201   8.865  42.5900  0.00  0.00     0.000 O
ATOM     83  HD  SGN C   5       2.306   8.147  43.0620  0.00  0.00     0.000 HD
BRANCH 76 85
ATOM     83   N  SGN C   5       0.912   6.494  41.8570  0.00  0.00     0.000 N
ATOM     85  HD  SGN C   5       0.819   5.641  41.9780  0.00  0.00     0.000 HD
ATOM     85   S  SGN C   5       0.015   5.319  42.4950  0.00  0.00     0.000 S
ATOM     86   O  SGN C   5       0.835   4.226  42.8890  0.00  0.00     0.000 OA
ATOM     87   O  SGN C   5      -0.798   5.910  43.4970  0.00  0.00     0.000 OA
ATOM     88   O  SGN C   5      -0.752   4.983  41.2190  0.00  0.00     0.000 OA
ENDBRANCH 76 85
BRANCH 79 89
ATOM     89   C  SGN C   5       0.140  11.283  38.7850  0.00  0.00     0.000 C
ATOM     90   O  SGN C   5      -1.160  11.554  38.2060  0.00  0.00     0.000 O
ATOM     91   S  SGN C   5      -1.398  13.033  37.6310  0.00  0.00     0.000 S
ATOM     92   O  SGN C   5      -1.047  13.942  38.6910  0.00  0.00     0.000 OA
ATOM     93   O  SGN C   5      -0.551  13.181  36.4760  0.00  0.00     0.000 OA
ATOM     94   O  SGN C   5      -2.800  13.041  37.3120  0.00  0.00     0.000 OA
ENDBRANCH 79 89
BRANCH 75 95
ATOM     95  O4  BDP C   6      -1.698   8.501  41.0390  0.00  0.00     0.000 O
BRANCH 95 99
ATOM     96  C1  BDP C   6      -5.797   7.582  40.1480  0.00  0.00     0.000 C
ATOM     97  C2  BDP C   6      -4.725   7.053  39.2370  0.00  0.00     0.000 C
ATOM     98  C3  BDP C   6      -3.309   7.101  39.8310  0.00  0.00     0.000 C
ATOM     99  C4  BDP C   6      -3.007   8.466  40.4320  0.00  0.00     0.000 C
ATOM    100  C5  BDP C   6      -4.181   8.847  41.3640  0.00  0.00     0.000 C
ATOM    101  O5  BDP C   6      -5.316   8.869  40.4850  0.00  0.00     0.000 O
BRANCH 100 102
ATOM    102   C  BDP C   6      -4.027  10.224  41.9590  0.00  0.00     0.000 C
ATOM    103   O  BDP C   6      -3.075  10.966  41.6740  0.00  0.00     0.000 OA
ATOM    104   O  BDP C   6      -4.907  10.595  42.7450  0.00  0.00     0.000 OA
ENDBRANCH 100 102
ENDBRANCH 95 99
ENDBRANCH 75 95
ENDBRANCH 74 78
ENDBRANCH 58 74
ENDBRANCH 57 61
ENDBRANCH 37 57
ENDBRANCH 36 40
ENDBRANCH 23 36
ENDBRANCH 22 26
ENDBRANCH 1 22
TORSDOF 20
ENDMDL
MODEL 24
REMARK VINA RESULT:      -7.2     14.549     19.435
ROOT
ATOM      1  C1  NGY C   1      31.322   8.409  39.2920  0.00  0.00     0.000 C
ATOM      2  C2  NGY C   1      30.596   7.407  38.4050  0.00  0.00     0.000 C
ATOM      3  C3  NGY C   1      31.255   6.036  38.5080  0.00  0.00     0.000 C
ATOM      4  C4  NGY C   1      32.730   6.191  38.1870  0.00  0.00     0.000 C
ATOM      5  C5  NGY C   1      33.352   7.152  39.1960  0.00  0.00     0.000 C
ATOM      6  O5  NGY C   1      32.712   8.446  39.0450  0.00  0.00     0.000 O
ATOM      7   O  NGY C   1      30.607   5.138  37.6180  0.00  0.00     0.000 O
ATOM      9  HD  NGY C   1      30.247   5.170  36.8310  0.00  0.00     0.000 HD
ATOM      9   O  NGY C   1      33.395   4.937  38.2330  0.00  0.00     0.000 O
ATOM     11  HD  NGY C   1      33.035   4.969  37.4460  0.00  0.00     0.000 HD
ENDROOT
BRANCH 2 13
ATOM     11   N  NGY C   1      29.465   7.806  37.6010  0.00  0.00     0.000 N
ATOM     13  HD  NGY C   1      28.839   7.397  38.0370  0.00  0.00     0.000 HD
ATOM     13   C  NGY C   1      28.228   7.404  37.8880  0.00  0.00     0.000 C
ATOM     14   O  NGY C   1      28.019   6.563  38.7630  0.00  0.00     0.000 OA
ATOM     15   C  NGY C   1      27.116   8.046  37.1150  0.00  0.00     0.000 C
ENDBRANCH 2 13
BRANCH 5 16
ATOM     16   C  NGY C   1      34.815   7.402  39.0160  0.00  0.00     0.000 C
ATOM     17   O  NGY C   1      37.402   6.170  41.3060  0.00  0.00     0.000 OA
ATOM     18   O  NGY C   1      35.504   6.971  40.1930  0.00  0.00     0.000 O
ATOM     19   S  NGY C   1      37.048   6.735  40.0290  0.00  0.00     0.000 S
ATOM     20   O  NGY C   1      37.654   8.022  39.8120  0.00  0.00     0.000 OA
ATOM     21   O  NGY C   1      37.163   5.839  38.8890  0.00  0.00     0.000 OA
ENDBRANCH 5 16
BRANCH 1 22
ATOM     22  O4  BDP C   2      31.032   8.138  40.5820  0.00  0.00     0.000 O
BRANCH 22 26
ATOM     23  C1  BDP C   2      30.235   9.465  44.3990  0.00  0.00     0.000 C
ATOM     24  C2  BDP C   2      29.642  10.295  43.2850  0.00  0.00     0.000 C
ATOM     25  C3  BDP C   2      29.690   9.519  41.9950  0.00  0.00     0.000 C
ATOM     26  C4  BDP C   2      31.109   9.027  41.7280  0.00  0.00     0.000 C
ATOM     27  C5  BDP C   2      31.669   8.360  42.9770  0.00  0.00     0.000 C
ATOM     28  O5  BDP C   2      31.647   9.233  44.1360  0.00  0.00     0.000 O
ATOM     29   O  BDP C   2      28.249  10.546  43.4750  0.00  0.00     0.000 O
ATOM     31  HD  BDP C   2      27.758  10.565  42.7620  0.00  0.00     0.000 HD
ATOM     31   O  BDP C   2      29.278  10.407  40.9630  0.00  0.00     0.000 O
ATOM     33  HD  BDP C   2      28.787  10.425  40.2500  0.00  0.00     0.000 HD
BRANCH 27 33
ATOM     33   C  BDP C   2      33.108   7.936  42.8100  0.00  0.00     0.000 C
ATOM     34   O  BDP C   2      33.457   6.732  42.8570  0.00  0.00     0.000 OA
ATOM     35   O  BDP C   2      33.954   8.801  42.6580  0.00  0.00     0.000 OA
ENDBRANCH 27 33
BRANCH 23 36
ATOM     36  O4  SGN C   3      30.132  10.000  45.6380  0.00  0.00     0.000 O
BRANCH 36 40
ATOM     37  C1  SGN C   3      29.192   9.264  49.6380  0.00  0.00     0.000 C
ATOM     38  C2  SGN C   3      30.577   8.823  49.1370  0.00  0.00     0.000 C
ATOM     39  C3  SGN C   3      30.924   9.534  47.8370  0.00  0.00     0.000 C
ATOM     40  C4  SGN C   3      29.831   9.263  46.8260  0.00  0.00     0.000 C
ATOM     41  C5  SGN C   3      28.507   9.704  47.4090  0.00  0.00     0.000 C
ATOM     42  O5  SGN C   3      28.245   8.980  48.6210  0.00  0.00     0.000 O
ATOM     43   O  SGN C   3      32.181   9.064  47.3670  0.00  0.00     0.000 O
ATOM     45  HD  SGN C   3      31.698   9.331  46.7000  0.00  0.00     0.000 HD
BRANCH 38 47
ATOM     45   N  SGN C   3      30.470   7.888  50.2710  0.00  0.00     0.000 N
ATOM     47  HD  SGN C   3      30.215   8.116  49.4760  0.00  0.00     0.000 HD
ATOM     47   S  SGN C   3      31.666   8.062  51.3040  0.00  0.00     0.000 S
ATOM     48   O  SGN C   3      32.908   7.689  50.7250  0.00  0.00     0.000 OA
ATOM     49   O  SGN C   3      31.572   9.389  51.8180  0.00  0.00     0.000 OA
ATOM     50   O  SGN C   3      31.330   7.065  52.3190  0.00  0.00     0.000 OA
ENDBRANCH 38 47
BRANCH 41 51
ATOM     51   C  SGN C   3      27.330   9.493  46.4950  0.00  0.00     0.000 C
ATOM     52   O  SGN C   3      24.410   7.249  47.0600  0.00  0.00     0.000 OA
ATOM     53   O  SGN C   3      24.513   9.366  45.9460  0.00  0.00     0.000 OA
ATOM     54   O  SGN C   3      25.681   7.465  45.0570  0.00  0.00     0.000 OA
ATOM     55   O  SGN C   3      26.429   8.601  47.1120  0.00  0.00     0.000 O
ATOM     56   S  SGN C   3      25.138   8.126  46.2070  0.00  0.00     0.000 S
ENDBRANCH 41 51
BRANCH 37 57
ATOM     57  O4  IDS C   4      29.096  10.579  49.9510  0.00  0.00     0.000 O
BRANCH 57 61
ATOM     58  C1  IDS C   4      28.402  13.315  52.5010  0.00  0.00     0.000 C
ATOM     59  C2  IDS C   4      29.115  12.079  52.9500  0.00  0.00     0.000 C
ATOM     60  C3  IDS C   4      28.544  10.806  52.3220  0.00  0.00     0.000 C
ATOM     61  C4  IDS C   4      28.053  10.917  50.8850  0.00  0.00     0.000 C
ATOM     62  C5  IDS C   4      27.500  12.319  50.6070  0.00  0.00     0.000 C
ATOM     63  O5  IDS C   4      28.372  13.333  51.0840  0.00  0.00     0.000 O
ATOM     64   O  IDS C   4      27.448  10.445  53.1410  0.00  0.00     0.000 O
ATOM     66  HD  IDS C   4      26.703  10.531  52.7070  0.00  0.00     0.000 HD
BRANCH 59 66
ATOM     66   O  IDS C   4      30.546  12.117  52.5920  0.00  0.00     0.000 O
ATOM     67   S  IDS C   4      31.571  12.365  53.7830  0.00  0.00     0.000 S
ATOM     68   O  IDS C   4      31.409  11.189  54.6050  0.00  0.00     0.000 OA
ATOM     69   O  IDS C   4      32.865  12.489  53.1430  0.00  0.00     0.000 OA
ATOM     70   O  IDS C   4      31.140  13.568  54.4780  0.00  0.00     0.000 OA
ENDBRANCH 59 66
BRANCH 62 71
ATOM     71   C  IDS C   4      27.315  12.603  49.1280  0.00  0.00     0.000 C
ATOM     72   O  IDS C   4      26.390  12.099  48.5210  0.00  0.00     0.000 OA
ATOM     73   O  IDS C   4      28.186  13.272  48.5380  0.00  0.00     0.000 OA
ENDBRANCH 62 71
BRANCH 58 74
ATOM     74  O4  SGN C   5      27.266  13.609  53.1960  0.00  0.00     0.000 O
BRANCH 74 78
ATOM     75  C1  SGN C   5      24.739  16.629  54.5860  0.00  0.00     0.000 C
ATOM     76  C2  SGN C   5      24.470  16.129  53.1540  0.00  0.00     0.000 C
ATOM     77  C3  SGN C   5      25.217  14.815  52.8890  0.00  0.00     0.000 C
ATOM     78  C4  SGN C   5      26.674  14.901  53.3220  0.00  0.00     0.000 C
ATOM     79  C5  SGN C   5      26.748  15.385  54.7630  0.00  0.00     0.000 C
ATOM     80  O5  SGN C   5      26.131  16.696  54.8660  0.00  0.00     0.000 O
ATOM     81   O  SGN C   5      25.126  14.503  51.5030  0.00  0.00     0.000 O
ATOM     83  HD  SGN C   5      24.408  14.666  51.0470  0.00  0.00     0.000 HD
BRANCH 76 85
ATOM     83   N  SGN C   5      23.031  16.277  53.4060  0.00  0.00     0.000 N
ATOM     85  HD  SGN C   5      22.203  16.259  53.1540  0.00  0.00     0.000 HD
ATOM     85   S  SGN C   5      21.894  16.945  52.4820  0.00  0.00     0.000 S
ATOM     86   O  SGN C   5      20.619  16.829  53.1000  0.00  0.00     0.000 OA
ATOM     87   O  SGN C   5      22.337  18.253  52.1540  0.00  0.00     0.000 OA
ATOM     88   O  SGN C   5      22.022  15.959  51.3230  0.00  0.00     0.000 OA
ENDBRANCH 76 85
BRANCH 79 89
ATOM     89   C  SGN C   5      28.163  15.482  55.2960  0.00  0.00     0.000 C
ATOM     90   O  SGN C   5      28.711  16.788  54.9960  0.00  0.00     0.000 O
ATOM     91   S  SGN C   5      29.772  17.383  56.0440  0.00  0.00     0.000 S
ATOM     92   O  SGN C   5      29.146  17.313  57.3390  0.00  0.00     0.000 OA
ATOM     93   O  SGN C   5      30.955  16.566  55.9590  0.00  0.00     0.000 OA
ATOM     94   O  SGN C   5      29.977  18.728  55.5790  0.00  0.00     0.000 OA
ENDBRANCH 79 89
BRANCH 75 95
ATOM     95  O4  BDP C   6      24.147  15.718  55.4150  0.00  0.00     0.000 O
BRANCH 95 99
ATOM     96  C1  BDP C   6      22.220  16.589  59.1530  0.00  0.00     0.000 C
ATOM     97  C2  BDP C   6      22.593  17.731  58.2510  0.00  0.00     0.000 C
ATOM     98  C3  BDP C   6      22.914  17.319  56.8060  0.00  0.00     0.000 C
ATOM     99  C4  BDP C   6      23.882  16.145  56.7690  0.00  0.00     0.000 C
ATOM    100  C5  BDP C   6      23.341  15.048  57.7150  0.00  0.00     0.000 C
ATOM    101  O5  BDP C   6      23.308  15.697  58.9970  0.00  0.00     0.000 O
BRANCH 100 102
ATOM    102   C  BDP C   6      24.265  13.862  57.8190  0.00  0.00     0.000 C
ATOM    103   O  BDP C   6      25.480  13.985  58.0290  0.00  0.00     0.000 OA
ATOM    104   O  BDP C   6      23.753  12.743  57.6960  0.00  0.00     0.000 OA
ENDBRANCH 100 102
ENDBRANCH 95 99
ENDBRANCH 75 95
ENDBRANCH 74 78
ENDBRANCH 58 74
ENDBRANCH 57 61
ENDBRANCH 37 57
ENDBRANCH 36 40
ENDBRANCH 23 36
ENDBRANCH 22 26
ENDBRANCH 1 22
TORSDOF 20
ENDMDL
MODEL 25
REMARK VINA RESULT:      -7.2      6.372      9.969
ROOT
ATOM      1  C1  NGY C   1      15.314  11.326  47.5700  0.00  0.00     0.000 C
ATOM      2  C2  NGY C   1      16.002  11.725  48.8680  0.00  0.00     0.000 C
ATOM      3  C3  NGY C   1      16.899  12.937  48.6390  0.00  0.00     0.000 C
ATOM      4  C4  NGY C   1      17.855  12.614  47.5070  0.00  0.00     0.000 C
ATOM      5  C5  NGY C   1      17.043  12.314  46.2510  0.00  0.00     0.000 C
ATOM      6  O5  NGY C   1      16.225  11.143  46.5070  0.00  0.00     0.000 O
ATOM      7   O  NGY C   1      17.584  13.245  49.8450  0.00  0.00     0.000 O
ATOM      9  HD  NGY C   1      17.936  12.811  50.5070  0.00  0.00     0.000 HD
ATOM      9   O  NGY C   1      18.743  13.696  47.2670  0.00  0.00     0.000 O
ATOM     11  HD  NGY C   1      19.095  13.262  47.9290  0.00  0.00     0.000 HD
ENDROOT
BRANCH 2 13
ATOM     11   N  NGY C   1      14.918  11.804  49.8190  0.00  0.00     0.000 N
ATOM     13  HD  NGY C   1      15.343  11.550  50.5290  0.00  0.00     0.000 HD
ATOM     13   C  NGY C   1      15.091  11.493  51.1030  0.00  0.00     0.000 C
ATOM     14   O  NGY C   1      16.144  10.990  51.5000  0.00  0.00     0.000 OA
ATOM     15   C  NGY C   1      13.959  11.811  52.0310  0.00  0.00     0.000 C
ENDBRANCH 2 13
BRANCH 5 16
ATOM     16   C  NGY C   1      17.850  11.984  45.0360  0.00  0.00     0.000 C
ATOM     17   O  NGY C   1      17.781  13.944  41.9350  0.00  0.00     0.000 OA
ATOM     18   O  NGY C   1      17.418  12.818  43.9570  0.00  0.00     0.000 O
ATOM     19   S  NGY C   1      18.418  12.942  42.7520  0.00  0.00     0.000 S
ATOM     20   O  NGY C   1      18.466  11.657  42.1050  0.00  0.00     0.000 OA
ATOM     21   O  NGY C   1      19.679  13.333  43.3610  0.00  0.00     0.000 OA
ENDBRANCH 5 16
BRANCH 1 22
ATOM     22  O4  BDP C   2      14.360  12.237  47.2860  0.00  0.00     0.000 O
BRANCH 22 26
ATOM     23  C1  BDP C   2      10.697  12.016  45.4140  0.00  0.00     0.000 C
ATOM     24  C2  BDP C   2      11.636  10.864  45.1440  0.00  0.00     0.000 C
ATOM     25  C3  BDP C   2      12.757  10.878  46.1500  0.00  0.00     0.000 C
ATOM     26  C4  BDP C   2      13.430  12.247  46.1710  0.00  0.00     0.000 C
ATOM     27  C5  BDP C   2      12.374  13.340  46.2710  0.00  0.00     0.000 C
ATOM     28  O5  BDP C   2      11.396  13.275  45.2010  0.00  0.00     0.000 O
ATOM     29   O  BDP C   2      11.014   9.595  45.3520  0.00  0.00     0.000 O
ATOM     31  HD  BDP C   2      11.513   8.969  45.6820  0.00  0.00     0.000 HD
ATOM     31   O  BDP C   2      13.688   9.883  45.7450  0.00  0.00     0.000 O
ATOM     33  HD  BDP C   2      14.187   9.256  46.0750  0.00  0.00     0.000 HD
BRANCH 27 33
ATOM     33   C  BDP C   2      12.969  14.726  46.1980  0.00  0.00     0.000 C
ATOM     34   O  BDP C   2      13.250  15.273  45.1050  0.00  0.00     0.000 OA
ATOM     35   O  BDP C   2      13.212  15.309  47.2420  0.00  0.00     0.000 OA
ENDBRANCH 27 33
BRANCH 23 36
ATOM     36  O4  SGN C   3       9.575  12.038  44.6590  0.00  0.00     0.000 O
BRANCH 36 40
ATOM     37  C1  SGN C   3       5.758  13.672  44.2220  0.00  0.00     0.000 C
ATOM     38  C2  SGN C   3       6.952  14.506  43.7300  0.00  0.00     0.000 C
ATOM     39  C3  SGN C   3       8.180  13.624  43.5540  0.00  0.00     0.000 C
ATOM     40  C4  SGN C   3       8.467  12.920  44.8620  0.00  0.00     0.000 C
ATOM     41  C5  SGN C   3       7.236  12.147  45.2810  0.00  0.00     0.000 C
ATOM     42  O5  SGN C   3       6.129  13.047  45.4410  0.00  0.00     0.000 O
ATOM     43   O  SGN C   3       9.282  14.430  43.1560  0.00  0.00     0.000 O
ATOM     45  HD  SGN C   3       9.566  13.731  43.5810  0.00  0.00     0.000 HD
BRANCH 38 47
ATOM     45   N  SGN C   3       6.877  15.975  43.6420  0.00  0.00     0.000 N
ATOM     47  HD  SGN C   3       7.312  15.271  43.8990  0.00  0.00     0.000 HD
ATOM     47   S  SGN C   3       5.765  16.456  42.6140  0.00  0.00     0.000 S
ATOM     48   O  SGN C   3       6.100  16.094  41.2820  0.00  0.00     0.000 OA
ATOM     49   O  SGN C   3       4.516  15.982  43.1120  0.00  0.00     0.000 OA
ATOM     50   O  SGN C   3       5.871  17.910  42.7210  0.00  0.00     0.000 OA
ENDBRANCH 38 47
BRANCH 41 51
ATOM     51   C  SGN C   3       7.394  11.393  46.5730  0.00  0.00     0.000 C
ATOM     52   O  SGN C   3       7.753  12.828  49.9930  0.00  0.00     0.000 OA
ATOM     53   O  SGN C   3       6.674  10.808  49.2930  0.00  0.00     0.000 OA
ATOM     54   O  SGN C   3       9.047  11.072  49.0360  0.00  0.00     0.000 OA
ATOM     55   O  SGN C   3       7.446  12.317  47.6370  0.00  0.00     0.000 O
ATOM     56   S  SGN C   3       7.760  11.697  49.1290  0.00  0.00     0.000 S
ENDBRANCH 41 51
BRANCH 37 57
ATOM     57  O4  IDS C   4       5.346  12.709  43.3610  0.00  0.00     0.000 O
BRANCH 57 61
ATOM     58  C1  IDS C   4       2.501  11.490  41.1510  0.00  0.00     0.000 C
ATOM     59  C2  IDS C   4       2.608  12.953  41.4410  0.00  0.00     0.000 C
ATOM     60  C3  IDS C   4       3.007  13.241  42.8910  0.00  0.00     0.000 C
ATOM     61  C4  IDS C   4       3.986  12.268  43.5330  0.00  0.00     0.000 C
ATOM     62  C5  IDS C   4       3.793  10.854  42.9730  0.00  0.00     0.000 C
ATOM     63  O5  IDS C   4       3.702  10.856  41.5560  0.00  0.00     0.000 O
ATOM     64   O  IDS C   4       1.797  13.206  43.6240  0.00  0.00     0.000 O
ATOM     66  HD  IDS C   4       1.791  12.531  44.1670  0.00  0.00     0.000 HD
BRANCH 59 66
ATOM     66   O  IDS C   4       3.624  13.602  40.5910  0.00  0.00     0.000 O
ATOM     67   S  IDS C   4       3.091  14.661  39.5290  0.00  0.00     0.000 S
ATOM     68   O  IDS C   4       2.550  15.712  40.3560  0.00  0.00     0.000 OA
ATOM     69   O  IDS C   4       4.258  15.032  38.7540  0.00  0.00     0.000 OA
ATOM     70   O  IDS C   4       2.053  14.003  38.7500  0.00  0.00     0.000 OA
ENDBRANCH 59 66
BRANCH 62 71
ATOM     71   C  IDS C   4       4.941   9.920  43.3080  0.00  0.00     0.000 C
ATOM     72   O  IDS C   4       5.096   9.528  44.4480  0.00  0.00     0.000 OA
ATOM     73   O  IDS C   4       5.771   9.656  42.4140  0.00  0.00     0.000 OA
ENDBRANCH 62 71
BRANCH 58 74
ATOM     74  O4  SGN C   5       1.305  10.924  41.4810  0.00  0.00     0.000 O
BRANCH 74 78
ATOM     75  C1  SGN C   5      -1.738   8.320  40.2970  0.00  0.00     0.000 C
ATOM     76  C2  SGN C   5      -0.541   7.675  41.0200  0.00  0.00     0.000 C
ATOM     77  C3  SGN C   5       0.325   8.746  41.6970  0.00  0.00     0.000 C
ATOM     78  C4  SGN C   5       0.636   9.897  40.7490  0.00  0.00     0.000 C
ATOM     79  C5  SGN C   5      -0.659  10.424  40.1490  0.00  0.00     0.000 C
ATOM     80  O5  SGN C   5      -1.324   9.359  39.4190  0.00  0.00     0.000 O
ATOM     81   O  SGN C   5       1.528   8.142  42.1610  0.00  0.00     0.000 O
ATOM     83  HD  SGN C   5       1.537   7.340  42.4880  0.00  0.00     0.000 HD
BRANCH 76 85
ATOM     83   N  SGN C   5      -1.426   6.773  41.7670  0.00  0.00     0.000 N
ATOM     85  HD  SGN C   5      -1.570   6.084  42.2710  0.00  0.00     0.000 HD
ATOM     85   S  SGN C   5      -1.379   5.168  41.8940  0.00  0.00     0.000 S
ATOM     86   O  SGN C   5      -2.407   4.708  42.7610  0.00  0.00     0.000 OA
ATOM     87   O  SGN C   5      -1.363   4.644  40.5750  0.00  0.00     0.000 OA
ATOM     88   O  SGN C   5      -0.020   5.096  42.5860  0.00  0.00     0.000 OA
ENDBRANCH 76 85
BRANCH 79 89
ATOM     89   C  SGN C   5      -0.455  11.593  39.2060  0.00  0.00     0.000 C
ATOM     90   O  SGN C   5      -1.149  11.342  37.9590  0.00  0.00     0.000 O
ATOM     91   S  SGN C   5      -1.719  12.625  37.1810  0.00  0.00     0.000 S
ATOM     92   O  SGN C   5      -2.510  13.360  38.1340  0.00  0.00     0.000 OA
ATOM     93   O  SGN C   5      -0.583  13.377  36.7140  0.00  0.00     0.000 OA
ATOM     94   O  SGN C   5      -2.495  12.048  36.1170  0.00  0.00     0.000 OA
ENDBRANCH 79 89
BRANCH 75 95
ATOM     95  O4  BDP C   6      -2.531   8.839  41.2810  0.00  0.00     0.000 O
BRANCH 95 99
ATOM     96  C1  BDP C   6      -6.800   8.442  41.0230  0.00  0.00     0.000 C
ATOM     97  C2  BDP C   6      -5.970   8.101  39.8180  0.00  0.00     0.000 C
ATOM     98  C3  BDP C   6      -4.475   7.904  40.1130  0.00  0.00     0.000 C
ATOM     99  C4  BDP C   6      -3.923   9.045  40.9550  0.00  0.00     0.000 C
ATOM    100  C5  BDP C   6      -4.865   9.245  42.1660  0.00  0.00     0.000 C
ATOM    101  O5  BDP C   6      -6.127   9.565  41.5600  0.00  0.00     0.000 O
BRANCH 100 102
ATOM    102   C  BDP C   6      -4.457  10.408  43.0340  0.00  0.00     0.000 C
ATOM    103   O  BDP C   6      -4.665  11.585  42.7050  0.00  0.00     0.000 OA
ATOM    104   O  BDP C   6      -3.909  10.138  44.1090  0.00  0.00     0.000 OA
ENDBRANCH 100 102
ENDBRANCH 95 99
ENDBRANCH 75 95
ENDBRANCH 74 78
ENDBRANCH 58 74
ENDBRANCH 57 61
ENDBRANCH 37 57
ENDBRANCH 36 40
ENDBRANCH 23 36
ENDBRANCH 22 26
ENDBRANCH 1 22
TORSDOF 20
ENDMDL
MODEL 26
REMARK VINA RESULT:      -7.1      3.571     15.738
ROOT
ATOM      1  C1  NGY C   1       1.353  11.127  52.8830  0.00  0.00     0.000 C
ATOM      2  C2  NGY C   1       1.072   9.633  52.7950  0.00  0.00     0.000 C
ATOM      3  C3  NGY C   1      -0.369   9.391  52.3580  0.00  0.00     0.000 C
ATOM      4  C4  NGY C   1      -1.286  10.138  53.3080  0.00  0.00     0.000 C
ATOM      5  C5  NGY C   1      -0.956  11.626  53.2390  0.00  0.00     0.000 C
ATOM      6  O5  NGY C   1       0.413  11.809  53.6850  0.00  0.00     0.000 O
ATOM      7   O  NGY C   1      -0.627   7.995  52.3530  0.00  0.00     0.000 O
ATOM      9  HD  NGY C   1      -0.404   7.304  52.8250  0.00  0.00     0.000 HD
ATOM      9   O  NGY C   1      -2.649   9.924  52.9720  0.00  0.00     0.000 O
ATOM     11  HD  NGY C   1      -2.425   9.233  53.4440  0.00  0.00     0.000 HD
ENDROOT
BRANCH 2 13
ATOM     11   N  NGY C   1       2.155   8.729  53.1030  0.00  0.00     0.000 N
ATOM     13  HD  NGY C   1       2.246   8.358  52.3250  0.00  0.00     0.000 HD
ATOM     13   C  NGY C   1       2.663   7.910  52.1830  0.00  0.00     0.000 C
ATOM     14   O  NGY C   1       2.137   7.790  51.0760  0.00  0.00     0.000 OA
ATOM     15   C  NGY C   1       3.913   7.172  52.5570  0.00  0.00     0.000 C
ENDBRANCH 2 13
BRANCH 5 16
ATOM     16   C  NGY C   1      -1.788  12.502  54.1200  0.00  0.00     0.000 C
ATOM     17   O  NGY C   1      -0.916  13.350  57.5810  0.00  0.00     0.000 OA
ATOM     18   O  NGY C   1      -1.270  12.441  55.4520  0.00  0.00     0.000 O
ATOM     19   S  NGY C   1      -1.711  13.608  56.4070  0.00  0.00     0.000 S
ATOM     20   O  NGY C   1      -3.120  13.448  56.6520  0.00  0.00     0.000 OA
ATOM     21   O  NGY C   1      -1.383  14.822  55.6770  0.00  0.00     0.000 OA
ENDBRANCH 5 16
BRANCH 1 22
ATOM     22  O4  BDP C   2       1.431  11.629  51.6330  0.00  0.00     0.000 O
BRANCH 22 26
ATOM     23  C1  BDP C   2       4.391  13.788  49.7500  0.00  0.00     0.000 C
ATOM     24  C2  BDP C   2       4.385  13.870  51.2580  0.00  0.00     0.000 C
ATOM     25  C3  BDP C   2       3.517  12.776  51.8220  0.00  0.00     0.000 C
ATOM     26  C4  BDP C   2       2.133  12.818  51.1830  0.00  0.00     0.000 C
ATOM     27  C5  BDP C   2       2.265  12.909  49.6690  0.00  0.00     0.000 C
ATOM     28  O5  BDP C   2       3.052  14.050  49.2420  0.00  0.00     0.000 O
ATOM     29   O  BDP C   2       5.669  13.605  51.8230  0.00  0.00     0.000 O
ATOM     31  HD  BDP C   2       5.681  13.179  52.5760  0.00  0.00     0.000 HD
ATOM     31   O  BDP C   2       3.417  13.007  53.2210  0.00  0.00     0.000 O
ATOM     33  HD  BDP C   2       3.428  12.580  53.9750  0.00  0.00     0.000 HD
BRANCH 27 33
ATOM     33   C  BDP C   2       0.928  13.052  48.9800  0.00  0.00     0.000 C
ATOM     34   O  BDP C   2       0.246  14.101  49.0640  0.00  0.00     0.000 OA
ATOM     35   O  BDP C   2       0.493  12.100  48.3540  0.00  0.00     0.000 OA
ENDBRANCH 27 33
BRANCH 23 36
ATOM     36  O4  SGN C   3       5.239  14.637  49.1260  0.00  0.00     0.000 O
BRANCH 36 40
ATOM     37  C1  SGN C   3       7.604  14.441  45.6920  0.00  0.00     0.000 C
ATOM     38  C2  SGN C   3       6.825  15.741  45.9490  0.00  0.00     0.000 C
ATOM     39  C3  SGN C   3       6.386  15.820  47.4040  0.00  0.00     0.000 C
ATOM     40  C4  SGN C   3       5.577  14.586  47.7380  0.00  0.00     0.000 C
ATOM     41  C5  SGN C   3       6.409  13.359  47.4340  0.00  0.00     0.000 C
ATOM     42  O5  SGN C   3       6.769  13.350  46.0430  0.00  0.00     0.000 O
ATOM     43   O  SGN C   3       5.618  17.001  47.5990  0.00  0.00     0.000 O
ATOM     45  HD  SGN C   3       5.380  16.396  48.1710  0.00  0.00     0.000 HD
BRANCH 38 47
ATOM     45   N  SGN C   3       6.447  16.592  44.8060  0.00  0.00     0.000 N
ATOM     47  HD  SGN C   3       6.207  16.168  45.5220  0.00  0.00     0.000 HD
ATOM     47   S  SGN C   3       7.715  17.227  44.0890  0.00  0.00     0.000 S
ATOM     48   O  SGN C   3       8.383  18.148  44.9390  0.00  0.00     0.000 OA
ATOM     49   O  SGN C   3       8.490  16.139  43.5900  0.00  0.00     0.000 OA
ATOM     50   O  SGN C   3       7.095  17.988  43.0060  0.00  0.00     0.000 OA
ENDBRANCH 38 47
BRANCH 41 51
ATOM     51   C  SGN C   3       5.716  12.057  47.7280  0.00  0.00     0.000 C
ATOM     52   O  SGN C   3       6.120   8.827  45.9150  0.00  0.00     0.000 OA
ATOM     53   O  SGN C   3       5.704   9.229  48.2380  0.00  0.00     0.000 OA
ATOM     54   O  SGN C   3       4.074   9.844  46.5860  0.00  0.00     0.000 OA
ATOM     55   O  SGN C   3       6.193  11.075  46.8350  0.00  0.00     0.000 O
ATOM     56   S  SGN C   3       5.451   9.607  46.9000  0.00  0.00     0.000 S
ENDBRANCH 41 51
BRANCH 37 57
ATOM     57  O4  IDS C   4       8.763  14.329  46.3870  0.00  0.00     0.000 O
BRANCH 57 61
ATOM     58  C1  IDS C   4      12.564  14.258  46.2540  0.00  0.00     0.000 C
ATOM     59  C2  IDS C   4      11.824  15.053  45.2250  0.00  0.00     0.000 C
ATOM     60  C3  IDS C   4      10.559  14.347  44.7290  0.00  0.00     0.000 C
ATOM     61  C4  IDS C   4       9.785  13.534  45.7580  0.00  0.00     0.000 C
ATOM     62  C5  IDS C   4      10.734  12.935  46.8020  0.00  0.00     0.000 C
ATOM     63  O5  IDS C   4      11.661  13.897  47.2850  0.00  0.00     0.000 O
ATOM     64   O  IDS C   4      10.997  13.472  43.7070  0.00  0.00     0.000 O
ATOM     66  HD  IDS C   4      10.896  12.647  43.9500  0.00  0.00     0.000 HD
BRANCH 59 66
ATOM     66   O  IDS C   4      11.393  16.360  45.7560  0.00  0.00     0.000 O
ATOM     67   S  IDS C   4      12.054  17.648  45.0960  0.00  0.00     0.000 S
ATOM     68   O  IDS C   4      11.572  17.605  43.7370  0.00  0.00     0.000 OA
ATOM     69   O  IDS C   4      11.565  18.763  45.8830  0.00  0.00     0.000 OA
ATOM     70   O  IDS C   4      13.497  17.472  45.1600  0.00  0.00     0.000 OA
ENDBRANCH 59 66
BRANCH 62 71
ATOM     71   C  IDS C   4      10.013  12.410  48.0290  0.00  0.00     0.000 C
ATOM     72   O  IDS C   4      10.164  12.956  49.1060  0.00  0.00     0.000 OA
ATOM     73   O  IDS C   4       9.355  11.356  47.9250  0.00  0.00     0.000 OA
ENDBRANCH 62 71
BRANCH 58 74
ATOM     74  O4  SGN C   5      13.413  13.316  45.7520  0.00  0.00     0.000 O
BRANCH 74 78
ATOM     75  C1  SGN C   5      17.476  12.666  46.4670  0.00  0.00     0.000 C
ATOM     76  C2  SGN C   5      16.669  11.443  45.9910  0.00  0.00     0.000 C
ATOM     77  C3  SGN C   5      15.303  11.875  45.4420  0.00  0.00     0.000 C
ATOM     78  C4  SGN C   5      14.596  12.834  46.3890  0.00  0.00     0.000 C
ATOM     79  C5  SGN C   5      15.528  13.988  46.7310  0.00  0.00     0.000 C
ATOM     80  O5  SGN C   5      16.726  13.471  47.3670  0.00  0.00     0.000 O
ATOM     81   O  SGN C   5      14.507  10.715  45.2190  0.00  0.00     0.000 O
ATOM     83  HD  SGN C   5      14.853   9.976  44.9270  0.00  0.00     0.000 HD
BRANCH 76 85
ATOM     83   N  SGN C   5      17.958  10.740  46.0270  0.00  0.00     0.000 N
ATOM     85  HD  SGN C   5      18.650  10.387  45.6440  0.00  0.00     0.000 HD
ATOM     85   S  SGN C   5      18.511   9.569  45.0690  0.00  0.00     0.000 S
ATOM     86   O  SGN C   5      19.837   9.210  45.4380  0.00  0.00     0.000 OA
ATOM     87   O  SGN C   5      17.539   8.535  45.0680  0.00  0.00     0.000 OA
ATOM     88   O  SGN C   5      18.515  10.393  43.7840  0.00  0.00     0.000 OA
ENDBRANCH 76 85
BRANCH 79 89
ATOM     89   C  SGN C   5      14.903  15.015  47.6540  0.00  0.00     0.000 C
ATOM     90   O  SGN C   5      14.800  14.471  48.9930  0.00  0.00     0.000 O
ATOM     91   S  SGN C   5      14.920  15.515  50.2060  0.00  0.00     0.000 S
ATOM     92   O  SGN C   5      16.135  16.255  49.9860  0.00  0.00     0.000 OA
ATOM     93   O  SGN C   5      13.749  16.353  50.1620  0.00  0.00     0.000 OA
ATOM     94   O  SGN C   5      14.968  14.668  51.3670  0.00  0.00     0.000 OA
ENDBRANCH 79 89
BRANCH 75 95
ATOM     95  O4  BDP C   6      17.764  13.383  45.3400  0.00  0.00     0.000 O
BRANCH 95 99
ATOM     96  C1  BDP C   6      21.165  15.798  44.3170  0.00  0.00     0.000 C
ATOM     97  C2  BDP C   6      21.390  14.517  45.0700  0.00  0.00     0.000 C
ATOM     98  C3  BDP C   6      20.194  13.553  45.0530  0.00  0.00     0.000 C
ATOM     99  C4  BDP C   6      18.900  14.272  45.4070  0.00  0.00     0.000 C
ATOM    100  C5  BDP C   6      18.801  15.540  44.5270  0.00  0.00     0.000 C
ATOM    101  O5  BDP C   6      19.969  16.294  44.8900  0.00  0.00     0.000 O
BRANCH 100 102
ATOM    102   C  BDP C   6      17.590  16.378  44.8480  0.00  0.00     0.000 C
ATOM    103   O  BDP C   6      16.666  16.543  44.0380  0.00  0.00     0.000 OA
ATOM    104   O  BDP C   6      17.547  16.891  45.9720  0.00  0.00     0.000 OA
ENDBRANCH 100 102
ENDBRANCH 95 99
ENDBRANCH 75 95
ENDBRANCH 74 78
ENDBRANCH 58 74
ENDBRANCH 57 61
ENDBRANCH 37 57
ENDBRANCH 36 40
ENDBRANCH 23 36
ENDBRANCH 22 26
ENDBRANCH 1 22
TORSDOF 20
ENDMDL
MODEL 27
REMARK VINA RESULT:      -7.1      7.051     15.871
ROOT
ATOM      1  C1  NGY C   1      -0.250  16.293  36.8730  0.00  0.00     0.000 C
ATOM      2  C2  NGY C   1      -1.027  17.596  36.9910  0.00  0.00     0.000 C
ATOM      3  C3  NGY C   1      -2.365  17.354  37.6830  0.00  0.00     0.000 C
ATOM      4  C4  NGY C   1      -3.100  16.262  36.9300  0.00  0.00     0.000 C
ATOM      5  C5  NGY C   1      -2.253  14.993  36.9580  0.00  0.00     0.000 C
ATOM      6  O5  NGY C   1      -1.005  15.264  36.2690  0.00  0.00     0.000 O
ATOM      7   O  NGY C   1      -3.101  18.568  37.7160  0.00  0.00     0.000 O
ATOM      9  HD  NGY C   1      -3.221  19.254  37.2010  0.00  0.00     0.000 HD
ATOM      9   O  NGY C   1      -4.372  16.012  37.5100  0.00  0.00     0.000 O
ATOM     11  HD  NGY C   1      -4.493  16.698  36.9950  0.00  0.00     0.000 HD
ENDROOT
BRANCH 2 13
ATOM     11   N  NGY C   1      -0.344  18.765  36.4880  0.00  0.00     0.000 N
ATOM     13  HD  NGY C   1      -0.328  19.234  37.2160  0.00  0.00     0.000 HD
ATOM     13   C  NGY C   1      -0.079  19.810  37.2720  0.00  0.00     0.000 C
ATOM     14   O  NGY C   1      -0.533  19.879  38.4150  0.00  0.00     0.000 OA
ATOM     15   C  NGY C   1       0.813  20.869  36.7010  0.00  0.00     0.000 C
ENDBRANCH 2 13
BRANCH 5 16
ATOM     16   C  NGY C   1      -2.852  13.814  36.2600  0.00  0.00     0.000 C
ATOM     17   O  NGY C   1      -1.702  12.553  33.0120  0.00  0.00     0.000 OA
ATOM     18   O  NGY C   1      -2.312  13.739  34.9370  0.00  0.00     0.000 O
ATOM     19   S  NGY C   1      -2.465  12.351  34.2170  0.00  0.00     0.000 S
ATOM     20   O  NGY C   1      -3.867  12.161  33.9530  0.00  0.00     0.000 OA
ATOM     21   O  NGY C   1      -1.916  11.389  35.1580  0.00  0.00     0.000 OA
ENDBRANCH 5 16
BRANCH 1 22
ATOM     22  O4  BDP C   2       0.211  15.950  38.0950  0.00  0.00     0.000 O
BRANCH 22 26
ATOM     23  C1  BDP C   2       3.289  14.546  40.4420  0.00  0.00     0.000 C
ATOM     24  C2  BDP C   2       3.705  15.405  39.2720  0.00  0.00     0.000 C
ATOM     25  C3  BDP C   2       2.505  16.138  38.7320  0.00  0.00     0.000 C
ATOM     26  C4  BDP C   2       1.380  15.155  38.4240  0.00  0.00     0.000 C
ATOM     27  C5  BDP C   2       1.167  14.225  39.6110  0.00  0.00     0.000 C
ATOM     28  O5  BDP C   2       2.373  13.511  39.9870  0.00  0.00     0.000 O
ATOM     29   O  BDP C   2       4.594  16.454  39.6560  0.00  0.00     0.000 O
ATOM     31  HD  BDP C   2       4.508  17.208  39.2380  0.00  0.00     0.000 HD
ATOM     31   O  BDP C   2       2.922  16.792  37.5400  0.00  0.00     0.000 O
ATOM     33  HD  BDP C   2       2.835  17.546  37.1220  0.00  0.00     0.000 HD
BRANCH 27 33
ATOM     33   C  BDP C   2       0.131  13.162  39.3330  0.00  0.00     0.000 C
ATOM     34   O  BDP C   2      -0.084  12.729  38.1760  0.00  0.00     0.000 OA
ATOM     35   O  BDP C   2      -0.535  12.743  40.2660  0.00  0.00     0.000 OA
ENDBRANCH 27 33
BRANCH 23 36
ATOM     36  O4  SGN C   3       4.302  13.934  41.1010  0.00  0.00     0.000 O
BRANCH 36 40
ATOM     37  C1  SGN C   3       5.612  12.409  44.7600  0.00  0.00     0.000 C
ATOM     38  C2  SGN C   3       4.590  11.580  43.9650  0.00  0.00     0.000 C
ATOM     39  C3  SGN C   3       4.554  12.030  42.5120  0.00  0.00     0.000 C
ATOM     40  C4  SGN C   3       4.255  13.513  42.4660  0.00  0.00     0.000 C
ATOM     41  C5  SGN C   3       5.292  14.245  43.2900  0.00  0.00     0.000 C
ATOM     42  O5  SGN C   3       5.252  13.777  44.6470  0.00  0.00     0.000 O
ATOM     43   O  SGN C   3       3.560  11.288  41.8160  0.00  0.00     0.000 O
ATOM     45  HD  SGN C   3       3.668  12.061  41.4400  0.00  0.00     0.000 HD
BRANCH 38 47
ATOM     45   N  SGN C   3       4.730  11.029  45.3250  0.00  0.00     0.000 N
ATOM     47  HD  SGN C   3       4.642  11.724  44.8150  0.00  0.00     0.000 HD
ATOM     47   S  SGN C   3       4.482   9.460  45.3620  0.00  0.00     0.000 S
ATOM     48   O  SGN C   3       3.134   9.141  45.0480  0.00  0.00     0.000 OA
ATOM     49   O  SGN C   3       5.487   8.867  44.5410  0.00  0.00     0.000 OA
ATOM     50   O  SGN C   3       4.694   9.158  46.7760  0.00  0.00     0.000 OA
ENDBRANCH 38 47
BRANCH 41 51
ATOM     51   C  SGN C   3       5.109  15.738  43.3230  0.00  0.00     0.000 C
ATOM     52   O  SGN C   3       7.184  18.303  41.5910  0.00  0.00     0.000 OA
ATOM     53   O  SGN C   3       4.837  18.306  42.0630  0.00  0.00     0.000 OA
ATOM     54   O  SGN C   3       6.437  18.356  43.8520  0.00  0.00     0.000 OA
ATOM     55   O  SGN C   3       6.079  16.334  42.4910  0.00  0.00     0.000 O
ATOM     56   S  SGN C   3       6.139  17.979  42.5020  0.00  0.00     0.000 S
ENDBRANCH 41 51
BRANCH 37 57
ATOM     57  O4  IDS C   4       6.895  12.273  44.3450  0.00  0.00     0.000 O
BRANCH 57 61
ATOM     58  C1  IDS C   4      10.541  11.388  44.9770  0.00  0.00     0.000 C
ATOM     59  C2  IDS C   4       9.478  10.510  45.5570  0.00  0.00     0.000 C
ATOM     60  C3  IDS C   4       8.289  11.304  46.1040  0.00  0.00     0.000 C
ATOM     61  C4  IDS C   4       7.898  12.560  45.3390  0.00  0.00     0.000 C
ATOM     62  C5  IDS C   4       9.130  13.213  44.7020  0.00  0.00     0.000 C
ATOM     63  O5  IDS C   4       9.944  12.261  44.0330  0.00  0.00     0.000 O
ATOM     64   O  IDS C   4       8.664  11.680  47.4160  0.00  0.00     0.000 O
ATOM     66  HD  IDS C   4       8.765  12.538  47.4680  0.00  0.00     0.000 HD
BRANCH 59 66
ATOM     66   O  IDS C   4       8.932   9.581  44.5490  0.00  0.00     0.000 O
ATOM     67   S  IDS C   4       9.952   8.529  43.9270  0.00  0.00     0.000 S
ATOM     68   O  IDS C   4      10.308   7.707  45.0590  0.00  0.00     0.000 OA
ATOM     69   O  IDS C   4       9.200   7.849  42.8910  0.00  0.00     0.000 OA
ATOM     70   O  IDS C   4      11.094   9.280  43.4290  0.00  0.00     0.000 OA
ENDBRANCH 59 66
BRANCH 62 71
ATOM     71   C  IDS C   4       8.777  14.255  43.6570  0.00  0.00     0.000 C
ATOM     72   O  IDS C   4       8.542  15.400  43.9920  0.00  0.00     0.000 OA
ATOM     73   O  IDS C   4       8.634  13.886  42.4740  0.00  0.00     0.000 OA
ENDBRANCH 62 71
BRANCH 58 74
ATOM     74  O4  SGN C   5      11.428  11.891  45.8810  0.00  0.00     0.000 O
BRANCH 74 78
ATOM     75  C1  SGN C   5      15.321  13.260  46.5270  0.00  0.00     0.000 C
ATOM     76  C2  SGN C   5      14.324  14.296  45.9750  0.00  0.00     0.000 C
ATOM     77  C3  SGN C   5      12.883  13.784  46.1060  0.00  0.00     0.000 C
ATOM     78  C4  SGN C   5      12.745  12.359  45.5890  0.00  0.00     0.000 C
ATOM     79  C5  SGN C   5      13.787  11.474  46.2570  0.00  0.00     0.000 C
ATOM     80  O5  SGN C   5      15.116  11.976  45.9530  0.00  0.00     0.000 O
ATOM     81   O  SGN C   5      12.016  14.660  45.3930  0.00  0.00     0.000 O
ATOM     83  HD  SGN C   5      12.148  15.516  45.3760  0.00  0.00     0.000 HD
BRANCH 76 85
ATOM     83   N  SGN C   5      14.952  15.319  46.8200  0.00  0.00     0.000 N
ATOM     85  HD  SGN C   5      15.052  16.137  47.0880  0.00  0.00     0.000 HD
ATOM     85   S  SGN C   5      15.430  16.809  46.4370  0.00  0.00     0.000 S
ATOM     86   O  SGN C   5      15.948  17.474  47.5820  0.00  0.00     0.000 OA
ATOM     87   O  SGN C   5      16.287  16.698  45.3120  0.00  0.00     0.000 OA
ATOM     88   O  SGN C   5      14.043  17.343  46.0880  0.00  0.00     0.000 OA
ENDBRANCH 76 85
BRANCH 79 89
ATOM     89   C  SGN C   5      13.715  10.024  45.8240  0.00  0.00     0.000 C
ATOM     90   O  SGN C   5      14.446   9.196  46.7620  0.00  0.00     0.000 O
ATOM     91   S  SGN C   5      13.905   7.700  46.9750  0.00  0.00     0.000 S
ATOM     92   O  SGN C   5      12.505   7.814  47.2890  0.00  0.00     0.000 OA
ATOM     93   O  SGN C   5      14.137   6.986  45.7450  0.00  0.00     0.000 OA
ATOM     94   O  SGN C   5      14.699   7.215  48.0710  0.00  0.00     0.000 OA
ENDBRANCH 79 89
BRANCH 75 95
ATOM     95  O4  BDP C   6      15.092  13.202  47.8730  0.00  0.00     0.000 O
BRANCH 95 99
ATOM     96  C1  BDP C   6      18.315  12.907  50.6960  0.00  0.00     0.000 C
ATOM     97  C2  BDP C   6      18.632  12.840  49.2290  0.00  0.00     0.000 C
ATOM     98  C3  BDP C   6      17.501  13.330  48.3130  0.00  0.00     0.000 C
ATOM     99  C4  BDP C   6      16.168  12.705  48.6970  0.00  0.00     0.000 C
ATOM    100  C5  BDP C   6      15.976  12.888  50.2200  0.00  0.00     0.000 C
ATOM    101  O5  BDP C   6      17.097  12.191  50.7870  0.00  0.00     0.000 O
BRANCH 100 102
ATOM    102   C  BDP C   6      14.717  12.235  50.7300  0.00  0.00     0.000 C
ATOM    103   O  BDP C   6      14.726  11.409  51.6550  0.00  0.00     0.000 OA
ATOM    104   O  BDP C   6      13.656  12.569  50.1900  0.00  0.00     0.000 OA
ENDBRANCH 100 102
ENDBRANCH 95 99
ENDBRANCH 75 95
ENDBRANCH 74 78
ENDBRANCH 58 74
ENDBRANCH 57 61
ENDBRANCH 37 57
ENDBRANCH 36 40
ENDBRANCH 23 36
ENDBRANCH 22 26
ENDBRANCH 1 22
TORSDOF 20
ENDMDL
MODEL 28
REMARK VINA RESULT:      -7.1      5.376      8.787
ROOT
ATOM      1  C1  NGY C   1      17.826  13.624  48.1560  0.00  0.00     0.000 C
ATOM      2  C2  NGY C   1      18.167  13.582  49.6390  0.00  0.00     0.000 C
ATOM      3  C3  NGY C   1      19.021  14.787  50.0200  0.00  0.00     0.000 C
ATOM      4  C4  NGY C   1      20.232  14.819  49.1070  0.00  0.00     0.000 C
ATOM      5  C5  NGY C   1      19.754  14.945  47.6630  0.00  0.00     0.000 C
ATOM      6  O5  NGY C   1      18.969  13.768  47.3400  0.00  0.00     0.000 O
ATOM      7   O  NGY C   1      19.386  14.687  51.3890  0.00  0.00     0.000 O
ATOM      9  HD  NGY C   1      19.599  14.060  51.9470  0.00  0.00     0.000 HD
ATOM      9   O  NGY C   1      21.087  15.904  49.4350  0.00  0.00     0.000 O
ATOM     11  HD  NGY C   1      21.300  15.278  49.9940  0.00  0.00     0.000 HD
ENDROOT
BRANCH 2 13
ATOM     11   N  NGY C   1      16.938  12.998  50.1230  0.00  0.00     0.000 N
ATOM     13  HD  NGY C   1      17.148  12.916  50.9590  0.00  0.00     0.000 HD
ATOM     13   C  NGY C   1      16.775  12.676  51.4050  0.00  0.00     0.000 C
ATOM     14   O  NGY C   1      17.715  12.729  52.1990  0.00  0.00     0.000 OA
ATOM     15   C  NGY C   1      15.394  12.276  51.8280  0.00  0.00     0.000 C
ENDBRANCH 2 13
BRANCH 5 16
ATOM     16   C  NGY C   1      20.841  14.999  46.6370  0.00  0.00     0.000 C
ATOM     17   O  NGY C   1      22.131  12.060  44.8600  0.00  0.00     0.000 OA
ATOM     18   O  NGY C   1      21.237  13.663  46.3160  0.00  0.00     0.000 O
ATOM     19   S  NGY C   1      22.025  13.493  44.9670  0.00  0.00     0.000 S
ATOM     20   O  NGY C   1      23.306  14.126  45.1410  0.00  0.00     0.000 OA
ATOM     21   O  NGY C   1      21.188  14.141  43.9700  0.00  0.00     0.000 OA
ENDBRANCH 5 16
BRANCH 1 22
ATOM     22  O4  BDP C   2      16.913  14.596  47.9480  0.00  0.00     0.000 O
BRANCH 22 26
ATOM     23  C1  BDP C   2      13.352  14.873  45.8970  0.00  0.00     0.000 C
ATOM     24  C2  BDP C   2      14.199  13.667  45.5680  0.00  0.00     0.000 C
ATOM     25  C3  BDP C   2      15.261  13.493  46.6220  0.00  0.00     0.000 C
ATOM     26  C4  BDP C   2      16.049  14.787  46.7970  0.00  0.00     0.000 C
ATOM     27  C5  BDP C   2      15.089  15.960  46.9460  0.00  0.00     0.000 C
ATOM     28  O5  BDP C   2      14.168  16.076  45.8310  0.00  0.00     0.000 O
ATOM     29   O  BDP C   2      13.458  12.448  45.6330  0.00  0.00     0.000 O
ATOM     31  HD  BDP C   2      13.882  11.753  45.9270  0.00  0.00     0.000 HD
ATOM     31   O  BDP C   2      16.123  12.454  46.1720  0.00  0.00     0.000 O
ATOM     33  HD  BDP C   2      16.546  11.759  46.4670  0.00  0.00     0.000 HD
BRANCH 27 33
ATOM     33   C  BDP C   2      15.806  17.287  47.0260  0.00  0.00     0.000 C
ATOM     34   O  BDP C   2      16.742  17.490  47.8360  0.00  0.00     0.000 OA
ATOM     35   O  BDP C   2      15.432  18.193  46.3000  0.00  0.00     0.000 OA
ENDBRANCH 27 33
BRANCH 23 36
ATOM     36  O4  SGN C   3      12.278  15.063  45.0960  0.00  0.00     0.000 O
BRANCH 36 40
ATOM     37  C1  SGN C   3       8.302  16.335  45.0130  0.00  0.00     0.000 C
ATOM     38  C2  SGN C   3       9.388  17.360  44.6460  0.00  0.00     0.000 C
ATOM     39  C3  SGN C   3      10.691  16.654  44.3010  0.00  0.00     0.000 C
ATOM     40  C4  SGN C   3      11.095  15.777  45.4660  0.00  0.00     0.000 C
ATOM     41  C5  SGN C   3       9.964  14.820  45.7720  0.00  0.00     0.000 C
ATOM     42  O5  SGN C   3       8.778  15.560  46.1020  0.00  0.00     0.000 O
ATOM     43   O  SGN C   3      11.691  17.627  44.0240  0.00  0.00     0.000 O
ATOM     45  HD  SGN C   3      12.059  16.901  44.3200  0.00  0.00     0.000 HD
BRANCH 38 47
ATOM     45   N  SGN C   3       8.131  18.093  44.8790  0.00  0.00     0.000 N
ATOM     47  HD  SGN C   3       8.709  17.511  45.1570  0.00  0.00     0.000 HD
ATOM     47   S  SGN C   3       7.971  19.332  43.8970  0.00  0.00     0.000 S
ATOM     48   O  SGN C   3       8.950  20.328  44.1560  0.00  0.00     0.000 OA
ATOM     49   O  SGN C   3       7.931  18.802  42.5730  0.00  0.00     0.000 OA
ATOM     50   O  SGN C   3       6.673  19.868  44.3020  0.00  0.00     0.000 OA
ENDBRANCH 38 47
BRANCH 41 51
ATOM     51   C  SGN C   3      10.243  13.883  46.9150  0.00  0.00     0.000 C
ATOM     52   O  SGN C   3      11.241  10.300  46.7020  0.00  0.00     0.000 OA
ATOM     53   O  SGN C   3      11.866  11.963  48.3060  0.00  0.00     0.000 OA
ATOM     54   O  SGN C   3       9.583  11.240  48.1310  0.00  0.00     0.000 OA
ATOM     55   O  SGN C   3      10.637  12.633  46.3940  0.00  0.00     0.000 O
ATOM     56   S  SGN C   3      10.851  11.421  47.4870  0.00  0.00     0.000 S
ENDBRANCH 41 51
BRANCH 37 57
ATOM     57  O4  IDS C   4       7.959  15.491  44.0090  0.00  0.00     0.000 O
BRANCH 57 61
ATOM     58  C1  IDS C   4       5.236  14.106  41.7420  0.00  0.00     0.000 C
ATOM     59  C2  IDS C   4       5.141  15.529  42.1910  0.00  0.00     0.000 C
ATOM     60  C3  IDS C   4       5.551  15.717  43.6550  0.00  0.00     0.000 C
ATOM     61  C4  IDS C   4       6.685  14.837  44.1620  0.00  0.00     0.000 C
ATOM     62  C5  IDS C   4       6.677  13.478  43.4530  0.00  0.00     0.000 C
ATOM     63  O5  IDS C   4       6.532  13.618  42.0470  0.00  0.00     0.000 O
ATOM     64   O  IDS C   4       4.388  15.424  44.4070  0.00  0.00     0.000 O
ATOM     66  HD  IDS C   4       4.501  14.702  44.8710  0.00  0.00     0.000 HD
BRANCH 59 66
ATOM     66   O  IDS C   4       6.019  16.409  41.3960  0.00  0.00     0.000 O
ATOM     67   S  IDS C   4       5.311  17.304  40.2870  0.00  0.00     0.000 S
ATOM     68   O  IDS C   4       4.477  18.190  41.0630  0.00  0.00     0.000 OA
ATOM     69   O  IDS C   4       6.398  17.952  39.5800  0.00  0.00     0.000 OA
ATOM     70   O  IDS C   4       4.518  16.412  39.4550  0.00  0.00     0.000 OA
ENDBRANCH 59 66
BRANCH 62 71
ATOM     71   C  IDS C   4       7.961  12.694  43.6550  0.00  0.00     0.000 C
ATOM     72   O  IDS C   4       8.878  12.813  42.8660  0.00  0.00     0.000 OA
ATOM     73   O  IDS C   4       8.007  11.859  44.5800  0.00  0.00     0.000 OA
ENDBRANCH 62 71
BRANCH 58 74
ATOM     74  O4  SGN C   5       4.149  13.337  42.0350  0.00  0.00     0.000 O
BRANCH 74 78
ATOM     75  C1  SGN C   5       1.941   9.943  41.0090  0.00  0.00     0.000 C
ATOM     76  C2  SGN C   5       3.085   9.726  42.0170  0.00  0.00     0.000 C
ATOM     77  C3  SGN C   5       3.586  11.068  42.5670  0.00  0.00     0.000 C
ATOM     78  C4  SGN C   5       3.839  12.071  41.4510  0.00  0.00     0.000 C
ATOM     79  C5  SGN C   5       2.601  12.176  40.5730  0.00  0.00     0.000 C
ATOM     80  O5  SGN C   5       2.301  10.876  39.9990  0.00  0.00     0.000 O
ATOM     81   O  SGN C   5       4.776  10.844  43.3170  0.00  0.00     0.000 O
ATOM     83  HD  SGN C   5       4.879  10.136  43.8060  0.00  0.00     0.000 HD
BRANCH 76 85
ATOM     83   N  SGN C   5       2.278   8.802  42.8240  0.00  0.00     0.000 N
ATOM     85  HD  SGN C   5       2.188   8.197  43.4370  0.00  0.00     0.000 HD
ATOM     85   S  SGN C   5       2.600   7.290  43.2770  0.00  0.00     0.000 S
ATOM     86   O  SGN C   5       1.553   6.782  44.0940  0.00  0.00     0.000 OA
ATOM     87   O  SGN C   5       2.916   6.559  42.1030  0.00  0.00     0.000 OA
ATOM     88   O  SGN C   5       3.826   7.629  44.1220  0.00  0.00     0.000 OA
ENDBRANCH 76 85
BRANCH 79 89
ATOM     89   C  SGN C   5       2.746  13.174  39.4410  0.00  0.00     0.000 C
ATOM     90   O  SGN C   5       1.500  13.267  38.7070  0.00  0.00     0.000 O
ATOM     91   S  SGN C   5       1.158  14.688  38.0460  0.00  0.00     0.000 S
ATOM     92   O  SGN C   5       1.271  15.664  39.0980  0.00  0.00     0.000 OA
ATOM     93   O  SGN C   5       2.112  14.905  36.9890  0.00  0.00     0.000 OA
ATOM     94   O  SGN C   5      -0.188  14.515  37.5690  0.00  0.00     0.000 OA
ENDBRANCH 79 89
BRANCH 75 95
ATOM     95  O4  BDP C   6       0.894  10.435  41.7360  0.00  0.00     0.000 O
BRANCH 95 99
ATOM     96  C1  BDP C   6      -3.074   9.012  40.9140  0.00  0.00     0.000 C
ATOM     97  C2  BDP C   6      -1.984   8.723  39.9210  0.00  0.00     0.000 C
ATOM     98  C3  BDP C   6      -0.562   8.924  40.4660  0.00  0.00     0.000 C
ATOM     99  C4  BDP C   6      -0.426  10.263  41.1760  0.00  0.00     0.000 C
ATOM    100  C5  BDP C   6      -1.595  10.391  42.1810  0.00  0.00     0.000 C
ATOM    101  O5  BDP C   6      -2.764  10.323  41.3490  0.00  0.00     0.000 O
BRANCH 100 102
ATOM    102   C  BDP C   6      -1.607  11.721  42.8920  0.00  0.00     0.000 C
ATOM    103   O  BDP C   6      -1.018  11.902  43.9670  0.00  0.00     0.000 OA
ATOM    104   O  BDP C   6      -2.227  12.641  42.3450  0.00  0.00     0.000 OA
ENDBRANCH 100 102
ENDBRANCH 95 99
ENDBRANCH 75 95
ENDBRANCH 74 78
ENDBRANCH 58 74
ENDBRANCH 57 61
ENDBRANCH 37 57
ENDBRANCH 36 40
ENDBRANCH 23 36
ENDBRANCH 22 26
ENDBRANCH 1 22
TORSDOF 20
ENDMDL
MODEL 29
REMARK VINA RESULT:      -7.1     16.523     20.764
ROOT
ATOM      1  C1  NGY C   1      33.541   5.629  37.4780  0.00  0.00     0.000 C
ATOM      2  C2  NGY C   1      34.785   5.926  36.6520  0.00  0.00     0.000 C
ATOM      3  C3  NGY C   1      34.485   7.001  35.6130  0.00  0.00     0.000 C
ATOM      4  C4  NGY C   1      33.292   6.550  34.7920  0.00  0.00     0.000 C
ATOM      5  C5  NGY C   1      32.097   6.368  35.7240  0.00  0.00     0.000 C
ATOM      6  O5  NGY C   1      32.419   5.322  36.6780  0.00  0.00     0.000 O
ATOM      7   O  NGY C   1      35.637   7.209  34.8090  0.00  0.00     0.000 O
ATOM      9  HD  NGY C   1      36.277   6.729  34.4760  0.00  0.00     0.000 HD
ATOM      9   O  NGY C   1      32.982   7.498  33.7810  0.00  0.00     0.000 O
ATOM     11  HD  NGY C   1      33.621   7.018  33.4480  0.00  0.00     0.000 HD
ENDROOT
BRANCH 2 13
ATOM     11   N  NGY C   1      36.198   6.178  36.4950  0.00  0.00     0.000 N
ATOM     13  HD  NGY C   1      36.479   5.838  37.2410  0.00  0.00     0.000 HD
ATOM     13   C  NGY C   1      37.079   5.821  37.4290  0.00  0.00     0.000 C
ATOM     14   O  NGY C   1      36.709   5.393  38.5230  0.00  0.00     0.000 OA
ATOM     15   C  NGY C   1      38.528   5.941  37.0670  0.00  0.00     0.000 C
ENDBRANCH 2 13
BRANCH 5 16
ATOM     16   C  NGY C   1      30.832   5.931  35.0580  0.00  0.00     0.000 C
ATOM     17   O  NGY C   1      27.548   7.432  35.7050  0.00  0.00     0.000 OA
ATOM     18   O  NGY C   1      29.728   6.574  35.6990  0.00  0.00     0.000 O
ATOM     19   S  NGY C   1      28.387   6.600  34.8810  0.00  0.00     0.000 S
ATOM     20   O  NGY C   1      27.909   5.244  34.8050  0.00  0.00     0.000 OA
ATOM     21   O  NGY C   1      28.756   7.159  33.5900  0.00  0.00     0.000 OA
ENDBRANCH 5 16
BRANCH 1 22
ATOM     22  O4  BDP C   2      33.316   6.665  38.3130  0.00  0.00     0.000 O
BRANCH 22 26
ATOM     23  C1  BDP C   2      31.851   8.093  41.8880  0.00  0.00     0.000 C
ATOM     24  C2  BDP C   2      32.541   6.751  41.9580  0.00  0.00     0.000 C
ATOM     25  C3  BDP C   2      33.333   6.524  40.6970  0.00  0.00     0.000 C
ATOM     26  C4  BDP C   2      32.443   6.712  39.4730  0.00  0.00     0.000 C
ATOM     27  C5  BDP C   2      31.665   8.015  39.5950  0.00  0.00     0.000 C
ATOM     28  O5  BDP C   2      30.874   8.085  40.8090  0.00  0.00     0.000 O
ATOM     29   O  BDP C   2      33.527   6.699  42.9890  0.00  0.00     0.000 O
ATOM     31  HD  BDP C   2      34.239   6.236  42.8210  0.00  0.00     0.000 HD
ATOM     31   O  BDP C   2      33.817   5.187  40.7490  0.00  0.00     0.000 O
ATOM     33  HD  BDP C   2      34.529   4.724  40.5810  0.00  0.00     0.000 HD
BRANCH 27 33
ATOM     33   C  BDP C   2      30.691   8.215  38.4590  0.00  0.00     0.000 C
ATOM     34   O  BDP C   2      29.574   7.644  38.4320  0.00  0.00     0.000 OA
ATOM     35   O  BDP C   2      31.024   8.928  37.5270  0.00  0.00     0.000 OA
ENDBRANCH 27 33
BRANCH 23 36
ATOM     36  O4  SGN C   3      31.210   8.475  43.0170  0.00  0.00     0.000 O
BRANCH 36 40
ATOM     37  C1  SGN C   3      29.906  11.720  45.2970  0.00  0.00     0.000 C
ATOM     38  C2  SGN C   3      29.503  11.681  43.8140  0.00  0.00     0.000 C
ATOM     39  C3  SGN C   3      29.666  10.276  43.2550  0.00  0.00     0.000 C
ATOM     40  C4  SGN C   3      31.094   9.824  43.4770  0.00  0.00     0.000 C
ATOM     41  C5  SGN C   3      31.410   9.916  44.9540  0.00  0.00     0.000 C
ATOM     42  O5  SGN C   3      31.249  11.271  45.4010  0.00  0.00     0.000 O
ATOM     43   O  SGN C   3      29.344  10.282  41.8700  0.00  0.00     0.000 O
ATOM     45  HD  SGN C   3      29.909   9.648  42.0380  0.00  0.00     0.000 HD
BRANCH 38 47
ATOM     45   N  SGN C   3      29.025  12.778  42.9530  0.00  0.00     0.000 N
ATOM     47  HD  SGN C   3      29.452  12.028  43.0250  0.00  0.00     0.000 HD
ATOM     47   S  SGN C   3      27.929  13.672  43.6780  0.00  0.00     0.000 S
ATOM     48   O  SGN C   3      26.737  12.939  43.9170  0.00  0.00     0.000 OA
ATOM     49   O  SGN C   3      28.563  14.252  44.8170  0.00  0.00     0.000 OA
ATOM     50   O  SGN C   3      27.639  14.675  42.6550  0.00  0.00     0.000 OA
ENDBRANCH 38 47
BRANCH 41 51
ATOM     51   C  SGN C   3      32.807   9.488  45.3110  0.00  0.00     0.000 C
ATOM     52   O  SGN C   3      34.104   8.624  48.6950  0.00  0.00     0.000 OA
ATOM     53   O  SGN C   3      34.695   7.718  46.5590  0.00  0.00     0.000 OA
ATOM     54   O  SGN C   3      35.155  10.017  47.0750  0.00  0.00     0.000 OA
ATOM     55   O  SGN C   3      32.859   9.210  46.6930  0.00  0.00     0.000 O
ATOM     56   S  SGN C   3      34.343   8.861  47.3120  0.00  0.00     0.000 S
ENDBRANCH 41 51
BRANCH 37 57
ATOM     57  O4  IDS C   4      29.140  10.955  46.1120  0.00  0.00     0.000 O
BRANCH 57 61
ATOM     58  C1  IDS C   4      27.426  11.546  49.4560  0.00  0.00     0.000 C
ATOM     59  C2  IDS C   4      28.036  12.712  48.7460  0.00  0.00     0.000 C
ATOM     60  C3  IDS C   4      29.377  12.371  48.0910  0.00  0.00     0.000 C
ATOM     61  C4  IDS C   4      29.511  10.972  47.5040  0.00  0.00     0.000 C
ATOM     62  C5  IDS C   4      28.679   9.964  48.3060  0.00  0.00     0.000 C
ATOM     63  O5  IDS C   4      27.369  10.448  48.5620  0.00  0.00     0.000 O
ATOM     64   O  IDS C   4      30.341  12.518  49.1160  0.00  0.00     0.000 O
ATOM     66  HD  IDS C   4      30.685  11.751  49.3210  0.00  0.00     0.000 HD
BRANCH 59 66
ATOM     66   O  IDS C   4      27.159  13.211  47.6690  0.00  0.00     0.000 O
ATOM     67   S  IDS C   4      26.509  14.647  47.8900  0.00  0.00     0.000 S
ATOM     68   O  IDS C   4      27.652  15.528  47.8970  0.00  0.00     0.000 OA
ATOM     69   O  IDS C   4      25.608  14.824  46.7690  0.00  0.00     0.000 OA
ATOM     70   O  IDS C   4      25.842  14.623  49.1820  0.00  0.00     0.000 OA
ENDBRANCH 59 66
BRANCH 62 71
ATOM     71   C  IDS C   4      28.494   8.641  47.5870  0.00  0.00     0.000 C
ATOM     72   O  IDS C   4      29.461   7.960  47.3040  0.00  0.00     0.000 OA
ATOM     73   O  IDS C   4      27.348   8.328  47.2070  0.00  0.00     0.000 OA
ENDBRANCH 62 71
BRANCH 58 74
ATOM     74  O4  SGN C   5      27.876  11.347  50.7280  0.00  0.00     0.000 O
BRANCH 74 78
ATOM     75  C1  SGN C   5      26.896  10.224  54.6290  0.00  0.00     0.000 C
ATOM     76  C2  SGN C   5      27.083   9.073  53.6220  0.00  0.00     0.000 C
ATOM     77  C3  SGN C   5      27.764   9.578  52.3420  0.00  0.00     0.000 C
ATOM     78  C4  SGN C   5      27.104  10.846  51.8190  0.00  0.00     0.000 C
ATOM     79  C5  SGN C   5      27.026  11.876  52.9360  0.00  0.00     0.000 C
ATOM     80  O5  SGN C   5      26.245  11.340  54.0370  0.00  0.00     0.000 O
ATOM     81   O  SGN C   5      27.720   8.549  51.3590  0.00  0.00     0.000 O
ATOM     83  HD  SGN C   5      27.811   7.714  51.5710  0.00  0.00     0.000 HD
BRANCH 76 85
ATOM     83   N  SGN C   5      27.548   7.693  53.8060  0.00  0.00     0.000 N
ATOM     85  HD  SGN C   5      27.455   6.887  54.1090  0.00  0.00     0.000 HD
ATOM     85   S  SGN C   5      27.459   6.749  55.1080  0.00  0.00     0.000 S
ATOM     86   O  SGN C   5      27.996   5.463  54.8280  0.00  0.00     0.000 OA
ATOM     87   O  SGN C   5      28.036   7.469  56.1870  0.00  0.00     0.000 OA
ATOM     88   O  SGN C   5      25.934   6.694  55.1690  0.00  0.00     0.000 OA
ENDBRANCH 76 85
BRANCH 79 89
ATOM     89   C  SGN C   5      26.403  13.189  52.5050  0.00  0.00     0.000 C
ATOM     90   O  SGN C   5      25.151  13.389  53.2050  0.00  0.00     0.000 O
ATOM     91   S  SGN C   5      24.735  14.908  53.5180  0.00  0.00     0.000 S
ATOM     92   O  SGN C   5      25.861  15.508  54.1850  0.00  0.00     0.000 OA
ATOM     93   O  SGN C   5      24.444  15.536  52.2550  0.00  0.00     0.000 OA
ATOM     94   O  SGN C   5      23.579  14.767  54.3620  0.00  0.00     0.000 OA
ENDBRANCH 79 89
BRANCH 75 95
ATOM     95  O4  BDP C   6      28.155  10.582  55.0220  0.00  0.00     0.000 O
BRANCH 95 99
ATOM     96  C1  BDP C   6      29.276  12.257  58.8150  0.00  0.00     0.000 C
ATOM     97  C2  BDP C   6      27.916  11.634  58.6750  0.00  0.00     0.000 C
ATOM     98  C3  BDP C   6      27.753  10.740  57.4370  0.00  0.00     0.000 C
ATOM     99  C4  BDP C   6      28.257  11.437  56.1810  0.00  0.00     0.000 C
ATOM    100  C5  BDP C   6      29.671  11.988  56.4760  0.00  0.00     0.000 C
ATOM    101  O5  BDP C   6      29.457  12.899  57.5660  0.00  0.00     0.000 O
BRANCH 100 102
ATOM    102   C  BDP C   6      30.243  12.771  55.3220  0.00  0.00     0.000 C
ATOM    103   O  BDP C   6      31.389  12.576  54.8920  0.00  0.00     0.000 OA
ATOM    104   O  BDP C   6      29.507  13.620  54.8040  0.00  0.00     0.000 OA
ENDBRANCH 100 102
ENDBRANCH 95 99
ENDBRANCH 75 95
ENDBRANCH 74 78
ENDBRANCH 58 74
ENDBRANCH 57 61
ENDBRANCH 37 57
ENDBRANCH 36 40
ENDBRANCH 23 36
ENDBRANCH 22 26
ENDBRANCH 1 22
TORSDOF 20
ENDMDL
MODEL 30
REMARK VINA RESULT:      -7.1      9.073     16.643
ROOT
ATOM      1  C1  NGY C   1      -1.422  11.289  56.6540  0.00  0.00     0.000 C
ATOM      2  C2  NGY C   1      -2.897  11.077  56.3420  0.00  0.00     0.000 C
ATOM      3  C3  NGY C   1      -3.658  12.393  56.4630  0.00  0.00     0.000 C
ATOM      4  C4  NGY C   1      -3.394  12.971  57.8400  0.00  0.00     0.000 C
ATOM      5  C5  NGY C   1      -1.895  13.212  57.9920  0.00  0.00     0.000 C
ATOM      6  O5  NGY C   1      -1.217  11.933  57.8940  0.00  0.00     0.000 O
ATOM      7   O  NGY C   1      -5.040  12.156  56.2390  0.00  0.00     0.000 O
ATOM      9  HD  NGY C   1      -5.616  11.533  56.4130  0.00  0.00     0.000 HD
ATOM      9   O  NGY C   1      -4.105  14.186  58.0260  0.00  0.00     0.000 O
ATOM     11  HD  NGY C   1      -4.681  13.563  58.2000  0.00  0.00     0.000 HD
ENDROOT
BRANCH 2 13
ATOM     11   N  NGY C   1      -3.085   9.728  55.8620  0.00  0.00     0.000 N
ATOM     13  HD  NGY C   1      -3.581   9.898  55.1740  0.00  0.00     0.000 HD
ATOM     13   C  NGY C   1      -3.813   9.468  54.7780  0.00  0.00     0.000 C
ATOM     14   O  NGY C   1      -4.472  10.351  54.2270  0.00  0.00     0.000 OA
ATOM     15   C  NGY C   1      -3.765   8.064  54.2560  0.00  0.00     0.000 C
ENDBRANCH 2 13
BRANCH 5 16
ATOM     16   C  NGY C   1      -1.474  13.793  59.3030  0.00  0.00     0.000 C
ATOM     17   O  NGY C   1      -0.451  17.286  59.7640  0.00  0.00     0.000 OA
ATOM     18   O  NGY C   1      -0.941  15.101  59.0770  0.00  0.00     0.000 O
ATOM     19   S  NGY C   1      -0.865  16.032  60.3410  0.00  0.00     0.000 S
ATOM     20   O  NGY C   1       0.131  15.477  61.2190  0.00  0.00     0.000 OA
ATOM     21   O  NGY C   1      -2.208  16.005  60.8970  0.00  0.00     0.000 OA
ENDBRANCH 5 16
BRANCH 1 22
ATOM     22  O4  BDP C   2      -0.852  11.951  55.6250  0.00  0.00     0.000 O
BRANCH 22 26
ATOM     23  C1  BDP C   2       2.348  12.353  53.0630  0.00  0.00     0.000 C
ATOM     24  C2  BDP C   2       2.084  10.951  53.5580  0.00  0.00     0.000 C
ATOM     25  C3  BDP C   2       0.709  10.881  54.1680  0.00  0.00     0.000 C
ATOM     26  C4  BDP C   2       0.545  11.964  55.2290  0.00  0.00     0.000 C
ATOM     27  C5  BDP C   2       1.006  13.305  54.6730  0.00  0.00     0.000 C
ATOM     28  O5  BDP C   2       2.374  13.272  54.1920  0.00  0.00     0.000 O
ATOM     29   O  BDP C   2       2.029  10.000  52.4940  0.00  0.00     0.000 O
ATOM     31  HD  BDP C   2       1.460   9.353  52.5820  0.00  0.00     0.000 HD
ATOM     31   O  BDP C   2       0.585   9.594  54.7610  0.00  0.00     0.000 O
ATOM     33  HD  BDP C   2       0.016   8.947  54.8490  0.00  0.00     0.000 HD
BRANCH 27 33
ATOM     33   C  BDP C   2       0.961  14.405  55.7070  0.00  0.00     0.000 C
ATOM     34   O  BDP C   2       0.589  15.569  55.4250  0.00  0.00     0.000 OA
ATOM     35   O  BDP C   2       1.334  14.151  56.8410  0.00  0.00     0.000 OA
ENDBRANCH 27 33
BRANCH 23 36
ATOM     36  O4  SGN C   3       3.502  12.518  52.3760  0.00  0.00     0.000 O
BRANCH 36 40
ATOM     37  C1  SGN C   3       5.195  15.055  49.5250  0.00  0.00     0.000 C
ATOM     38  C2  SGN C   3       5.876  14.970  50.9010  0.00  0.00     0.000 C
ATOM     39  C3  SGN C   3       5.425  13.721  51.6420  0.00  0.00     0.000 C
ATOM     40  C4  SGN C   3       3.915  13.734  51.7460  0.00  0.00     0.000 C
ATOM     41  C5  SGN C   3       3.331  13.841  50.3540  0.00  0.00     0.000 C
ATOM     42  O5  SGN C   3       3.791  15.049  49.7280  0.00  0.00     0.000 O
ATOM     43   O  SGN C   3       6.023  13.700  52.9320  0.00  0.00     0.000 O
ATOM     45  HD  SGN C   3       5.272  13.269  52.9490  0.00  0.00     0.000 HD
BRANCH 38 47
ATOM     45   N  SGN C   3       6.436  16.333  50.9410  0.00  0.00     0.000 N
ATOM     47  HD  SGN C   3       5.800  15.789  51.1620  0.00  0.00     0.000 HD
ATOM     47   S  SGN C   3       7.964  16.364  50.5040  0.00  0.00     0.000 S
ATOM     48   O  SGN C   3       8.784  15.676  51.4370  0.00  0.00     0.000 OA
ATOM     49   O  SGN C   3       8.012  15.910  49.1530  0.00  0.00     0.000 OA
ATOM     50   O  SGN C   3       8.273  17.790  50.6040  0.00  0.00     0.000 OA
ENDBRANCH 38 47
BRANCH 41 51
ATOM     51   C  SGN C   3       1.827  13.859  50.3170  0.00  0.00     0.000 C
ATOM     52   O  SGN C   3      -0.451  16.069  52.2680  0.00  0.00     0.000 OA
ATOM     53   O  SGN C   3      -0.705  15.191  50.0550  0.00  0.00     0.000 OA
ATOM     54   O  SGN C   3      -0.664  13.718  51.9510  0.00  0.00     0.000 OA
ATOM     55   O  SGN C   3       1.363  14.881  51.1700  0.00  0.00     0.000 O
ATOM     56   S  SGN C   3      -0.267  14.971  51.3810  0.00  0.00     0.000 S
ENDBRANCH 41 51
BRANCH 37 57
ATOM     57  O4  IDS C   4       5.505  14.043  48.6770  0.00  0.00     0.000 O
BRANCH 57 61
ATOM     58  C1  IDS C   4       5.605  13.409  44.9280  0.00  0.00     0.000 C
ATOM     59  C2  IDS C   4       5.504  14.819  45.4150  0.00  0.00     0.000 C
ATOM     60  C3  IDS C   4       4.567  14.965  46.6170  0.00  0.00     0.000 C
ATOM     61  C4  IDS C   4       4.557  13.816  47.6160  0.00  0.00     0.000 C
ATOM     62  C5  IDS C   4       4.832  12.482  46.9130  0.00  0.00     0.000 C
ATOM     63  O5  IDS C   4       5.935  12.572  46.0230  0.00  0.00     0.000 O
ATOM     64   O  IDS C   4       3.269  15.085  46.0640  0.00  0.00     0.000 O
ATOM     66  HD  IDS C   4       2.789  14.393  46.2640  0.00  0.00     0.000 HD
BRANCH 59 66
ATOM     66   O  IDS C   4       6.816  15.341  45.8430  0.00  0.00     0.000 O
ATOM     67   S  IDS C   4       7.129  16.859  45.4830  0.00  0.00     0.000 S
ATOM     68   O  IDS C   4       6.153  17.588  46.2560  0.00  0.00     0.000 OA
ATOM     69   O  IDS C   4       8.506  17.063  45.8900  0.00  0.00     0.000 OA
ATOM     70   O  IDS C   4       6.909  17.017  44.0540  0.00  0.00     0.000 OA
ENDBRANCH 59 66
BRANCH 62 71
ATOM     71   C  IDS C   4       5.173  11.361  47.8760  0.00  0.00     0.000 C
ATOM     72   O  IDS C   4       6.092  10.604  47.6300  0.00  0.00     0.000 OA
ATOM     73   O  IDS C   4       4.429  11.177  48.8600  0.00  0.00     0.000 OA
ENDBRANCH 62 71
BRANCH 58 74
ATOM     74  O4  SGN C   5       4.618  13.025  44.0700  0.00  0.00     0.000 O
BRANCH 74 78
ATOM     75  C1  SGN C   5       3.594  10.686  40.7640  0.00  0.00     0.000 C
ATOM     76  C2  SGN C   5       4.042   9.919  42.0220  0.00  0.00     0.000 C
ATOM     77  C3  SGN C   5       4.057  10.844  43.2460  0.00  0.00     0.000 C
ATOM     78  C4  SGN C   5       4.776  12.153  42.9500  0.00  0.00     0.000 C
ATOM     79  C5  SGN C   5       4.189  12.782  41.6950  0.00  0.00     0.000 C
ATOM     80  O5  SGN C   5       4.353  11.873  40.5750  0.00  0.00     0.000 O
ATOM     81   O  SGN C   5       4.681  10.165  44.3310  0.00  0.00     0.000 O
ATOM     83  HD  SGN C   5       4.570   9.316  44.4590  0.00  0.00     0.000 HD
BRANCH 76 85
ATOM     83   N  SGN C   5       3.491   8.651  42.5170  0.00  0.00     0.000 N
ATOM     85  HD  SGN C   5       3.463   7.786  42.5460  0.00  0.00     0.000 HD
ATOM     85   S  SGN C   5       3.176   7.290  41.7160  0.00  0.00     0.000 S
ATOM     86   O  SGN C   5       2.689   6.292  42.6040  0.00  0.00     0.000 OA
ATOM     87   O  SGN C   5       2.350   7.634  40.6150  0.00  0.00     0.000 OA
ATOM     88   O  SGN C   5       4.620   6.995  41.3160  0.00  0.00     0.000 OA
ENDBRANCH 76 85
BRANCH 79 89
ATOM     89   C  SGN C   5       4.825  14.108  41.3300  0.00  0.00     0.000 C
ATOM     90   O  SGN C   5       4.247  14.606  40.0990  0.00  0.00     0.000 O
ATOM     91   S  SGN C   5       4.159  16.201  39.9370  0.00  0.00     0.000 S
ATOM     92   O  SGN C   5       3.495  16.692  41.1170  0.00  0.00     0.000 OA
ATOM     93   O  SGN C   5       5.509  16.690  39.8210  0.00  0.00     0.000 OA
ATOM     94   O  SGN C   5       3.389  16.369  38.7350  0.00  0.00     0.000 OA
ENDBRANCH 79 89
BRANCH 75 95
ATOM     95  O4  BDP C   6       2.283  11.009  40.9730  0.00  0.00     0.000 O
BRANCH 95 99
ATOM     96  C1  BDP C   6      -0.878  11.611  38.1280  0.00  0.00     0.000 C
ATOM     97  C2  BDP C   6       0.238  10.669  37.7770  0.00  0.00     0.000 C
ATOM     98  C3  BDP C   6       1.096  10.228  38.9730  0.00  0.00     0.000 C
ATOM     99  C4  BDP C   6       1.521  11.421  39.8170  0.00  0.00     0.000 C
ATOM    100  C5  BDP C   6       0.261  12.266  40.1210  0.00  0.00     0.000 C
ATOM    101  O5  BDP C   6      -0.208  12.650  38.8180  0.00  0.00     0.000 O
BRANCH 100 102
ATOM    102   C  BDP C   6       0.576  13.523  40.8900  0.00  0.00     0.000 C
ATOM    103   O  BDP C   6       0.998  14.549  40.3380  0.00  0.00     0.000 OA
ATOM    104   O  BDP C   6       0.381  13.495  42.1110  0.00  0.00     0.000 OA
ENDBRANCH 100 102
ENDBRANCH 95 99
ENDBRANCH 75 95
ENDBRANCH 74 78
ENDBRANCH 58 74
ENDBRANCH 57 61
ENDBRANCH 37 57
ENDBRANCH 36 40
ENDBRANCH 23 36
ENDBRANCH 22 26
ENDBRANCH 1 22
TORSDOF 20
ENDMDL
MODEL 31
REMARK VINA RESULT:      -7.0      3.618     16.196
ROOT
ATOM      1  C1  NGY C   1       0.041  14.459  54.7200  0.00  0.00     0.000 C
ATOM      2  C2  NGY C   1      -0.937  13.316  54.9470  0.00  0.00     0.000 C
ATOM      3  C3  NGY C   1      -2.369  13.795  54.7330  0.00  0.00     0.000 C
ATOM      4  C4  NGY C   1      -2.607  14.998  55.6260  0.00  0.00     0.000 C
ATOM      5  C5  NGY C   1      -1.619  16.096  55.2410  0.00  0.00     0.000 C
ATOM      6  O5  NGY C   1      -0.276  15.604  55.4840  0.00  0.00     0.000 O
ATOM      7   O  NGY C   1      -3.266  12.732  55.0200  0.00  0.00     0.000 O
ATOM      9  HD  NGY C   1      -3.317  12.076  55.5840  0.00  0.00     0.000 HD
ATOM      9   O  NGY C   1      -3.939  15.472  55.4960  0.00  0.00     0.000 O
ATOM     11  HD  NGY C   1      -3.991  14.817  56.0600  0.00  0.00     0.000 HD
ENDROOT
BRANCH 2 13
ATOM     11   N  NGY C   1      -0.466  12.005  55.3260  0.00  0.00     0.000 N
ATOM     13  HD  NGY C   1      -0.641  11.581  54.5910  0.00  0.00     0.000 HD
ATOM     13   C  NGY C   1      -0.531  10.970  54.4890  0.00  0.00     0.000 C
ATOM     14   O  NGY C   1      -1.125  11.057  53.4140  0.00  0.00     0.000 OA
ATOM     15   C  NGY C   1       0.175   9.718  54.9120  0.00  0.00     0.000 C
ENDBRANCH 2 13
BRANCH 5 16
ATOM     16   C  NGY C   1      -1.735  17.360  56.0320  0.00  0.00     0.000 C
ATOM     17   O  NGY C   1       1.082  18.975  57.7400  0.00  0.00     0.000 OA
ATOM     18   O  NGY C   1      -0.506  17.580  56.7290  0.00  0.00     0.000 O
ATOM     19   S  NGY C   1      -0.269  19.046  57.2420  0.00  0.00     0.000 S
ATOM     20   O  NGY C   1      -1.226  19.292  58.2880  0.00  0.00     0.000 OA
ATOM     21   O  NGY C   1      -0.465  19.881  56.0680  0.00  0.00     0.000 OA
ENDBRANCH 5 16
BRANCH 1 22
ATOM     22  O4  BDP C   2       0.108  14.719  53.3980  0.00  0.00     0.000 O
BRANCH 22 26
ATOM     23  C1  BDP C   2       3.265  14.750  50.7530  0.00  0.00     0.000 C
ATOM     24  C2  BDP C   2       3.634  14.927  52.2080  0.00  0.00     0.000 C
ATOM     25  C3  BDP C   2       2.467  14.535  53.0760  0.00  0.00     0.000 C
ATOM     26  C4  BDP C   2       1.212  15.289  52.6470  0.00  0.00     0.000 C
ATOM     27  C5  BDP C   2       1.038  15.186  51.1370  0.00  0.00     0.000 C
ATOM     28  O5  BDP C   2       2.193  15.670  50.4050  0.00  0.00     0.000 O
ATOM     29   O  BDP C   2       4.672  14.038  52.6180  0.00  0.00     0.000 O
ATOM     31  HD  BDP C   2       4.622  13.729  53.4260  0.00  0.00     0.000 HD
ATOM     31   O  BDP C   2       2.812  14.880  54.4120  0.00  0.00     0.000 O
ATOM     33  HD  BDP C   2       2.761  14.572  55.2190  0.00  0.00     0.000 HD
BRANCH 27 33
ATOM     33   C  BDP C   2      -0.134  15.994  50.6350  0.00  0.00     0.000 C
ATOM     34   O  BDP C   2      -0.175  17.243  50.7380  0.00  0.00     0.000 OA
ATOM     35   O  BDP C   2      -1.082  15.400  50.1460  0.00  0.00     0.000 OA
ENDBRANCH 27 33
BRANCH 23 36
ATOM     36  O4  SGN C   3       4.274  14.945  49.8720  0.00  0.00     0.000 O
BRANCH 36 40
ATOM     37  C1  SGN C   3       5.977  13.534  46.3320  0.00  0.00     0.000 C
ATOM     38  C2  SGN C   3       5.032  14.742  46.2370  0.00  0.00     0.000 C
ATOM     39  C3  SGN C   3       4.855  15.388  47.6030  0.00  0.00     0.000 C
ATOM     40  C4  SGN C   3       4.360  14.342  48.5780  0.00  0.00     0.000 C
ATOM     41  C5  SGN C   3       5.335  13.185  48.5900  0.00  0.00     0.000 C
ATOM     42  O5  SGN C   3       5.434  12.621  47.2730  0.00  0.00     0.000 O
ATOM     43   O  SGN C   3       3.931  16.464  47.4980  0.00  0.00     0.000 O
ATOM     45  HD  SGN C   3       3.915  16.139  48.3000  0.00  0.00     0.000 HD
BRANCH 38 47
ATOM     45   N  SGN C   3       4.965  14.240  44.8530  0.00  0.00     0.000 N
ATOM     47  HD  SGN C   3       4.787  14.119  45.6920  0.00  0.00     0.000 HD
ATOM     47   S  SGN C   3       5.284  15.377  43.7890  0.00  0.00     0.000 S
ATOM     48   O  SGN C   3       4.282  16.383  43.7900  0.00  0.00     0.000 OA
ATOM     49   O  SGN C   3       6.622  15.805  44.0380  0.00  0.00     0.000 OA
ATOM     50   O  SGN C   3       5.179  14.643  42.5290  0.00  0.00     0.000 OA
ENDBRANCH 38 47
BRANCH 41 51
ATOM     51   C  SGN C   3       4.957  12.071  49.5280  0.00  0.00     0.000 C
ATOM     52   O  SGN C   3       2.694   9.197  48.8240  0.00  0.00     0.000 OA
ATOM     53   O  SGN C   3       4.647   9.296  50.2050  0.00  0.00     0.000 OA
ATOM     54   O  SGN C   3       2.694  10.574  50.7670  0.00  0.00     0.000 OA
ATOM     55   O  SGN C   3       4.120  11.165  48.8470  0.00  0.00     0.000 O
ATOM     56   S  SGN C   3       3.479   9.945  49.7470  0.00  0.00     0.000 S
ENDBRANCH 41 51
BRANCH 37 57
ATOM     57  O4  IDS C   4       7.242  13.834  46.7150  0.00  0.00     0.000 O
BRANCH 57 61
ATOM     58  C1  IDS C   4      11.025  14.001  46.3470  0.00  0.00     0.000 C
ATOM     59  C2  IDS C   4      10.173  14.669  45.3150  0.00  0.00     0.000 C
ATOM     60  C3  IDS C   4       8.933  13.849  44.9490  0.00  0.00     0.000 C
ATOM     61  C4  IDS C   4       8.279  13.063  46.0780  0.00  0.00     0.000 C
ATOM     62  C5  IDS C   4       9.327  12.605  47.0990  0.00  0.00     0.000 C
ATOM     63  O5  IDS C   4      10.211  13.657  47.4550  0.00  0.00     0.000 O
ATOM     64   O  IDS C   4       9.370  12.932  43.9640  0.00  0.00     0.000 O
ATOM     66  HD  IDS C   4       9.341  12.122  44.2690  0.00  0.00     0.000 HD
BRANCH 59 66
ATOM     66   O  IDS C   4       9.684  15.980  45.7820  0.00  0.00     0.000 O
ATOM     67   S  IDS C   4      10.272  17.262  45.0440  0.00  0.00     0.000 S
ATOM     68   O  IDS C   4       9.776  17.121  43.6960  0.00  0.00     0.000 OA
ATOM     69   O  IDS C   4       9.738  18.393  45.7770  0.00  0.00     0.000 OA
ATOM     70   O  IDS C   4      11.722  17.160  45.0950  0.00  0.00     0.000 OA
ENDBRANCH 59 66
BRANCH 62 71
ATOM     71   C  IDS C   4       8.717  12.124  48.4020  0.00  0.00     0.000 C
ATOM     72   O  IDS C   4       8.071  11.095  48.4300  0.00  0.00     0.000 OA
ATOM     73   O  IDS C   4       8.806  12.859  49.4060  0.00  0.00     0.000 OA
ENDBRANCH 62 71
BRANCH 58 74
ATOM     74  O4  SGN C   5      11.907  13.083  45.8580  0.00  0.00     0.000 O
BRANCH 74 78
ATOM     75  C1  SGN C   5      15.073  10.551  46.8610  0.00  0.00     0.000 C
ATOM     76  C2  SGN C   5      13.699   9.877  46.6830  0.00  0.00     0.000 C
ATOM     77  C3  SGN C   5      12.713  10.829  45.9930  0.00  0.00     0.000 C
ATOM     78  C4  SGN C   5      12.721  12.208  46.6380  0.00  0.00     0.000 C
ATOM     79  C5  SGN C   5      14.149  12.727  46.7080  0.00  0.00     0.000 C
ATOM     80  O5  SGN C   5      14.959  11.816  47.4980  0.00  0.00     0.000 O
ATOM     81   O  SGN C   5      11.409  10.260  46.0450  0.00  0.00     0.000 O
ATOM     83  HD  SGN C   5      11.282   9.407  45.9640  0.00  0.00     0.000 HD
BRANCH 76 85
ATOM     83   N  SGN C   5      14.359   8.729  46.0490  0.00  0.00     0.000 N
ATOM     85  HD  SGN C   5      14.355   7.929  45.7160  0.00  0.00     0.000 HD
ATOM     85   S  SGN C   5      14.173   7.155  46.3370  0.00  0.00     0.000 S
ATOM     86   O  SGN C   5      14.983   6.389  45.4540  0.00  0.00     0.000 OA
ATOM     87   O  SGN C   5      14.368   6.957  47.7280  0.00  0.00     0.000 OA
ATOM     88   O  SGN C   5      12.706   7.083  45.9190  0.00  0.00     0.000 OA
ENDBRANCH 76 85
BRANCH 79 89
ATOM     89   C  SGN C   5      14.260  14.111  47.3160  0.00  0.00     0.000 C
ATOM     90   O  SGN C   5      13.937  14.053  48.7270  0.00  0.00     0.000 O
ATOM     91   S  SGN C   5      14.686  15.104  49.6810  0.00  0.00     0.000 S
ATOM     92   O  SGN C   5      16.094  14.964  49.4140  0.00  0.00     0.000 OA
ATOM     93   O  SGN C   5      14.189  16.413  49.3430  0.00  0.00     0.000 OA
ATOM     94   O  SGN C   5      14.309  14.678  51.0020  0.00  0.00     0.000 OA
ENDBRANCH 79 89
BRANCH 75 95
ATOM     95  O4  BDP C   6      15.572  10.716  45.6000  0.00  0.00     0.000 O
BRANCH 95 99
ATOM     96  C1  BDP C   6      19.633  11.285  44.3210  0.00  0.00     0.000 C
ATOM     97  C2  BDP C   6      19.376  10.518  45.5880  0.00  0.00     0.000 C
ATOM     98  C3  BDP C   6      17.925  10.042  45.7580  0.00  0.00     0.000 C
ATOM     99  C4  BDP C   6      16.939  11.170  45.4940  0.00  0.00     0.000 C
ATOM    100  C5  BDP C   6      17.316  11.829  44.1470  0.00  0.00     0.000 C
ATOM    101  O5  BDP C   6      18.653  12.305  44.3670  0.00  0.00     0.000 O
BRANCH 100 102
ATOM    102   C  BDP C   6      16.448  13.018  43.8180  0.00  0.00     0.000 C
ATOM    103   O  BDP C   6      16.891  14.176  43.7990  0.00  0.00     0.000 OA
ATOM    104   O  BDP C   6      15.263  12.788  43.5520  0.00  0.00     0.000 OA
ENDBRANCH 100 102
ENDBRANCH 95 99
ENDBRANCH 75 95
ENDBRANCH 74 78
ENDBRANCH 58 74
ENDBRANCH 57 61
ENDBRANCH 37 57
ENDBRANCH 36 40
ENDBRANCH 23 36
ENDBRANCH 22 26
ENDBRANCH 1 22
TORSDOF 20
ENDMDL
MODEL 32
REMARK VINA RESULT:      -7.0      3.409     15.721
ROOT
ATOM      1  C1  NGY C   1       1.949  12.730  51.9660  0.00  0.00     0.000 C
ATOM      2  C2  NGY C   1       1.207  11.401  51.9530  0.00  0.00     0.000 C
ATOM      3  C3  NGY C   1      -0.073  11.519  51.1320  0.00  0.00     0.000 C
ATOM      4  C4  NGY C   1      -0.886  12.676  51.6820  0.00  0.00     0.000 C
ATOM      5  C5  NGY C   1      -0.061  13.955  51.5620  0.00  0.00     0.000 C
ATOM      6  O5  NGY C   1       1.131  13.805  52.3750  0.00  0.00     0.000 O
ATOM      7   O  NGY C   1      -0.783  10.291  51.1950  0.00  0.00     0.000 O
ATOM      9  HD  NGY C   1      -0.933   9.671  51.7800  0.00  0.00     0.000 HD
ATOM      9   O  NGY C   1      -2.111  12.817  50.9770  0.00  0.00     0.000 O
ATOM     11  HD  NGY C   1      -2.261  12.197  51.5630  0.00  0.00     0.000 HD
ENDROOT
BRANCH 2 13
ATOM     11   N  NGY C   1       2.103  10.426  52.5290  0.00  0.00     0.000 N
ATOM     13  HD  NGY C   1       1.944   9.765  51.9930  0.00  0.00     0.000 HD
ATOM     13   C  NGY C   1       2.213   9.197  52.0270  0.00  0.00     0.000 C
ATOM     14   O  NGY C   1       1.452   8.799  51.1430  0.00  0.00     0.000 OA
ATOM     15   C  NGY C   1       3.319   8.345  52.5720  0.00  0.00     0.000 C
ENDBRANCH 2 13
BRANCH 5 16
ATOM     16   C  NGY C   1      -0.736  15.194  52.0570  0.00  0.00     0.000 C
ATOM     17   O  NGY C   1       0.659  18.568  51.7010  0.00  0.00     0.000 OA
ATOM     18   O  NGY C   1       0.177  16.290  51.9470  0.00  0.00     0.000 O
ATOM     19   S  NGY C   1      -0.470  17.721  51.9890  0.00  0.00     0.000 S
ATOM     20   O  NGY C   1      -0.978  17.919  53.3210  0.00  0.00     0.000 OA
ATOM     21   O  NGY C   1      -1.507  17.683  50.9710  0.00  0.00     0.000 OA
ENDBRANCH 5 16
BRANCH 1 22
ATOM     22  O4  BDP C   2       2.502  12.931  50.7520  0.00  0.00     0.000 O
BRANCH 22 26
ATOM     23  C1  BDP C   2       5.766  14.069  48.5110  0.00  0.00     0.000 C
ATOM     24  C2  BDP C   2       6.083  13.385  49.8200  0.00  0.00     0.000 C
ATOM     25  C3  BDP C   2       4.846  12.707  50.3490  0.00  0.00     0.000 C
ATOM     26  C4  BDP C   2       3.689  13.699  50.4200  0.00  0.00     0.000 C
ATOM     27  C5  BDP C   2       3.575  14.455  49.1020  0.00  0.00     0.000 C
ATOM     28  O5  BDP C   2       4.803  15.136  48.7390  0.00  0.00     0.000 O
ATOM     29   O  BDP C   2       7.013  12.313  49.6630  0.00  0.00     0.000 O
ATOM     31  HD  BDP C   2       6.896  11.622  50.1710  0.00  0.00     0.000 HD
ATOM     31   O  BDP C   2       5.161  12.230  51.6510  0.00  0.00     0.000 O
ATOM     33  HD  BDP C   2       5.044  11.538  52.1590  0.00  0.00     0.000 HD
BRANCH 27 33
ATOM     33   C  BDP C   2       2.509  15.523  49.1400  0.00  0.00     0.000 C
ATOM     34   O  BDP C   2       2.739  16.679  49.5700  0.00  0.00     0.000 OA
ATOM     35   O  BDP C   2       1.383  15.233  48.7700  0.00  0.00     0.000 OA
ENDBRANCH 27 33
BRANCH 23 36
ATOM     36  O4  SGN C   3       6.828  14.606  47.8670  0.00  0.00     0.000 O
BRANCH 36 40
ATOM     37  C1  SGN C   3       8.631  15.273  44.1610  0.00  0.00     0.000 C
ATOM     38  C2  SGN C   3       7.454  16.180  44.5560  0.00  0.00     0.000 C
ATOM     39  C3  SGN C   3       7.208  16.109  46.0560  0.00  0.00     0.000 C
ATOM     40  C4  SGN C   3       6.980  14.665  46.4460  0.00  0.00     0.000 C
ATOM     41  C5  SGN C   3       8.171  13.845  46.0000  0.00  0.00     0.000 C
ATOM     42  O5  SGN C   3       8.327  13.951  44.5770  0.00  0.00     0.000 O
ATOM     43   O  SGN C   3       6.079  16.910  46.3840  0.00  0.00     0.000 O
ATOM     45  HD  SGN C   3       6.164  16.269  46.9610  0.00  0.00     0.000 HD
BRANCH 38 47
ATOM     45   N  SGN C   3       7.183  16.370  43.1200  0.00  0.00     0.000 N
ATOM     47  HD  SGN C   3       7.096  15.881  43.8300  0.00  0.00     0.000 HD
ATOM     47   S  SGN C   3       7.467  17.862  42.6510  0.00  0.00     0.000 S
ATOM     48   O  SGN C   3       6.558  18.775  43.2500  0.00  0.00     0.000 OA
ATOM     49   O  SGN C   3       8.855  18.103  42.8710  0.00  0.00     0.000 OA
ATOM     50   O  SGN C   3       7.152  17.791  41.2250  0.00  0.00     0.000 OA
ENDBRANCH 38 47
BRANCH 41 51
ATOM     51   C  SGN C   3       8.071  12.382  46.3350  0.00  0.00     0.000 C
ATOM     52   O  SGN C   3       5.104  10.169  45.9090  0.00  0.00     0.000 OA
ATOM     53   O  SGN C   3       7.432   9.654  45.6960  0.00  0.00     0.000 OA
ATOM     54   O  SGN C   3       6.520  10.310  47.8180  0.00  0.00     0.000 OA
ATOM     55   O  SGN C   3       6.789  11.918  45.9720  0.00  0.00     0.000 O
ATOM     56   S  SGN C   3       6.429  10.368  46.3900  0.00  0.00     0.000 S
ENDBRANCH 41 51
BRANCH 37 57
ATOM     57  O4  IDS C   4       9.823  15.624  44.7030  0.00  0.00     0.000 O
BRANCH 57 61
ATOM     58  C1  IDS C   4      13.623  15.465  44.6310  0.00  0.00     0.000 C
ATOM     59  C2  IDS C   4      12.880  15.493  43.3320  0.00  0.00     0.000 C
ATOM     60  C3  IDS C   4      11.611  14.638  43.3580  0.00  0.00     0.000 C
ATOM     61  C4  IDS C   4      10.840  14.604  44.6710  0.00  0.00     0.000 C
ATOM     62  C5  IDS C   4      11.792  14.742  45.8640  0.00  0.00     0.000 C
ATOM     63  O5  IDS C   4      12.724  15.796  45.6760  0.00  0.00     0.000 O
ATOM     64   O  IDS C   4      12.040  13.324  43.0590  0.00  0.00     0.000 O
ATOM     66  HD  IDS C   4      11.937  12.807  43.7470  0.00  0.00     0.000 HD
BRANCH 59 66
ATOM     66   O  IDS C   4      12.457  16.861  42.9790  0.00  0.00     0.000 O
ATOM     67   S  IDS C   4      13.575  17.817  42.3730  0.00  0.00     0.000 S
ATOM     68   O  IDS C   4      13.908  17.181  41.1220  0.00  0.00     0.000 OA
ATOM     69   O  IDS C   4      12.932  19.111  42.2490  0.00  0.00     0.000 OA
ATOM     70   O  IDS C   4      14.698  17.805  43.2970  0.00  0.00     0.000 OA
ENDBRANCH 59 66
BRANCH 62 71
ATOM     71   C  IDS C   4      11.076  15.057  47.1640  0.00  0.00     0.000 C
ATOM     72   O  IDS C   4      10.645  16.175  47.3670  0.00  0.00     0.000 OA
ATOM     73   O  IDS C   4      11.035  14.178  48.0480  0.00  0.00     0.000 OA
ENDBRANCH 62 71
BRANCH 58 74
ATOM     74  O4  SGN C   5      14.466  14.405  44.7880  0.00  0.00     0.000 O
BRANCH 74 78
ATOM     75  C1  SGN C   5      17.485  12.776  47.1700  0.00  0.00     0.000 C
ATOM     76  C2  SGN C   5      16.068  12.215  47.3980  0.00  0.00     0.000 C
ATOM     77  C3  SGN C   5      15.131  12.629  46.2550  0.00  0.00     0.000 C
ATOM     78  C4  SGN C   5      15.239  14.118  45.9540  0.00  0.00     0.000 C
ATOM     79  C5  SGN C   5      16.698  14.487  45.7330  0.00  0.00     0.000 C
ATOM     80  O5  SGN C   5      17.463  14.176  46.9280  0.00  0.00     0.000 O
ATOM     81   O  SGN C   5      13.795  12.285  46.6060  0.00  0.00     0.000 O
ATOM     83  HD  SGN C   5      13.613  11.561  47.0450  0.00  0.00     0.000 HD
BRANCH 76 85
ATOM     83   N  SGN C   5      15.695  10.829  47.7060  0.00  0.00     0.000 N
ATOM     85  HD  SGN C   5      15.565  10.175  48.2580  0.00  0.00     0.000 HD
ATOM     85   S  SGN C   5      16.362   9.798  48.7490  0.00  0.00     0.000 S
ATOM     86   O  SGN C   5      15.648   8.569  48.7570  0.00  0.00     0.000 OA
ATOM     87   O  SGN C   5      17.748   9.738  48.4500  0.00  0.00     0.000 OA
ATOM     88   O  SGN C   5      16.052  10.609  50.0050  0.00  0.00     0.000 OA
ENDBRANCH 76 85
BRANCH 79 89
ATOM     89   C  SGN C   5      16.907  15.951  45.4010  0.00  0.00     0.000 C
ATOM     90   O  SGN C   5      18.316  16.207  45.1840  0.00  0.00     0.000 O
ATOM     91   S  SGN C   5      18.685  17.362  44.1320  0.00  0.00     0.000 S
ATOM     92   O  SGN C   5      17.971  17.052  42.9210  0.00  0.00     0.000 OA
ATOM     93   O  SGN C   5      18.268  18.612  44.7120  0.00  0.00     0.000 OA
ATOM     94   O  SGN C   5      20.112  17.246  44.0000  0.00  0.00     0.000 OA
ENDBRANCH 79 89
BRANCH 75 95
ATOM     95  O4  BDP C   6      17.969  12.127  46.0700  0.00  0.00     0.000 O
BRANCH 95 99
ATOM     96  C1  BDP C   6      22.062  11.210  45.1430  0.00  0.00     0.000 C
ATOM     97  C2  BDP C   6      21.697  11.522  46.5660  0.00  0.00     0.000 C
ATOM     98  C3  BDP C   6      20.191  11.457  46.8640  0.00  0.00     0.000 C
ATOM     99  C4  BDP C   6      19.389  12.228  45.8260  0.00  0.00     0.000 C
ATOM    100  C5  BDP C   6      19.855  11.769  44.4240  0.00  0.00     0.000 C
ATOM    101  O5  BDP C   6      21.251  12.107  44.4070  0.00  0.00     0.000 O
BRANCH 100 102
ATOM    102   C  BDP C   6      19.179  12.526  43.3100  0.00  0.00     0.000 C
ATOM    103   O  BDP C   6      19.257  13.759  43.2050  0.00  0.00     0.000 OA
ATOM    104   O  BDP C   6      18.545  11.859  42.4850  0.00  0.00     0.000 OA
ENDBRANCH 100 102
ENDBRANCH 95 99
ENDBRANCH 75 95
ENDBRANCH 74 78
ENDBRANCH 58 74
ENDBRANCH 57 61
ENDBRANCH 37 57
ENDBRANCH 36 40
ENDBRANCH 23 36
ENDBRANCH 22 26
ENDBRANCH 1 22
TORSDOF 20
ENDMDL
MODEL 33
REMARK VINA RESULT:      -6.9      6.345     10.359
ROOT
ATOM      1  C1  NGY C   1      15.350  12.480  46.5160  0.00  0.00     0.000 C
ATOM      2  C2  NGY C   1      15.996  12.658  47.8830  0.00  0.00     0.000 C
ATOM      3  C3  NGY C   1      16.432  14.107  48.0770  0.00  0.00     0.000 C
ATOM      4  C4  NGY C   1      17.327  14.495  46.9150  0.00  0.00     0.000 C
ATOM      5  C5  NGY C   1      16.536  14.350  45.6180  0.00  0.00     0.000 C
ATOM      6  O5  NGY C   1      16.164  12.956  45.4650  0.00  0.00     0.000 O
ATOM      7   O  NGY C   1      17.095  14.232  49.3260  0.00  0.00     0.000 O
ATOM      9  HD  NGY C   1      17.630  13.756  49.8140  0.00  0.00     0.000 HD
ATOM      9   O  NGY C   1      17.794  15.828  47.0560  0.00  0.00     0.000 O
ATOM     11  HD  NGY C   1      18.329  15.353  47.5440  0.00  0.00     0.000 HD
ENDROOT
BRANCH 2 13
ATOM     11   N  NGY C   1      15.578  12.606  49.2640  0.00  0.00     0.000 N
ATOM     13  HD  NGY C   1      15.581  11.747  49.3720  0.00  0.00     0.000 HD
ATOM     13   C  NGY C   1      15.428  11.447  49.9040  0.00  0.00     0.000 C
ATOM     14   O  NGY C   1      15.501  10.374  49.3040  0.00  0.00     0.000 OA
ATOM     15   C  NGY C   1      15.197  11.521  51.3830  0.00  0.00     0.000 C
ENDBRANCH 2 13
BRANCH 5 16
ATOM     16   C  NGY C   1      17.284  14.708  44.3740  0.00  0.00     0.000 C
ATOM     17   O  NGY C   1      16.335  17.446  42.1250  0.00  0.00     0.000 OA
ATOM     18   O  NGY C   1      16.522  15.668  43.6380  0.00  0.00     0.000 O
ATOM     19   S  NGY C   1      17.319  16.487  42.5600  0.00  0.00     0.000 S
ATOM     20   O  NGY C   1      17.687  15.569  41.5140  0.00  0.00     0.000 OA
ATOM     21   O  NGY C   1      18.457  17.032  43.2820  0.00  0.00     0.000 OA
ENDBRANCH 5 16
BRANCH 1 22
ATOM     22  O4  BDP C   2      14.132  13.060  46.5320  0.00  0.00     0.000 O
BRANCH 22 26
ATOM     23  C1  BDP C   2      10.363  13.202  44.8770  0.00  0.00     0.000 C
ATOM     24  C2  BDP C   2      11.115  11.908  44.6710  0.00  0.00     0.000 C
ATOM     25  C3  BDP C   2      12.289  11.851  45.6120  0.00  0.00     0.000 C
ATOM     26  C4  BDP C   2      13.143  13.106  45.4690  0.00  0.00     0.000 C
ATOM     27  C5  BDP C   2      12.256  14.343  45.5180  0.00  0.00     0.000 C
ATOM     28  O5  BDP C   2      11.212  14.325  44.5100  0.00  0.00     0.000 O
ATOM     29   O  BDP C   2      10.340  10.764  45.0290  0.00  0.00     0.000 O
ATOM     31  HD  BDP C   2      10.768  10.104  45.3910  0.00  0.00     0.000 HD
ATOM     31   O  BDP C   2      13.048  10.701  45.2570  0.00  0.00     0.000 O
ATOM     33  HD  BDP C   2      13.476  10.041  45.6190  0.00  0.00     0.000 HD
BRANCH 27 33
ATOM     33   C  BDP C   2      13.030  15.619  45.2840  0.00  0.00     0.000 C
ATOM     34   O  BDP C   2      13.267  16.432  46.2090  0.00  0.00     0.000 OA
ATOM     35   O  BDP C   2      13.401  15.872  44.1500  0.00  0.00     0.000 OA
ENDBRANCH 27 33
BRANCH 23 36
ATOM     36  O4  SGN C   3       9.208  13.318  44.1810  0.00  0.00     0.000 O
BRANCH 36 40
ATOM     37  C1  SGN C   3       5.288  14.754  44.2260  0.00  0.00     0.000 C
ATOM     38  C2  SGN C   3       6.417  15.766  43.9720  0.00  0.00     0.000 C
ATOM     39  C3  SGN C   3       7.692  15.048  43.5560  0.00  0.00     0.000 C
ATOM     40  C4  SGN C   3       8.053  14.037  44.6230  0.00  0.00     0.000 C
ATOM     41  C5  SGN C   3       6.882  13.100  44.8220  0.00  0.00     0.000 C
ATOM     42  O5  SGN C   3       5.726  13.848  45.2270  0.00  0.00     0.000 O
ATOM     43   O  SGN C   3       8.733  16.003  43.3860  0.00  0.00     0.000 O
ATOM     45  HD  SGN C   3       9.070  15.235  43.6040  0.00  0.00     0.000 HD
BRANCH 38 47
ATOM     45   N  SGN C   3       5.566  16.827  44.5400  0.00  0.00     0.000 N
ATOM     47  HD  SGN C   3       6.123  16.178  44.6720  0.00  0.00     0.000 HD
ATOM     47   S  SGN C   3       5.087  17.864  43.4350  0.00  0.00     0.000 S
ATOM     48   O  SGN C   3       6.179  18.606  42.9120  0.00  0.00     0.000 OA
ATOM     49   O  SGN C   3       4.304  17.128  42.4960  0.00  0.00     0.000 OA
ATOM     50   O  SGN C   3       4.263  18.779  44.2230  0.00  0.00     0.000 OA
ENDBRANCH 38 47
BRANCH 41 51
ATOM     51   C  SGN C   3       7.116  12.036  45.8600  0.00  0.00     0.000 C
ATOM     52   O  SGN C   3       4.602  10.556  48.1780  0.00  0.00     0.000 OA
ATOM     53   O  SGN C   3       6.502   9.537  47.1380  0.00  0.00     0.000 OA
ATOM     54   O  SGN C   3       6.793  11.306  48.7350  0.00  0.00     0.000 OA
ATOM     55   O  SGN C   3       5.888  11.729  46.4830  0.00  0.00     0.000 O
ATOM     56   S  SGN C   3       5.954  10.685  47.7530  0.00  0.00     0.000 S
ENDBRANCH 41 51
BRANCH 37 57
ATOM     57  O4  IDS C   4       4.917  14.036  43.1380  0.00  0.00     0.000 O
BRANCH 57 61
ATOM     58  C1  IDS C   4       2.245  12.528  40.8890  0.00  0.00     0.000 C
ATOM     59  C2  IDS C   4       2.033  13.906  41.4310  0.00  0.00     0.000 C
ATOM     60  C3  IDS C   4       2.485  14.045  42.8870  0.00  0.00     0.000 C
ATOM     61  C4  IDS C   4       3.719  13.252  43.2960  0.00  0.00     0.000 C
ATOM     62  C5  IDS C   4       3.812  11.944  42.5020  0.00  0.00     0.000 C
ATOM     63  O5  IDS C   4       3.593  12.153  41.1140  0.00  0.00     0.000 O
ATOM     64   O  IDS C   4       1.390  13.595  43.6620  0.00  0.00     0.000 O
ATOM     66  HD  IDS C   4       1.591  12.860  44.0740  0.00  0.00     0.000 HD
BRANCH 59 66
ATOM     66   O  IDS C   4       2.788  14.914  40.6620  0.00  0.00     0.000 O
ATOM     67   S  IDS C   4       1.927  15.960  39.8260  0.00  0.00     0.000 S
ATOM     68   O  IDS C   4       1.225  16.699  40.8470  0.00  0.00     0.000 OA
ATOM     69   O  IDS C   4       2.900  16.728  39.0750  0.00  0.00     0.000 OA
ATOM     70   O  IDS C   4       1.012  15.195  38.9920  0.00  0.00     0.000 OA
ENDBRANCH 59 66
BRANCH 62 71
ATOM     71   C  IDS C   4       5.172  11.280  42.6060  0.00  0.00     0.000 C
ATOM     72   O  IDS C   4       6.058  11.579  41.8290  0.00  0.00     0.000 OA
ATOM     73   O  IDS C   4       5.320  10.356  43.4310  0.00  0.00     0.000 OA
ENDBRANCH 62 71
BRANCH 58 74
ATOM     74  O4  SGN C   5       1.250  11.640  41.1720  0.00  0.00     0.000 O
BRANCH 74 78
ATOM     75  C1  SGN C   5      -0.232   7.778  40.5950  0.00  0.00     0.000 C
ATOM     76  C2  SGN C   5       0.907   7.918  41.6230  0.00  0.00     0.000 C
ATOM     77  C3  SGN C   5       1.125   9.391  41.9940  0.00  0.00     0.000 C
ATOM     78  C4  SGN C   5       1.206  10.275  40.7570  0.00  0.00     0.000 C
ATOM     79  C5  SGN C   5      -0.006  10.023  39.8730  0.00  0.00     0.000 C
ATOM     80  O5  SGN C   5      -0.034   8.627  39.4730  0.00  0.00     0.000 O
ATOM     81   O  SGN C   5       2.316   9.502  42.7660  0.00  0.00     0.000 O
ATOM     83  HD  SGN C   5       2.542   8.896  43.3420  0.00  0.00     0.000 HD
BRANCH 76 85
ATOM     83   N  SGN C   5       1.169   6.495  41.8710  0.00  0.00     0.000 N
ATOM     85  HD  SGN C   5       0.950   5.719  42.1870  0.00  0.00     0.000 HD
ATOM     85   S  SGN C   5       0.872   5.615  43.1880  0.00  0.00     0.000 S
ATOM     86   O  SGN C   5       1.247   4.260  42.9740  0.00  0.00     0.000 OA
ATOM     87   O  SGN C   5       1.473   6.286  44.2840  0.00  0.00     0.000 OA
ATOM     88   O  SGN C   5      -0.646   5.766  43.1490  0.00  0.00     0.000 OA
ENDBRANCH 76 85
BRANCH 79 89
ATOM     89   C  SGN C   5      -0.029  10.878  38.6210  0.00  0.00     0.000 C
ATOM     90   O  SGN C   5      -1.345  10.826  38.0170  0.00  0.00     0.000 O
ATOM     91   S  SGN C   5      -1.829  12.139  37.2310  0.00  0.00     0.000 S
ATOM     92   O  SGN C   5      -1.664  13.242  38.1420  0.00  0.00     0.000 OA
ATOM     93   O  SGN C   5      -0.998  12.263  36.0610  0.00  0.00     0.000 OA
ATOM     94   O  SGN C   5      -3.203  11.852  36.9230  0.00  0.00     0.000 OA
ENDBRANCH 79 89
BRANCH 75 95
ATOM     95  O4  BDP C   6      -1.373   8.144  41.2520  0.00  0.00     0.000 O
BRANCH 95 99
ATOM     96  C1  BDP C   6      -5.356   6.762  40.4340  0.00  0.00     0.000 C
ATOM     97  C2  BDP C   6      -4.196   6.022  39.8280  0.00  0.00     0.000 C
ATOM     98  C3  BDP C   6      -2.837   6.339  40.4690  0.00  0.00     0.000 C
ATOM     99  C4  BDP C   6      -2.625   7.840  40.6020  0.00  0.00     0.000 C
ATOM    100  C5  BDP C   6      -3.883   8.443  41.2700  0.00  0.00     0.000 C
ATOM    101  O5  BDP C   6      -4.941   8.113  40.3560  0.00  0.00     0.000 O
BRANCH 100 102
ATOM    102   C  BDP C   6      -3.818   9.945  41.3830  0.00  0.00     0.000 C
ATOM    103   O  BDP C   6      -3.944  10.534  42.4660  0.00  0.00     0.000 OA
ATOM    104   O  BDP C   6      -3.619  10.576  40.3370  0.00  0.00     0.000 OA
ENDBRANCH 100 102
ENDBRANCH 95 99
ENDBRANCH 75 95
ENDBRANCH 74 78
ENDBRANCH 58 74
ENDBRANCH 57 61
ENDBRANCH 37 57
ENDBRANCH 36 40
ENDBRANCH 23 36
ENDBRANCH 22 26
ENDBRANCH 1 22
TORSDOF 20
ENDMDL
MODEL 34
REMARK VINA RESULT:      -6.8      7.585     16.437
ROOT
ATOM      1  C1  NGY C   1      -0.810  15.530  36.0560  0.00  0.00     0.000 C
ATOM      2  C2  NGY C   1      -1.525  16.858  35.8510  0.00  0.00     0.000 C
ATOM      3  C3  NGY C   1      -2.949  16.780  36.3930  0.00  0.00     0.000 C
ATOM      4  C4  NGY C   1      -3.642  15.598  35.7430  0.00  0.00     0.000 C
ATOM      5  C5  NGY C   1      -2.873  14.327  36.0930  0.00  0.00     0.000 C
ATOM      6  O5  NGY C   1      -1.537  14.436  35.5380  0.00  0.00     0.000 O
ATOM      7   O  NGY C   1      -3.618  18.004  36.1260  0.00  0.00     0.000 O
ATOM      9  HD  NGY C   1      -3.637  18.595  35.4920  0.00  0.00     0.000 HD
ATOM      9   O  NGY C   1      -4.988  15.492  36.1830  0.00  0.00     0.000 O
ATOM     11  HD  NGY C   1      -5.007  16.082  35.5500  0.00  0.00     0.000 HD
ENDROOT
BRANCH 2 13
ATOM     11   N  NGY C   1      -0.817  17.945  35.2170  0.00  0.00     0.000 N
ATOM     13  HD  NGY C   1      -0.771  18.487  35.8910  0.00  0.00     0.000 HD
ATOM     13   C  NGY C   1      -0.503  19.056  35.8820  0.00  0.00     0.000 C
ATOM     14   O  NGY C   1      -0.931  19.260  37.0190  0.00  0.00     0.000 OA
ATOM     15   C  NGY C   1       0.409  20.020  35.1870  0.00  0.00     0.000 C
ENDBRANCH 2 13
BRANCH 5 16
ATOM     16   C  NGY C   1      -3.442  13.065  35.5280  0.00  0.00     0.000 C
ATOM     17   O  NGY C   1      -2.285  11.507  32.4150  0.00  0.00     0.000 OA
ATOM     18   O  NGY C   1      -2.913  12.869  34.2140  0.00  0.00     0.000 O
ATOM     19   S  NGY C   1      -3.030  11.409  33.6450  0.00  0.00     0.000 S
ATOM     20   O  NGY C   1      -4.429  11.152  33.4190  0.00  0.00     0.000 OA
ATOM     21   O  NGY C   1      -2.443  10.566  34.6740  0.00  0.00     0.000 OA
ENDBRANCH 5 16
BRANCH 1 22
ATOM     22  O4  BDP C   2      -0.523  15.389  37.3680  0.00  0.00     0.000 O
BRANCH 22 26
ATOM     23  C1  BDP C   2       2.124  14.082  40.2400  0.00  0.00     0.000 C
ATOM     24  C2  BDP C   2       2.742  14.483  38.9220  0.00  0.00     0.000 C
ATOM     25  C3  BDP C   2       1.743  15.269  38.1140  0.00  0.00     0.000 C
ATOM     26  C4  BDP C   2       0.437  14.492  37.9870  0.00  0.00     0.000 C
ATOM     27  C5  BDP C   2       0.000  13.988  39.3560  0.00  0.00     0.000 C
ATOM     28  O5  BDP C   2       1.012  13.173  40.0020  0.00  0.00     0.000 O
ATOM     29   O  BDP C   2       3.831  15.391  39.0850  0.00  0.00     0.000 O
ATOM     31  HD  BDP C   2       3.921  16.002  38.4780  0.00  0.00     0.000 HD
ATOM     31   O  BDP C   2       2.318  15.472  36.8290  0.00  0.00     0.000 O
ATOM     33  HD  BDP C   2       2.407  16.083  36.2220  0.00  0.00     0.000 HD
BRANCH 27 33
ATOM     33   C  BDP C   2      -1.237  13.126  39.2870  0.00  0.00     0.000 C
ATOM     34   O  BDP C   2      -2.388  13.598  39.4500  0.00  0.00     0.000 OA
ATOM     35   O  BDP C   2      -1.101  11.928  39.0990  0.00  0.00     0.000 OA
ENDBRANCH 27 33
BRANCH 23 36
ATOM     36  O4  SGN C   3       2.964  13.480  41.1140  0.00  0.00     0.000 O
BRANCH 36 40
ATOM     37  C1  SGN C   3       4.195  13.280  45.0980  0.00  0.00     0.000 C
ATOM     38  C2  SGN C   3       2.971  12.446  44.6860  0.00  0.00     0.000 C
ATOM     39  C3  SGN C   3       2.923  12.282  43.1740  0.00  0.00     0.000 C
ATOM     40  C4  SGN C   3       2.930  13.653  42.5340  0.00  0.00     0.000 C
ATOM     41  C5  SGN C   3       4.151  14.408  43.0110  0.00  0.00     0.000 C
ATOM     42  O5  SGN C   3       4.115  14.535  44.4410  0.00  0.00     0.000 O
ATOM     43   O  SGN C   3       1.752  11.559  42.8180  0.00  0.00     0.000 O
ATOM     45  HD  SGN C   3       1.988  12.077  42.1660  0.00  0.00     0.000 HD
BRANCH 38 47
ATOM     45   N  SGN C   3       1.986  12.169  45.7470  0.00  0.00     0.000 N
ATOM     47  HD  SGN C   3       2.156  12.500  44.9650  0.00  0.00     0.000 HD
ATOM     47   S  SGN C   3       2.534  11.126  46.8140  0.00  0.00     0.000 S
ATOM     48   O  SGN C   3       2.719   9.842  46.2360  0.00  0.00     0.000 OA
ATOM     49   O  SGN C   3       3.676  11.726  47.4220  0.00  0.00     0.000 OA
ATOM     50   O  SGN C   3       1.412  11.037  47.7460  0.00  0.00     0.000 OA
ENDBRANCH 38 47
BRANCH 41 51
ATOM     51   C  SGN C   3       4.279  15.794  42.4400  0.00  0.00     0.000 C
ATOM     52   O  SGN C   3       1.623  18.397  42.2190  0.00  0.00     0.000 OA
ATOM     53   O  SGN C   3       3.977  18.649  42.5710  0.00  0.00     0.000 OA
ATOM     54   O  SGN C   3       3.145  17.759  40.5020  0.00  0.00     0.000 OA
ATOM     55   O  SGN C   3       3.050  16.468  42.5990  0.00  0.00     0.000 O
ATOM     56   S  SGN C   3       2.940  17.957  41.9070  0.00  0.00     0.000 S
ENDBRANCH 41 51
BRANCH 37 57
ATOM     57  O4  IDS C   4       5.391  12.718  44.7940  0.00  0.00     0.000 O
BRANCH 57 61
ATOM     58  C1  IDS C   4       8.833  12.406  46.3820  0.00  0.00     0.000 C
ATOM     59  C2  IDS C   4       7.692  12.871  47.2290  0.00  0.00     0.000 C
ATOM     60  C3  IDS C   4       6.758  13.831  46.4880  0.00  0.00     0.000 C
ATOM     61  C4  IDS C   4       6.540  13.561  45.0060  0.00  0.00     0.000 C
ATOM     62  C5  IDS C   4       7.794  12.945  44.3750  0.00  0.00     0.000 C
ATOM     63  O5  IDS C   4       8.318  11.889  45.1670  0.00  0.00     0.000 O
ATOM     64   O  IDS C   4       7.351  15.108  46.6250  0.00  0.00     0.000 O
ATOM     66  HD  IDS C   4       7.628  15.398  45.8580  0.00  0.00     0.000 HD
BRANCH 59 66
ATOM     66   O  IDS C   4       6.857  11.742  47.6810  0.00  0.00     0.000 O
ATOM     67   S  IDS C   4       6.872  11.427  49.2410  0.00  0.00     0.000 S
ATOM     68   O  IDS C   4       6.273  12.606  49.8200  0.00  0.00     0.000 OA
ATOM     69   O  IDS C   4       6.092  10.213  49.3850  0.00  0.00     0.000 OA
ATOM     70   O  IDS C   4       8.264  11.282  49.6380  0.00  0.00     0.000 OA
ENDBRANCH 59 66
BRANCH 62 71
ATOM     71   C  IDS C   4       7.538  12.342  43.0070  0.00  0.00     0.000 C
ATOM     72   O  IDS C   4       7.796  11.173  42.7980  0.00  0.00     0.000 OA
ATOM     73   O  IDS C   4       7.159  13.095  42.0880  0.00  0.00     0.000 OA
ENDBRANCH 62 71
BRANCH 58 74
ATOM     74  O4  SGN C   5       9.903  13.251  46.3450  0.00  0.00     0.000 O
BRANCH 74 78
ATOM     75  C1  SGN C   5      13.915  12.858  45.2530  0.00  0.00     0.000 C
ATOM     76  C2  SGN C   5      13.250  14.204  44.9100  0.00  0.00     0.000 C
ATOM     77  C3  SGN C   5      11.915  14.354  45.6510  0.00  0.00     0.000 C
ATOM     78  C4  SGN C   5      11.052  13.108  45.5100  0.00  0.00     0.000 C
ATOM     79  C5  SGN C   5      11.859  11.883  45.9130  0.00  0.00     0.000 C
ATOM     80  O5  SGN C   5      13.025  11.767  45.0560  0.00  0.00     0.000 O
ATOM     81   O  SGN C   5      11.232  15.496  45.1450  0.00  0.00     0.000 O
ATOM     83  HD  SGN C   5      11.657  16.215  44.9140  0.00  0.00     0.000 HD
BRANCH 76 85
ATOM     83   N  SGN C   5      14.661  14.608  44.8570  0.00  0.00     0.000 N
ATOM     85  HD  SGN C   5      15.301  15.177  44.9860  0.00  0.00     0.000 HD
ATOM     85   S  SGN C   5      15.304  16.023  44.4370  0.00  0.00     0.000 S
ATOM     86   O  SGN C   5      16.719  15.986  44.5760  0.00  0.00     0.000 OA
ATOM     87   O  SGN C   5      14.790  16.354  43.1560  0.00  0.00     0.000 OA
ATOM     88   O  SGN C   5      14.674  16.834  45.5660  0.00  0.00     0.000 OA
ENDBRANCH 76 85
BRANCH 79 89
ATOM     89   C  SGN C   5      11.075  10.589  45.8290  0.00  0.00     0.000 C
ATOM     90   O  SGN C   5      10.813  10.264  44.4420  0.00  0.00     0.000 O
ATOM     91   S  SGN C   5      10.727   8.705  44.0710  0.00  0.00     0.000 S
ATOM     92   O  SGN C   5      11.930   8.099  44.5790  0.00  0.00     0.000 OA
ATOM     93   O  SGN C   5       9.540   8.185  44.6990  0.00  0.00     0.000 OA
ATOM     94   O  SGN C   5      10.652   8.711  42.6350  0.00  0.00     0.000 OA
ENDBRANCH 79 89
BRANCH 75 95
ATOM     95  O4  BDP C   6      14.257  12.938  46.5740  0.00  0.00     0.000 O
BRANCH 95 99
ATOM     96  C1  BDP C   6      17.359  10.572  48.3700  0.00  0.00     0.000 C
ATOM     97  C2  BDP C   6      17.096  10.419  46.8980  0.00  0.00     0.000 C
ATOM     98  C3  BDP C   6      16.260  11.552  46.2830  0.00  0.00     0.000 C
ATOM     99  C4  BDP C   6      15.020  11.839  47.1170  0.00  0.00     0.000 C
ATOM    100  C5  BDP C   6      15.462  12.003  48.5900  0.00  0.00     0.000 C
ATOM    101  O5  BDP C   6      16.059  10.735  48.9060  0.00  0.00     0.000 O
BRANCH 100 102
ATOM    102   C  BDP C   6      14.299  12.215  49.5260  0.00  0.00     0.000 C
ATOM    103   O  BDP C   6      14.209  11.627  50.6130  0.00  0.00     0.000 OA
ATOM    104   O  BDP C   6      13.432  13.021  49.1670  0.00  0.00     0.000 OA
ENDBRANCH 100 102
ENDBRANCH 95 99
ENDBRANCH 75 95
ENDBRANCH 74 78
ENDBRANCH 58 74
ENDBRANCH 57 61
ENDBRANCH 37 57
ENDBRANCH 36 40
ENDBRANCH 23 36
ENDBRANCH 22 26
ENDBRANCH 1 22
TORSDOF 20
ENDMDL
MODEL 35
REMARK VINA RESULT:      -6.8     17.934     23.492
ROOT
ATOM      1  C1  NGY C   1      32.771  10.128  31.7540  0.00  0.00     0.000 C
ATOM      2  C2  NGY C   1      32.576  11.153  30.6460  0.00  0.00     0.000 C
ATOM      3  C3  NGY C   1      31.719  10.567  29.5280  0.00  0.00     0.000 C
ATOM      4  C4  NGY C   1      32.360   9.272  29.0670  0.00  0.00     0.000 C
ATOM      5  C5  NGY C   1      32.420   8.307  30.2480  0.00  0.00     0.000 C
ATOM      6  O5  NGY C   1      33.262   8.895  31.2730  0.00  0.00     0.000 O
ATOM      7   O  NGY C   1      31.612  11.515  28.4760  0.00  0.00     0.000 O
ATOM      9  HD  NGY C   1      32.117  12.109  28.1000  0.00  0.00     0.000 HD
ATOM      9   O  NGY C   1      31.623   8.693  28.0000  0.00  0.00     0.000 O
ATOM     11  HD  NGY C   1      32.129   9.287  27.6240  0.00  0.00     0.000 HD
ENDROOT
BRANCH 2 13
ATOM     11   N  NGY C   1      31.832  12.383  30.7840  0.00  0.00     0.000 N
ATOM     13  HD  NGY C   1      32.497  12.935  30.8510  0.00  0.00     0.000 HD
ATOM     13   C  NGY C   1      32.445  13.558  30.9250  0.00  0.00     0.000 C
ATOM     14   O  NGY C   1      33.665  13.624  31.0870  0.00  0.00     0.000 OA
ATOM     15   C  NGY C   1      31.583  14.780  30.8490  0.00  0.00     0.000 C
ENDBRANCH 2 13
BRANCH 5 16
ATOM     16   C  NGY C   1      33.022   6.972  29.9470  0.00  0.00     0.000 C
ATOM     17   O  NGY C   1      35.005   6.246  26.9470  0.00  0.00     0.000 OA
ATOM     18   O  NGY C   1      33.534   6.989  28.6110  0.00  0.00     0.000 O
ATOM     19   S  NGY C   1      34.579   5.866  28.2700  0.00  0.00     0.000 S
ATOM     20   O  NGY C   1      33.873   4.612  28.2790  0.00  0.00     0.000 OA
ATOM     21   O  NGY C   1      35.586   5.974  29.3130  0.00  0.00     0.000 OA
ENDBRANCH 5 16
BRANCH 1 22
ATOM     22  O4  BDP C   2      31.612   9.996  32.4320  0.00  0.00     0.000 O
BRANCH 22 26
ATOM     23  C1  BDP C   2      30.772   9.707  36.4540  0.00  0.00     0.000 C
ATOM     24  C2  BDP C   2      32.183   9.344  36.0570  0.00  0.00     0.000 C
ATOM     25  C3  BDP C   2      32.458   9.834  34.6600  0.00  0.00     0.000 C
ATOM     26  C4  BDP C   2      31.384   9.329  33.7020  0.00  0.00     0.000 C
ATOM     27  C5  BDP C   2      30.003   9.594  34.2880  0.00  0.00     0.000 C
ATOM     28  O5  BDP C   2      29.828   9.002  35.6010  0.00  0.00     0.000 O
ATOM     29   O  BDP C   2      33.162  10.017  36.8490  0.00  0.00     0.000 O
ATOM     31  HD  BDP C   2      33.890  10.256  36.4450  0.00  0.00     0.000 HD
ATOM     31   O  BDP C   2      33.729   9.320  34.2840  0.00  0.00     0.000 O
ATOM     33  HD  BDP C   2      34.457   9.559  33.8790  0.00  0.00     0.000 HD
BRANCH 27 33
ATOM     33   C  BDP C   2      28.895   9.029  33.4320  0.00  0.00     0.000 C
ATOM     34   O  BDP C   2      28.603   9.516  32.3130  0.00  0.00     0.000 OA
ATOM     35   O  BDP C   2      28.246   8.092  33.8660  0.00  0.00     0.000 OA
ENDBRANCH 27 33
BRANCH 23 36
ATOM     36  O4  SGN C   3      30.443   9.436  37.7390  0.00  0.00     0.000 O
BRANCH 36 40
ATOM     37  C1  SGN C   3      28.743  10.977  41.2260  0.00  0.00     0.000 C
ATOM     38  C2  SGN C   3      27.804  10.309  40.2090  0.00  0.00     0.000 C
ATOM     39  C3  SGN C   3      28.597   9.437  39.2460  0.00  0.00     0.000 C
ATOM     40  C4  SGN C   3      29.659  10.285  38.5810  0.00  0.00     0.000 C
ATOM     41  C5  SGN C   3      30.518  10.920  39.6520  0.00  0.00     0.000 C
ATOM     42  O5  SGN C   3      29.703  11.736  40.5070  0.00  0.00     0.000 O
ATOM     43   O  SGN C   3      27.712   8.879  38.2820  0.00  0.00     0.000 O
ATOM     45  HD  SGN C   3      28.507   8.953  37.9460  0.00  0.00     0.000 HD
BRANCH 38 47
ATOM     45   N  SGN C   3      26.754  11.167  40.7860  0.00  0.00     0.000 N
ATOM     47  HD  SGN C   3      27.438  11.089  40.2610  0.00  0.00     0.000 HD
ATOM     47   S  SGN C   3      25.606  10.318  41.4850  0.00  0.00     0.000 S
ATOM     48   O  SGN C   3      24.878   9.550  40.5380  0.00  0.00     0.000 OA
ATOM     49   O  SGN C   3      26.222   9.600  42.5530  0.00  0.00     0.000 OA
ATOM     50   O  SGN C   3      24.721  11.369  41.9830  0.00  0.00     0.000 OA
ENDBRANCH 38 47
BRANCH 41 51
ATOM     51   C  SGN C   3      31.623  11.791  39.1190  0.00  0.00     0.000 C
ATOM     52   O  SGN C   3      31.297  14.650  36.7530  0.00  0.00     0.000 OA
ATOM     53   O  SGN C   3      32.824  14.343  38.5710  0.00  0.00     0.000 OA
ATOM     54   O  SGN C   3      32.901  12.893  36.6590  0.00  0.00     0.000 OA
ATOM     55   O  SGN C   3      31.060  12.786  38.2920  0.00  0.00     0.000 O
ATOM     56   S  SGN C   3      32.121  13.758  37.4940  0.00  0.00     0.000 S
ENDBRANCH 41 51
BRANCH 37 57
ATOM     57  O4  IDS C   4      29.405  10.116  42.0370  0.00  0.00     0.000 O
BRANCH 57 61
ATOM     58  C1  IDS C   4      30.227   9.473  45.6950  0.00  0.00     0.000 C
ATOM     59  C2  IDS C   4      29.058  10.346  45.3640  0.00  0.00     0.000 C
ATOM     60  C3  IDS C   4      29.333  11.281  44.1850  0.00  0.00     0.000 C
ATOM     61  C4  IDS C   4      30.205  10.728  43.0660  0.00  0.00     0.000 C
ATOM     62  C5  IDS C   4      31.237   9.738  43.6200  0.00  0.00     0.000 C
ATOM     63  O5  IDS C   4      30.646   8.808  44.5160  0.00  0.00     0.000 O
ATOM     64   O  IDS C   4      29.986  12.405  44.7450  0.00  0.00     0.000 O
ATOM     66  HD  IDS C   4      30.806  12.447  44.4700  0.00  0.00     0.000 HD
BRANCH 59 66
ATOM     66   O  IDS C   4      27.872   9.548  44.9980  0.00  0.00     0.000 O
ATOM     67   S  IDS C   4      26.872   9.178  46.1790  0.00  0.00     0.000 S
ATOM     68   O  IDS C   4      26.361  10.463  46.5920  0.00  0.00     0.000 OA
ATOM     69   O  IDS C   4      25.892   8.296  45.5760  0.00  0.00     0.000 OA
ATOM     70   O  IDS C   4      27.660   8.550  47.2290  0.00  0.00     0.000 OA
ENDBRANCH 59 66
BRANCH 62 71
ATOM     71   C  IDS C   4      31.899   8.903  42.5410  0.00  0.00     0.000 C
ATOM     72   O  IDS C   4      32.687   9.416  41.7700  0.00  0.00     0.000 OA
ATOM     73   O  IDS C   4      31.538   7.718  42.4020  0.00  0.00     0.000 OA
ENDBRANCH 62 71
BRANCH 58 74
ATOM     74  O4  SGN C   5      31.162  10.046  46.5050  0.00  0.00     0.000 O
BRANCH 74 78
ATOM     75  C1  SGN C   5      33.886   9.480  49.6200  0.00  0.00     0.000 C
ATOM     76  C2  SGN C   5      34.335   8.987  48.2310  0.00  0.00     0.000 C
ATOM     77  C3  SGN C   5      33.422   9.550  47.1340  0.00  0.00     0.000 C
ATOM     78  C4  SGN C   5      31.951   9.367  47.4820  0.00  0.00     0.000 C
ATOM     79  C5  SGN C   5      31.684   9.931  48.8700  0.00  0.00     0.000 C
ATOM     80  O5  SGN C   5      32.504   9.231  49.8430  0.00  0.00     0.000 O
ATOM     81   O  SGN C   5      33.728   8.904  45.9020  0.00  0.00     0.000 O
ATOM     83  HD  SGN C   5      34.540   8.691  45.6910  0.00  0.00     0.000 HD
BRANCH 76 85
ATOM     83   N  SGN C   5      35.713   9.351  47.8750  0.00  0.00     0.000 N
ATOM     85  HD  SGN C   5      36.527   9.151  47.6570  0.00  0.00     0.000 HD
ATOM     85   S  SGN C   5      37.101   8.678  48.3390  0.00  0.00     0.000 S
ATOM     86   O  SGN C   5      38.201   9.326  47.7130  0.00  0.00     0.000 OA
ATOM     87   O  SGN C   5      37.095   8.641  49.7580  0.00  0.00     0.000 OA
ATOM     88   O  SGN C   5      36.845   7.315  47.7010  0.00  0.00     0.000 OA
ENDBRANCH 76 85
BRANCH 79 89
ATOM     89   C  SGN C   5      30.235   9.817  49.3000  0.00  0.00     0.000 C
ATOM     90   O  SGN C   5      30.079   8.699  50.2070  0.00  0.00     0.000 O
ATOM     91   S  SGN C   5      28.940   8.835  51.3300  0.00  0.00     0.000 S
ATOM     92   O  SGN C   5      29.182  10.084  52.0040  0.00  0.00     0.000 OA
ATOM     93   O  SGN C   5      27.671   8.812  50.6500  0.00  0.00     0.000 OA
ATOM     94   O  SGN C   5      29.159   7.684  52.1630  0.00  0.00     0.000 OA
ENDBRANCH 79 89
BRANCH 75 95
ATOM     95  O4  BDP C   6      34.117  10.826  49.6290  0.00  0.00     0.000 O
BRANCH 95 99
ATOM     96  C1  BDP C   6      35.203  13.513  52.8000  0.00  0.00     0.000 C
ATOM     97  C2  BDP C   6      35.882  12.175  52.7240  0.00  0.00     0.000 C
ATOM     98  C3  BDP C   6      35.721  11.458  51.3750  0.00  0.00     0.000 C
ATOM     99  C4  BDP C   6      34.268  11.452  50.9220  0.00  0.00     0.000 C
ATOM    100  C5  BDP C   6      33.730  12.899  51.0250  0.00  0.00     0.000 C
ATOM    101  O5  BDP C   6      33.873  13.212  52.4200  0.00  0.00     0.000 O
BRANCH 100 102
ATOM    102   C  BDP C   6      32.267  13.001  50.6730  0.00  0.00     0.000 C
ATOM    103   O  BDP C   6      31.876  13.512  49.6140  0.00  0.00     0.000 OA
ATOM    104   O  BDP C   6      31.462  12.538  51.4900  0.00  0.00     0.000 OA
ENDBRANCH 100 102
ENDBRANCH 95 99
ENDBRANCH 75 95
ENDBRANCH 74 78
ENDBRANCH 58 74
ENDBRANCH 57 61
ENDBRANCH 37 57
ENDBRANCH 36 40
ENDBRANCH 23 36
ENDBRANCH 22 26
ENDBRANCH 1 22
TORSDOF 20
ENDMDL
MODEL 36
REMARK VINA RESULT:      -6.8      6.637     10.277
ROOT
ATOM      1  C1  NGY C   1      15.162  12.696  46.9050  0.00  0.00     0.000 C
ATOM      2  C2  NGY C   1      15.734  12.761  48.3150  0.00  0.00     0.000 C
ATOM      3  C3  NGY C   1      16.673  13.955  48.4500  0.00  0.00     0.000 C
ATOM      4  C4  NGY C   1      17.724  13.859  47.3600  0.00  0.00     0.000 C
ATOM      5  C5  NGY C   1      17.027  13.886  46.0030  0.00  0.00     0.000 C
ATOM      6  O5  NGY C   1      16.164  12.723  45.9110  0.00  0.00     0.000 O
ATOM      7   O  NGY C   1      17.249  13.952  49.7480  0.00  0.00     0.000 O
ATOM      9  HD  NGY C   1      17.528  13.364  50.3200  0.00  0.00     0.000 HD
ATOM      9   O  NGY C   1      18.653  14.929  47.4540  0.00  0.00     0.000 O
ATOM     11  HD  NGY C   1      18.933  14.341  48.0260  0.00  0.00     0.000 HD
ENDROOT
BRANCH 2 13
ATOM     11   N  NGY C   1      15.675  12.601  49.7490  0.00  0.00     0.000 N
ATOM     13  HD  NGY C   1      14.891  12.238  49.8110  0.00  0.00     0.000 HD
ATOM     13   C  NGY C   1      14.613  12.065  50.3490  0.00  0.00     0.000 C
ATOM     14   O  NGY C   1      13.584  11.816  49.7190  0.00  0.00     0.000 OA
ATOM     15   C  NGY C   1      14.750  11.758  51.8090  0.00  0.00     0.000 C
ENDBRANCH 2 13
BRANCH 5 16
ATOM     16   C  NGY C   1      17.937  13.809  44.8190  0.00  0.00     0.000 C
ATOM     17   O  NGY C   1      18.125  10.921  42.5640  0.00  0.00     0.000 OA
ATOM     18   O  NGY C   1      17.908  12.475  44.3030  0.00  0.00     0.000 O
ATOM     19   S  NGY C   1      18.429  12.304  42.8310  0.00  0.00     0.000 S
ATOM     20   O  NGY C   1      19.845  12.561  42.8490  0.00  0.00     0.000 OA
ATOM     21   O  NGY C   1      17.672  13.277  42.0590  0.00  0.00     0.000 OA
ENDBRANCH 5 16
BRANCH 1 22
ATOM     22  O4  BDP C   2      14.258  13.687  46.7570  0.00  0.00     0.000 O
BRANCH 22 26
ATOM     23  C1  BDP C   2      10.649  14.225  44.8460  0.00  0.00     0.000 C
ATOM     24  C2  BDP C   2      11.380  12.948  44.5070  0.00  0.00     0.000 C
ATOM     25  C3  BDP C   2      12.468  12.703  45.5200  0.00  0.00     0.000 C
ATOM     26  C4  BDP C   2      13.365  13.930  45.6380  0.00  0.00     0.000 C
ATOM     27  C5  BDP C   2      12.512  15.181  45.8030  0.00  0.00     0.000 C
ATOM     28  O5  BDP C   2      11.558  15.355  44.7230  0.00  0.00     0.000 O
ATOM     29   O  BDP C   2      10.545  11.796  44.6250  0.00  0.00     0.000 O
ATOM     31  HD  BDP C   2      10.922  11.072  44.9150  0.00  0.00     0.000 HD
ATOM     31   O  BDP C   2      13.221  11.589  45.0570  0.00  0.00     0.000 O
ATOM     33  HD  BDP C   2      13.598  10.866  45.3480  0.00  0.00     0.000 HD
BRANCH 27 33
ATOM     33   C  BDP C   2      13.338  16.445  45.8280  0.00  0.00     0.000 C
ATOM     34   O  BDP C   2      13.199  17.313  46.7220  0.00  0.00     0.000 OA
ATOM     35   O  BDP C   2      14.138  16.633  44.9260  0.00  0.00     0.000 OA
ENDBRANCH 27 33
BRANCH 23 36
ATOM     36  O4  SGN C   3       9.562  14.491  44.0850  0.00  0.00     0.000 O
BRANCH 36 40
ATOM     37  C1  SGN C   3       5.696  16.068  44.0900  0.00  0.00     0.000 C
ATOM     38  C2  SGN C   3       6.861  17.033  43.8150  0.00  0.00     0.000 C
ATOM     39  C3  SGN C   3       8.110  16.260  43.4180  0.00  0.00     0.000 C
ATOM     40  C4  SGN C   3       8.433  15.261  44.5080  0.00  0.00     0.000 C
ATOM     41  C5  SGN C   3       7.229  14.371  44.7270  0.00  0.00     0.000 C
ATOM     42  O5  SGN C   3       6.100  15.171  45.1130  0.00  0.00     0.000 O
ATOM     43   O  SGN C   3       9.185  17.172  43.2280  0.00  0.00     0.000 O
ATOM     45  HD  SGN C   3       9.493  16.397  43.4640  0.00  0.00     0.000 HD
BRANCH 38 47
ATOM     45   N  SGN C   3       6.013  18.113  44.3490  0.00  0.00     0.000 N
ATOM     47  HD  SGN C   3       6.547  17.450  44.5030  0.00  0.00     0.000 HD
ATOM     47   S  SGN C   3       5.608  19.164  43.2270  0.00  0.00     0.000 S
ATOM     48   O  SGN C   3       6.740  19.879  42.7540  0.00  0.00     0.000 OA
ATOM     49   O  SGN C   3       4.849  18.450  42.2530  0.00  0.00     0.000 OA
ATOM     50   O  SGN C   3       4.773  20.098  43.9810  0.00  0.00     0.000 OA
ENDBRANCH 38 47
BRANCH 41 51
ATOM     51   C  SGN C   3       7.423  13.324  45.7900  0.00  0.00     0.000 C
ATOM     52   O  SGN C   3       7.754   9.646  45.2970  0.00  0.00     0.000 OA
ATOM     53   O  SGN C   3       8.782  11.064  46.9300  0.00  0.00     0.000 OA
ATOM     54   O  SGN C   3       6.400  10.756  46.9120  0.00  0.00     0.000 OA
ATOM     55   O  SGN C   3       7.551  12.064  45.1700  0.00  0.00     0.000 O
ATOM     56   S  SGN C   3       7.628  10.761  46.1730  0.00  0.00     0.000 S
ENDBRANCH 41 51
BRANCH 37 57
ATOM     57  O4  IDS C   4       5.301  15.338  43.0190  0.00  0.00     0.000 O
BRANCH 57 61
ATOM     58  C1  IDS C   4       2.510  13.983  40.8180  0.00  0.00     0.000 C
ATOM     59  C2  IDS C   4       2.366  15.355  41.3960  0.00  0.00     0.000 C
ATOM     60  C3  IDS C   4       2.865  15.444  42.8400  0.00  0.00     0.000 C
ATOM     61  C4  IDS C   4       4.079  14.596  43.1950  0.00  0.00     0.000 C
ATOM     62  C5  IDS C   4       4.099  13.304  42.3700  0.00  0.00     0.000 C
ATOM     63  O5  IDS C   4       3.848  13.553  40.9940  0.00  0.00     0.000 O
ATOM     64   O  IDS C   4       1.776  15.018  43.6370  0.00  0.00     0.000 O
ATOM     66  HD  IDS C   4       1.961  14.267  44.0270  0.00  0.00     0.000 HD
BRANCH 59 66
ATOM     66   O  IDS C   4       3.135  16.351  40.6260  0.00  0.00     0.000 O
ATOM     67   S  IDS C   4       2.291  17.434  39.8220  0.00  0.00     0.000 S
ATOM     68   O  IDS C   4       1.631  18.179  40.8670  0.00  0.00     0.000 OA
ATOM     69   O  IDS C   4       3.273  18.185  39.0630  0.00  0.00     0.000 OA
ATOM     70   O  IDS C   4       1.338  16.710  38.9950  0.00  0.00     0.000 OA
ENDBRANCH 59 66
BRANCH 62 71
ATOM     71   C  IDS C   4       5.435  12.588  42.4190  0.00  0.00     0.000 C
ATOM     72   O  IDS C   4       6.342  12.937  41.6890  0.00  0.00     0.000 OA
ATOM     73   O  IDS C   4       5.541  11.578  43.1440  0.00  0.00     0.000 OA
ENDBRANCH 62 71
BRANCH 58 74
ATOM     74  O4  SGN C   5       1.490  13.126  41.1110  0.00  0.00     0.000 O
BRANCH 74 78
ATOM     75  C1  SGN C   5      -0.627   9.768  39.8130  0.00  0.00     0.000 C
ATOM     76  C2  SGN C   5       0.469   9.511  40.8660  0.00  0.00     0.000 C
ATOM     77  C3  SGN C   5       0.927  10.829  41.5040  0.00  0.00     0.000 C
ATOM     78  C4  SGN C   5       1.224  11.888  40.4510  0.00  0.00     0.000 C
ATOM     79  C5  SGN C   5       0.030  12.025  39.5180  0.00  0.00     0.000 C
ATOM     80  O5  SGN C   5      -0.227  10.752  38.8690  0.00  0.00     0.000 O
ATOM     81   O  SGN C   5       2.080  10.580  42.3010  0.00  0.00     0.000 O
ATOM     83  HD  SGN C   5       2.166   9.850  42.7590  0.00  0.00     0.000 HD
BRANCH 76 85
ATOM     83   N  SGN C   5       0.864   8.253  41.5110  0.00  0.00     0.000 N
ATOM     85  HD  SGN C   5       0.809   7.395  41.6170  0.00  0.00     0.000 HD
ATOM     85   S  SGN C   5      -0.051   7.013  41.9800  0.00  0.00     0.000 S
ATOM     86   O  SGN C   5       0.757   5.976  42.5220  0.00  0.00     0.000 OA
ATOM     87   O  SGN C   5      -1.073   7.538  42.8130  0.00  0.00     0.000 OA
ATOM     88   O  SGN C   5      -0.546   6.636  40.5860  0.00  0.00     0.000 OA
ENDBRANCH 76 85
BRANCH 79 89
ATOM     89   C  SGN C   5       0.219  13.078  38.4450  0.00  0.00     0.000 C
ATOM     90   O  SGN C   5      -0.877  13.018  37.5000  0.00  0.00     0.000 O
ATOM     91   S  SGN C   5      -1.308  14.400  36.8070  0.00  0.00     0.000 S
ATOM     92   O  SGN C   5      -1.530  15.338  37.8760  0.00  0.00     0.000 OA
ATOM     93   O  SGN C   5      -0.227  14.795  35.9430  0.00  0.00     0.000 OA
ATOM     94   O  SGN C   5      -2.507  14.051  36.0940  0.00  0.00     0.000 OA
ENDBRANCH 79 89
BRANCH 75 95
ATOM     95  O4  BDP C   6      -1.714  10.215  40.5090  0.00  0.00     0.000 O
BRANCH 95 99
ATOM     96  C1  BDP C   6      -5.896   9.536  39.8020  0.00  0.00     0.000 C
ATOM     97  C2  BDP C   6      -4.912   8.481  39.3790  0.00  0.00     0.000 C
ATOM     98  C3  BDP C   6      -3.516   8.630  40.0040  0.00  0.00     0.000 C
ATOM     99  C4  BDP C   6      -3.003  10.056  39.8770  0.00  0.00     0.000 C
ATOM    100  C5  BDP C   6      -4.110  11.010  40.3820  0.00  0.00     0.000 C
ATOM    101  O5  BDP C   6      -5.214  10.739  39.5030  0.00  0.00     0.000 O
BRANCH 100 102
ATOM    102   C  BDP C   6      -3.740  12.463  40.2290  0.00  0.00     0.000 C
ATOM    103   O  BDP C   6      -3.800  13.051  39.1400  0.00  0.00     0.000 OA
ATOM    104   O  BDP C   6      -3.382  13.059  41.2520  0.00  0.00     0.000 OA
ENDBRANCH 100 102
ENDBRANCH 95 99
ENDBRANCH 75 95
ENDBRANCH 74 78
ENDBRANCH 58 74
ENDBRANCH 57 61
ENDBRANCH 37 57
ENDBRANCH 36 40
ENDBRANCH 23 36
ENDBRANCH 22 26
ENDBRANCH 1 22
TORSDOF 20
ENDMDL
MODEL 37
REMARK VINA RESULT:      -6.6      3.711     16.128
ROOT
ATOM      1  C1  NGY C   1       5.673  14.194  49.0480  0.00  0.00     0.000 C
ATOM      2  C2  NGY C   1       4.751  13.952  50.2350  0.00  0.00     0.000 C
ATOM      3  C3  NGY C   1       4.461  12.461  50.3830  0.00  0.00     0.000 C
ATOM      4  C4  NGY C   1       3.918  11.949  49.0630  0.00  0.00     0.000 C
ATOM      5  C5  NGY C   1       4.968  12.177  47.9800  0.00  0.00     0.000 C
ATOM      6  O5  NGY C   1       5.193  13.605  47.8580  0.00  0.00     0.000 O
ATOM      7   O  NGY C   1       3.543  12.269  51.4500  0.00  0.00     0.000 O
ATOM      9  HD  NGY C   1       2.855  12.678  51.7800  0.00  0.00     0.000 HD
ATOM      9   O  NGY C   1       3.595  10.568  49.1480  0.00  0.00     0.000 O
ATOM     11  HD  NGY C   1       2.907  10.978  49.4780  0.00  0.00     0.000 HD
ENDROOT
BRANCH 2 13
ATOM     11   N  NGY C   1       4.412  15.141  50.9800  0.00  0.00     0.000 N
ATOM     13  HD  NGY C   1       4.706  14.901  51.7580  0.00  0.00     0.000 HD
ATOM     13   C  NGY C   1       4.677  15.250  52.2810  0.00  0.00     0.000 C
ATOM     14   O  NGY C   1       5.090  14.287  52.9290  0.00  0.00     0.000 OA
ATOM     15   C  NGY C   1       4.473  16.600  52.8980  0.00  0.00     0.000 C
ENDBRANCH 2 13
BRANCH 5 16
ATOM     16   C  NGY C   1       4.581  11.711  46.6120  0.00  0.00     0.000 C
ATOM     17   O  NGY C   1       5.237   8.336  45.3340  0.00  0.00     0.000 OA
ATOM     18   O  NGY C   1       5.177  10.433  46.3760  0.00  0.00     0.000 O
ATOM     19   S  NGY C   1       4.542   9.592  45.2110  0.00  0.00     0.000 S
ATOM     20   O  NGY C   1       4.851  10.271  43.9800  0.00  0.00     0.000 OA
ATOM     21   O  NGY C   1       3.121   9.559  45.5150  0.00  0.00     0.000 OA
ENDBRANCH 5 16
BRANCH 1 22
ATOM     22  O4  BDP C   2       6.915  13.774  49.3710  0.00  0.00     0.000 O
BRANCH 22 26
ATOM     23  C1  BDP C   2      11.013  14.074  49.0840  0.00  0.00     0.000 C
ATOM     24  C2  BDP C   2      10.296  15.337  49.4970  0.00  0.00     0.000 C
ATOM     25  C3  BDP C   2       8.887  15.006  49.9140  0.00  0.00     0.000 C
ATOM     26  C4  BDP C   2       8.184  14.213  48.8180  0.00  0.00     0.000 C
ATOM     27  C5  BDP C   2       9.075  13.066  48.3580  0.00  0.00     0.000 C
ATOM     28  O5  BDP C   2      10.376  13.516  47.9000  0.00  0.00     0.000 O
ATOM     29   O  BDP C   2      10.864  15.927  50.6670  0.00  0.00     0.000 O
ATOM     31  HD  BDP C   2      10.312  16.306  51.2160  0.00  0.00     0.000 HD
ATOM     31   O  BDP C   2       8.218  16.243  50.1280  0.00  0.00     0.000 O
ATOM     33  HD  BDP C   2       7.666  16.621  50.6780  0.00  0.00     0.000 HD
BRANCH 27 33
ATOM     33   C  BDP C   2       8.477  12.298  47.2040  0.00  0.00     0.000 C
ATOM     34   O  BDP C   2       8.028  12.873  46.1830  0.00  0.00     0.000 OA
ATOM     35   O  BDP C   2       8.403  11.083  47.2910  0.00  0.00     0.000 OA
ENDBRANCH 27 33
BRANCH 23 36
ATOM     36  O4  SGN C   3      12.330  14.218  48.8100  0.00  0.00     0.000 O
BRANCH 36 40
ATOM     37  C1  SGN C   3      16.100  12.434  49.0130  0.00  0.00     0.000 C
ATOM     38  C2  SGN C   3      14.972  11.645  48.3290  0.00  0.00     0.000 C
ATOM     39  C3  SGN C   3      13.826  12.572  47.9520  0.00  0.00     0.000 C
ATOM     40  C4  SGN C   3      13.353  13.295  49.1950  0.00  0.00     0.000 C
ATOM     41  C5  SGN C   3      14.527  14.022  49.8120  0.00  0.00     0.000 C
ATOM     42  O5  SGN C   3      15.556  13.080  50.1540  0.00  0.00     0.000 O
ATOM     43   O  SGN C   3      12.774  11.807  47.3760  0.00  0.00     0.000 O
ATOM     45  HD  SGN C   3      12.451  12.519  47.7490  0.00  0.00     0.000 HD
BRANCH 38 47
ATOM     45   N  SGN C   3      15.681  11.102  47.1570  0.00  0.00     0.000 N
ATOM     47  HD  SGN C   3      15.338  11.787  47.5610  0.00  0.00     0.000 HD
ATOM     47   S  SGN C   3      16.249   9.642  47.4250  0.00  0.00     0.000 S
ATOM     48   O  SGN C   3      17.271   9.657  48.4110  0.00  0.00     0.000 OA
ATOM     49   O  SGN C   3      15.123   8.806  47.6820  0.00  0.00     0.000 OA
ATOM     50   O  SGN C   3      16.873   9.326  46.1410  0.00  0.00     0.000 OA
ENDBRANCH 38 47
BRANCH 41 51
ATOM     51   C  SGN C   3      14.188  14.790  51.0610  0.00  0.00     0.000 C
ATOM     52   O  SGN C   3      14.454  18.468  51.5890  0.00  0.00     0.000 OA
ATOM     53   O  SGN C   3      12.863  16.913  52.4720  0.00  0.00     0.000 OA
ATOM     54   O  SGN C   3      15.182  16.754  53.0740  0.00  0.00     0.000 OA
ATOM     55   O  SGN C   3      14.386  16.165  50.8180  0.00  0.00     0.000 O
ATOM     56   S  SGN C   3      14.205  17.168  52.1110  0.00  0.00     0.000 S
ENDBRANCH 41 51
BRANCH 37 57
ATOM     57  O4  IDS C   4      16.686  13.375  48.2330  0.00  0.00     0.000 O
BRANCH 57 61
ATOM     58  C1  IDS C   4      19.663  14.663  46.2460  0.00  0.00     0.000 C
ATOM     59  C2  IDS C   4      19.335  13.206  46.1830  0.00  0.00     0.000 C
ATOM     60  C3  IDS C   4      18.910  12.635  47.5390  0.00  0.00     0.000 C
ATOM     61  C4  IDS C   4      18.100  13.556  48.4410  0.00  0.00     0.000 C
ATOM     62  C5  IDS C   4      18.502  15.019  48.2270  0.00  0.00     0.000 C
ATOM     63  O5  IDS C   4      18.578  15.349  46.8480  0.00  0.00     0.000 O
ATOM     64   O  IDS C   4      20.118  12.312  48.2020  0.00  0.00     0.000 O
ATOM     66  HD  IDS C   4      20.234  12.827  48.8890  0.00  0.00     0.000 HD
BRANCH 59 66
ATOM     66   O  IDS C   4      18.222  12.940  45.2510  0.00  0.00     0.000 O
ATOM     67   S  IDS C   4      18.596  12.208  43.8890  0.00  0.00     0.000 S
ATOM     68   O  IDS C   4      19.051  10.910  44.3270  0.00  0.00     0.000 OA
ATOM     69   O  IDS C   4      17.366  12.197  43.1210  0.00  0.00     0.000 OA
ATOM     70   O  IDS C   4      19.668  12.972  43.2700  0.00  0.00     0.000 OA
ENDBRANCH 59 66
BRANCH 62 71
ATOM     71   C  IDS C   4      17.515  16.002  48.8290  0.00  0.00     0.000 C
ATOM     72   O  IDS C   4      16.819  16.687  48.1050  0.00  0.00     0.000 OA
ATOM     73   O  IDS C   4      17.514  16.159  50.0660  0.00  0.00     0.000 OA
ENDBRANCH 62 71
BRANCH 58 74
ATOM     74  O4  SGN C   5      20.935  14.950  46.6460  0.00  0.00     0.000 O
BRANCH 74 78
ATOM     75  C1  SGN C   5      24.306  17.351  46.0860  0.00  0.00     0.000 C
ATOM     76  C2  SGN C   5      23.067  18.052  46.6750  0.00  0.00     0.000 C
ATOM     77  C3  SGN C   5      22.034  17.021  47.1470  0.00  0.00     0.000 C
ATOM     78  C4  SGN C   5      21.779  15.957  46.0890  0.00  0.00     0.000 C
ATOM     79  C5  SGN C   5      23.105  15.357  45.6430  0.00  0.00     0.000 C
ATOM     80  O5  SGN C   5      23.948  16.402  45.0900  0.00  0.00     0.000 O
ATOM     81   O  SGN C   5      20.824  17.697  47.4770  0.00  0.00     0.000 O
ATOM     83  HD  SGN C   5      20.828  18.477  47.8530  0.00  0.00     0.000 HD
BRANCH 76 85
ATOM     83   N  SGN C   5      22.867  19.331  47.3680  0.00  0.00     0.000 N
ATOM     85  HD  SGN C   5      23.037  20.170  47.4930  0.00  0.00     0.000 HD
ATOM     85   S  SGN C   5      23.954  20.426  47.8290  0.00  0.00     0.000 S
ATOM     86   O  SGN C   5      23.311  21.542  48.4310  0.00  0.00     0.000 OA
ATOM     87   O  SGN C   5      24.930  19.747  48.6040  0.00  0.00     0.000 OA
ATOM     88   O  SGN C   5      24.439  20.778  46.4240  0.00  0.00     0.000 OA
ENDBRANCH 76 85
BRANCH 79 89
ATOM     89   C  SGN C   5      22.955  14.266  44.6030  0.00  0.00     0.000 C
ATOM     90   O  SGN C   5      23.955  14.434  43.5690  0.00  0.00     0.000 O
ATOM     91   S  SGN C   5      24.491  13.097  42.8600  0.00  0.00     0.000 S
ATOM     92   O  SGN C   5      24.909  12.215  43.9180  0.00  0.00     0.000 OA
ATOM     93   O  SGN C   5      23.397  12.557  42.0940  0.00  0.00     0.000 OA
ATOM     94   O  SGN C   5      25.577  13.568  42.0440  0.00  0.00     0.000 OA
ENDBRANCH 79 89
BRANCH 75 95
ATOM     95  O4  BDP C   6      24.905  16.712  47.1350  0.00  0.00     0.000 O
BRANCH 95 99
ATOM     96  C1  BDP C   6      29.151  16.504  47.7450  0.00  0.00     0.000 C
ATOM     97  C2  BDP C   6      28.626  17.334  46.6080  0.00  0.00     0.000 C
ATOM     98  C3  BDP C   6      27.126  17.656  46.6990  0.00  0.00     0.000 C
ATOM     99  C4  BDP C   6      26.310  16.407  46.9950  0.00  0.00     0.000 C
ATOM    100  C5  BDP C   6      26.955  15.690  48.2040  0.00  0.00     0.000 C
ATOM    101  O5  BDP C   6      28.282  15.386  47.7460  0.00  0.00     0.000 O
BRANCH 100 102
ATOM    102   C  BDP C   6      26.271  14.389  48.5410  0.00  0.00     0.000 C
ATOM    103   O  BDP C   6      26.889  13.317  48.6190  0.00  0.00     0.000 OA
ATOM    104   O  BDP C   6      25.054  14.436  48.7530  0.00  0.00     0.000 OA
ENDBRANCH 100 102
ENDBRANCH 95 99
ENDBRANCH 75 95
ENDBRANCH 74 78
ENDBRANCH 58 74
ENDBRANCH 57 61
ENDBRANCH 37 57
ENDBRANCH 36 40
ENDBRANCH 23 36
ENDBRANCH 22 26
ENDBRANCH 1 22
TORSDOF 20
ENDMDL
MODEL 38
REMARK VINA RESULT:      -6.6     18.509     23.027
ROOT
ATOM      1  C1  NGY C   1      34.040   5.329  36.5770  0.00  0.00     0.000 C
ATOM      2  C2  NGY C   1      35.261   5.501  35.6830  0.00  0.00     0.000 C
ATOM      3  C3  NGY C   1      35.093   6.727  34.7900  0.00  0.00     0.000 C
ATOM      4  C4  NGY C   1      33.786   6.588  34.0320  0.00  0.00     0.000 C
ATOM      5  C5  NGY C   1      32.642   6.507  35.0390  0.00  0.00     0.000 C
ATOM      6  O5  NGY C   1      32.831   5.317  35.8480  0.00  0.00     0.000 O
ATOM      7   O  NGY C   1      36.209   6.825  33.9170  0.00  0.00     0.000 O
ATOM      9  HD  NGY C   1      36.727   6.284  33.4820  0.00  0.00     0.000 HD
ATOM      9   O  NGY C   1      33.588   7.686  33.1550  0.00  0.00     0.000 O
ATOM     11  HD  NGY C   1      34.107   7.146  32.7200  0.00  0.00     0.000 HD
ENDROOT
BRANCH 2 13
ATOM     11   N  NGY C   1      36.683   5.752  35.6750  0.00  0.00     0.000 N
ATOM     13  HD  NGY C   1      36.946   5.048  36.1050  0.00  0.00     0.000 HD
ATOM     13   C  NGY C   1      37.543   4.910  36.2450  0.00  0.00     0.000 C
ATOM     14   O  NGY C   1      37.150   3.960  36.9240  0.00  0.00     0.000 OA
ATOM     15   C  NGY C   1      38.999   5.164  35.9950  0.00  0.00     0.000 C
ENDBRANCH 2 13
BRANCH 5 16
ATOM     16   C  NGY C   1      31.278   6.376  34.4410  0.00  0.00     0.000 C
ATOM     17   O  NGY C   1      29.173   9.228  33.4930  0.00  0.00     0.000 OA
ATOM     18   O  NGY C   1      30.668   7.669  34.4010  0.00  0.00     0.000 O
ATOM     19   S  NGY C   1      29.448   7.815  33.4210  0.00  0.00     0.000 S
ATOM     20   O  NGY C   1      28.374   7.020  33.9570  0.00  0.00     0.000 OA
ATOM     21   O  NGY C   1      29.945   7.333  32.1430  0.00  0.00     0.000 OA
ENDBRANCH 5 16
BRANCH 1 22
ATOM     22  O4  BDP C   2      34.062   6.283  37.5310  0.00  0.00     0.000 O
BRANCH 22 26
ATOM     23  C1  BDP C   2      33.029   7.702  41.2570  0.00  0.00     0.000 C
ATOM     24  C2  BDP C   2      34.105   6.642  41.2410  0.00  0.00     0.000 C
ATOM     25  C3  BDP C   2      34.637   6.483  39.8410  0.00  0.00     0.000 C
ATOM     26  C4  BDP C   2      33.491   6.233  38.8650  0.00  0.00     0.000 C
ATOM     27  C5  BDP C   2      32.387   7.258  39.0920  0.00  0.00     0.000 C
ATOM     28  O5  BDP C   2      31.896   7.261  40.4570  0.00  0.00     0.000 O
ATOM     29   O  BDP C   2      35.255   7.023  41.9960  0.00  0.00     0.000 O
ATOM     31  HD  BDP C   2      36.023   6.769  41.6870  0.00  0.00     0.000 HD
ATOM     31   O  BDP C   2      35.517   5.367  39.8570  0.00  0.00     0.000 O
ATOM     33  HD  BDP C   2      36.285   5.112  39.5480  0.00  0.00     0.000 HD
BRANCH 27 33
ATOM     33   C  BDP C   2      31.179   7.006  38.2220  0.00  0.00     0.000 C
ATOM     34   O  BDP C   2      30.707   5.855  38.0550  0.00  0.00     0.000 OA
ATOM     35   O  BDP C   2      30.674   7.952  37.6420  0.00  0.00     0.000 OA
ENDBRANCH 27 33
BRANCH 23 36
ATOM     36  O4  SGN C   3      32.560   8.033  42.4830  0.00  0.00     0.000 O
BRANCH 36 40
ATOM     37  C1  SGN C   3      31.111  11.107  44.9070  0.00  0.00     0.000 C
ATOM     38  C2  SGN C   3      30.170  10.544  43.8300  0.00  0.00     0.000 C
ATOM     39  C3  SGN C   3      30.663   9.186  43.3500  0.00  0.00     0.000 C
ATOM     40  C4  SGN C   3      32.086   9.330  42.8560  0.00  0.00     0.000 C
ATOM     41  C5  SGN C   3      32.932   9.910  43.9680  0.00  0.00     0.000 C
ATOM     42  O5  SGN C   3      32.414  11.193  44.3530  0.00  0.00     0.000 O
ATOM     43   O  SGN C   3      29.809   8.717  42.3140  0.00  0.00     0.000 O
ATOM     45  HD  SGN C   3      30.602   8.384  42.2160  0.00  0.00     0.000 HD
BRANCH 38 47
ATOM     45   N  SGN C   3      29.557  11.867  44.0430  0.00  0.00     0.000 N
ATOM     47  HD  SGN C   3      30.227  11.402  43.7530  0.00  0.00     0.000 HD
ATOM     47   S  SGN C   3      28.007  11.759  44.3780  0.00  0.00     0.000 S
ATOM     48   O  SGN C   3      27.270  11.265  43.2690  0.00  0.00     0.000 OA
ATOM     49   O  SGN C   3      27.901  11.024  45.5960  0.00  0.00     0.000 OA
ATOM     50   O  SGN C   3      27.645  13.164  44.5630  0.00  0.00     0.000 OA
ENDBRANCH 38 47
BRANCH 41 51
ATOM     51   C  SGN C   3      34.380  10.099  43.6050  0.00  0.00     0.000 C
ATOM     52   O  SGN C   3      35.745  11.913  40.6510  0.00  0.00     0.000 OA
ATOM     53   O  SGN C   3      36.636  11.716  42.8640  0.00  0.00     0.000 OA
ATOM     54   O  SGN C   3      36.428   9.780  41.4600  0.00  0.00     0.000 OA
ATOM     55   O  SGN C   3      34.457  10.888  42.4380  0.00  0.00     0.000 O
ATOM     56   S  SGN C   3      35.958  11.091  41.7940  0.00  0.00     0.000 S
ENDBRANCH 41 51
BRANCH 37 57
ATOM     57  O4  IDS C   4      31.180  10.367  46.0410  0.00  0.00     0.000 O
BRANCH 57 61
ATOM     58  C1  IDS C   4      30.687   9.870  49.7800  0.00  0.00     0.000 C
ATOM     59  C2  IDS C   4      29.592  10.515  48.9910  0.00  0.00     0.000 C
ATOM     60  C3  IDS C   4      30.118  11.490  47.9350  0.00  0.00     0.000 C
ATOM     61  C4  IDS C   4      31.424  11.112  47.2490  0.00  0.00     0.000 C
ATOM     62  C5  IDS C   4      32.331  10.326  48.2040  0.00  0.00     0.000 C
ATOM     63  O5  IDS C   4      31.621   9.299  48.8800  0.00  0.00     0.000 O
ATOM     64   O  IDS C   4      30.313  12.712  48.6220  0.00  0.00     0.000 O
ATOM     66  HD  IDS C   4      31.157  12.906  48.6630  0.00  0.00     0.000 HD
BRANCH 59 66
ATOM     66   O  IDS C   4      28.782   9.514  48.2690  0.00  0.00     0.000 O
ATOM     67   S  IDS C   4      27.312   9.258  48.8200  0.00  0.00     0.000 S
ATOM     68   O  IDS C   4      26.652  10.523  48.5970  0.00  0.00     0.000 OA
ATOM     69   O  IDS C   4      26.803   8.156  48.0280  0.00  0.00     0.000 OA
ATOM     70   O  IDS C   4      27.430   8.957  50.2380  0.00  0.00     0.000 OA
ENDBRANCH 59 66
BRANCH 62 71
ATOM     71   C  IDS C   4      33.479   9.632  47.4960  0.00  0.00     0.000 C
ATOM     72   O  IDS C   4      33.476   8.423  47.3690  0.00  0.00     0.000 OA
ATOM     73   O  IDS C   4      34.462  10.316  47.1460  0.00  0.00     0.000 OA
ENDBRANCH 62 71
BRANCH 58 74
ATOM     74  O4  SGN C   5      31.142  10.602  50.8360  0.00  0.00     0.000 O
BRANCH 74 78
ATOM     75  C1  SGN C   5      32.725  10.531  54.7010  0.00  0.00     0.000 C
ATOM     76  C2  SGN C   5      33.650  10.017  53.5820  0.00  0.00     0.000 C
ATOM     77  C3  SGN C   5      33.102  10.407  52.2020  0.00  0.00     0.000 C
ATOM     78  C4  SGN C   5      31.622  10.075  52.0730  0.00  0.00     0.000 C
ATOM     79  C5  SGN C   5      30.862  10.681  53.2440  0.00  0.00     0.000 C
ATOM     80  O5  SGN C   5      31.375  10.137  54.4890  0.00  0.00     0.000 O
ATOM     81   O  SGN C   5      33.855   9.733  51.1990  0.00  0.00     0.000 O
ATOM     83  HD  SGN C   5      34.707   9.604  51.2810  0.00  0.00     0.000 HD
BRANCH 76 85
ATOM     83   N  SGN C   5      34.664   9.707  54.5970  0.00  0.00     0.000 N
ATOM     85  HD  SGN C   5      35.358   9.908  55.0740  0.00  0.00     0.000 HD
ATOM     85   S  SGN C   5      36.241  10.037  54.6020  0.00  0.00     0.000 S
ATOM     86   O  SGN C   5      36.838   9.591  55.8130  0.00  0.00     0.000 OA
ATOM     87   O  SGN C   5      36.779   9.530  53.3910  0.00  0.00     0.000 OA
ATOM     88   O  SGN C   5      36.091  11.556  54.6050  0.00  0.00     0.000 OA
ENDBRANCH 76 85
BRANCH 79 89
ATOM     89   C  SGN C   5      29.369  10.425  53.1920  0.00  0.00     0.000 C
ATOM     90   O  SGN C   5      29.099   9.036  53.5050  0.00  0.00     0.000 O
ATOM     91   S  SGN C   5      27.710   8.721  54.2430  0.00  0.00     0.000 S
ATOM     92   O  SGN C   5      27.657   9.583  55.3950  0.00  0.00     0.000 OA
ATOM     93   O  SGN C   5      26.657   8.996  53.3000  0.00  0.00     0.000 OA
ATOM     94   O  SGN C   5      27.822   7.327  54.5770  0.00  0.00     0.000 OA
ENDBRANCH 79 89
BRANCH 75 95
ATOM     95  O4  BDP C   6      32.816  11.894  54.6620  0.00  0.00     0.000 O
BRANCH 95 99
ATOM     96  C1  BDP C   6      32.449  14.864  57.7420  0.00  0.00     0.000 C
ATOM     97  C2  BDP C   6      33.217  13.607  58.0400  0.00  0.00     0.000 C
ATOM     98  C3  BDP C   6      33.617  12.800  56.7960  0.00  0.00     0.000 C
ATOM     99  C4  BDP C   6      32.434  12.607  55.8580  0.00  0.00     0.000 C
ATOM    100  C5  BDP C   6      31.778  13.988  55.6250  0.00  0.00     0.000 C
ATOM    101  O5  BDP C   6      31.378  14.397  56.9430  0.00  0.00     0.000 O
BRANCH 100 102
ATOM    102   C  BDP C   6      30.541  13.908  54.7680  0.00  0.00     0.000 C
ATOM    103   O  BDP C   6      30.527  14.289  53.5890  0.00  0.00     0.000 OA
ATOM    104   O  BDP C   6      29.529  13.427  55.2910  0.00  0.00     0.000 OA
ENDBRANCH 100 102
ENDBRANCH 95 99
ENDBRANCH 75 95
ENDBRANCH 74 78
ENDBRANCH 58 74
ENDBRANCH 57 61
ENDBRANCH 37 57
ENDBRANCH 36 40
ENDBRANCH 23 36
ENDBRANCH 22 26
ENDBRANCH 1 22
TORSDOF 20
ENDMDL
MODEL 39
REMARK VINA RESULT:      -6.6      3.645     15.352
ROOT
ATOM      1  C1  NGY C   1       3.002  12.898  53.1240  0.00  0.00     0.000 C
ATOM      2  C2  NGY C   1       2.174  11.623  53.0260  0.00  0.00     0.000 C
ATOM      3  C3  NGY C   1       0.686  11.955  53.0670  0.00  0.00     0.000 C
ATOM      4  C4  NGY C   1       0.416  12.773  54.3160  0.00  0.00     0.000 C
ATOM      5  C5  NGY C   1       1.241  14.055  54.2490  0.00  0.00     0.000 C
ATOM      6  O5  NGY C   1       2.645  13.691  54.2350  0.00  0.00     0.000 O
ATOM      7   O  NGY C   1      -0.062  10.747  53.0480  0.00  0.00     0.000 O
ATOM      9  HD  NGY C   1       0.012   9.947  53.3700  0.00  0.00     0.000 HD
ATOM      9   O  NGY C   1      -0.965  13.086  54.4290  0.00  0.00     0.000 O
ATOM     11  HD  NGY C   1      -0.891  12.285  54.7510  0.00  0.00     0.000 HD
ENDROOT
BRANCH 2 13
ATOM     11   N  NGY C   1       2.754  10.303  52.9480  0.00  0.00     0.000 N
ATOM     13  HD  NGY C   1       2.614  10.144  52.1080  0.00  0.00     0.000 HD
ATOM     13   C  NGY C   1       2.775   9.616  51.8070  0.00  0.00     0.000 C
ATOM     14   O  NGY C   1       2.173  10.019  50.8100  0.00  0.00     0.000 OA
ATOM     15   C  NGY C   1       3.583   8.354  51.7960  0.00  0.00     0.000 C
ENDBRANCH 2 13
BRANCH 5 16
ATOM     16   C  NGY C   1       1.074  14.979  55.4130  0.00  0.00     0.000 C
ATOM     17   O  NGY C   1      -1.814  17.194  55.8750  0.00  0.00     0.000 OA
ATOM     18   O  NGY C   1      -0.042  15.838  55.1630  0.00  0.00     0.000 O
ATOM     19   S  NGY C   1      -0.646  16.554  56.4240  0.00  0.00     0.000 S
ATOM     20   O  NGY C   1       0.334  17.502  56.8840  0.00  0.00     0.000 OA
ATOM     21   O  NGY C   1      -0.900  15.478  57.3690  0.00  0.00     0.000 OA
ENDBRANCH 5 16
BRANCH 1 22
ATOM     22  O4  BDP C   2       2.908  13.567  51.9560  0.00  0.00     0.000 O
BRANCH 22 26
ATOM     23  C1  BDP C   2       5.658  15.435  49.5250  0.00  0.00     0.000 C
ATOM     24  C2  BDP C   2       6.111  15.181  50.9430  0.00  0.00     0.000 C
ATOM     25  C3  BDP C   2       5.186  14.191  51.6000  0.00  0.00     0.000 C
ATOM     26  C4  BDP C   2       3.739  14.656  51.4740  0.00  0.00     0.000 C
ATOM     27  C5  BDP C   2       3.446  15.052  50.0330  0.00  0.00     0.000 C
ATOM     28  O5  BDP C   2       4.350  16.073  49.5370  0.00  0.00     0.000 O
ATOM     29   O  BDP C   2       7.386  14.540  51.0010  0.00  0.00     0.000 O
ATOM     31  HD  BDP C   2       7.501  13.963  51.6370  0.00  0.00     0.000 HD
ATOM     31   O  BDP C   2       5.559  14.121  52.9700  0.00  0.00     0.000 O
ATOM     33  HD  BDP C   2       5.675  13.544  53.6060  0.00  0.00     0.000 HD
BRANCH 27 33
ATOM     33   C  BDP C   2       2.056  15.616  49.8590  0.00  0.00     0.000 C
ATOM     34   O  BDP C   2       1.058  14.880  49.6750  0.00  0.00     0.000 OA
ATOM     35   O  BDP C   2       1.917  16.828  49.8670  0.00  0.00     0.000 OA
ENDBRANCH 27 33
BRANCH 23 36
ATOM     36  O4  SGN C   3       6.484  16.210  48.7830  0.00  0.00     0.000 O
BRANCH 36 40
ATOM     37  C1  SGN C   3       8.747  16.087  45.2770  0.00  0.00     0.000 C
ATOM     38  C2  SGN C   3       7.573  17.079  45.3350  0.00  0.00     0.000 C
ATOM     39  C3  SGN C   3       7.146  17.313  46.7770  0.00  0.00     0.000 C
ATOM     40  C4  SGN C   3       6.808  15.981  47.4090  0.00  0.00     0.000 C
ATOM     41  C5  SGN C   3       8.005  15.064  47.2860  0.00  0.00     0.000 C
ATOM     42  O5  SGN C   3       8.335  14.881  45.9010  0.00  0.00     0.000 O
ATOM     43   O  SGN C   3       6.023  18.186  46.7970  0.00  0.00     0.000 O
ATOM     45  HD  SGN C   3       6.010  17.672  47.4930  0.00  0.00     0.000 HD
BRANCH 38 47
ATOM     45   N  SGN C   3       7.384  17.022  43.8750  0.00  0.00     0.000 N
ATOM     47  HD  SGN C   3       7.204  16.695  44.6560  0.00  0.00     0.000 HD
ATOM     47   S  SGN C   3       7.890  18.347  43.1560  0.00  0.00     0.000 S
ATOM     48   O  SGN C   3       7.095  19.468  43.5170  0.00  0.00     0.000 OA
ATOM     49   O  SGN C   3       9.289  18.444  43.4140  0.00  0.00     0.000 OA
ATOM     50   O  SGN C   3       7.621  18.044  41.7510  0.00  0.00     0.000 OA
ENDBRANCH 38 47
BRANCH 41 51
ATOM     51   C  SGN C   3       7.800  13.699  47.8850  0.00  0.00     0.000 C
ATOM     52   O  SGN C   3      10.383  11.498  49.4190  0.00  0.00     0.000 OA
ATOM     53   O  SGN C   3       8.075  11.768  49.9930  0.00  0.00     0.000 OA
ATOM     54   O  SGN C   3       8.700  10.855  47.8620  0.00  0.00     0.000 OA
ATOM     55   O  SGN C   3       9.029  13.237  48.3980  0.00  0.00     0.000 O
ATOM     56   S  SGN C   3       9.047  11.694  48.9710  0.00  0.00     0.000 S
ENDBRANCH 41 51
BRANCH 37 57
ATOM     57  O4  IDS C   4       9.879  16.515  45.8860  0.00  0.00     0.000 O
BRANCH 57 61
ATOM     58  C1  IDS C   4      13.654  16.048  45.9260  0.00  0.00     0.000 C
ATOM     59  C2  IDS C   4      12.895  15.652  44.7000  0.00  0.00     0.000 C
ATOM     60  C3  IDS C   4      11.564  14.968  45.0230  0.00  0.00     0.000 C
ATOM     61  C4  IDS C   4      10.815  15.480  46.2450  0.00  0.00     0.000 C
ATOM     62  C5  IDS C   4      11.795  15.974  47.3160  0.00  0.00     0.000 C
ATOM     63  O5  IDS C   4      12.801  16.809  46.7630  0.00  0.00     0.000 O
ATOM     64   O  IDS C   4      11.887  13.606  45.2360  0.00  0.00     0.000 O
ATOM     66  HD  IDS C   4      11.757  13.390  46.0640  0.00  0.00     0.000 HD
BRANCH 59 66
ATOM     66   O  IDS C   4      12.571  16.822  43.8610  0.00  0.00     0.000 O
ATOM     67   S  IDS C   4      13.557  17.122  42.6490  0.00  0.00     0.000 S
ATOM     68   O  IDS C   4      13.384  15.973  41.7930  0.00  0.00     0.000 OA
ATOM     69   O  IDS C   4      13.090  18.375  42.0900  0.00  0.00     0.000 OA
ATOM     70   O  IDS C   4      14.903  17.186  43.1950  0.00  0.00     0.000 OA
ENDBRANCH 59 66
BRANCH 62 71
ATOM     71   C  IDS C   4      11.126  16.800  48.3980  0.00  0.00     0.000 C
ATOM     72   O  IDS C   4      11.376  17.985  48.5030  0.00  0.00     0.000 OA
ATOM     73   O  IDS C   4      10.404  16.216  49.2310  0.00  0.00     0.000 OA
ENDBRANCH 62 71
BRANCH 58 74
ATOM     74  O4  SGN C   5      14.417  15.059  46.4740  0.00  0.00     0.000 O
BRANCH 74 78
ATOM     75  C1  SGN C   5      17.947  14.102  48.4910  0.00  0.00     0.000 C
ATOM     76  C2  SGN C   5      16.813  14.690  49.3540  0.00  0.00     0.000 C
ATOM     77  C3  SGN C   5      15.485  14.676  48.5860  0.00  0.00     0.000 C
ATOM     78  C4  SGN C   5      15.642  15.245  47.1830  0.00  0.00     0.000 C
ATOM     79  C5  SGN C   5      16.784  14.533  46.4720  0.00  0.00     0.000 C
ATOM     80  O5  SGN C   5      18.015  14.729  47.2170  0.00  0.00     0.000 O
ATOM     81   O  SGN C   5      14.519  15.420  49.3220  0.00  0.00     0.000 O
ATOM     83  HD  SGN C   5      14.493  15.401  50.1870  0.00  0.00     0.000 HD
BRANCH 76 85
ATOM     83   N  SGN C   5      17.736  14.463  50.4740  0.00  0.00     0.000 N
ATOM     85  HD  SGN C   5      17.994  14.032  51.1800  0.00  0.00     0.000 HD
ATOM     85   S  SGN C   5      17.412  14.075  52.0030  0.00  0.00     0.000 S
ATOM     86   O  SGN C   5      18.616  13.907  52.7390  0.00  0.00     0.000 OA
ATOM     87   O  SGN C   5      16.485  15.032  52.4910  0.00  0.00     0.000 OA
ATOM     88   O  SGN C   5      16.774  12.721  51.6990  0.00  0.00     0.000 OA
ENDBRANCH 76 85
BRANCH 79 89
ATOM     89   C  SGN C   5      17.005  15.015  45.0530  0.00  0.00     0.000 C
ATOM     90   O  SGN C   5      17.623  13.964  44.2700  0.00  0.00     0.000 O
ATOM     91   S  SGN C   5      17.259  13.920  42.7070  0.00  0.00     0.000 S
ATOM     92   O  SGN C   5      15.822  13.920  42.6250  0.00  0.00     0.000 OA
ATOM     93   O  SGN C   5      17.845  15.089  42.1030  0.00  0.00     0.000 OA
ATOM     94   O  SGN C   5      17.858  12.691  42.2630  0.00  0.00     0.000 OA
ENDBRANCH 79 89
BRANCH 75 95
ATOM     95  O4  BDP C   6      17.647  12.778  48.3360  0.00  0.00     0.000 O
BRANCH 95 99
ATOM     96  C1  BDP C   6      20.461   9.743  47.1870  0.00  0.00     0.000 C
ATOM     97  C2  BDP C   6      20.969  11.130  47.4650  0.00  0.00     0.000 C
ATOM     98  C3  BDP C   6      19.980  12.027  48.2240  0.00  0.00     0.000 C
ATOM     99  C4  BDP C   6      18.595  11.979  47.5960  0.00  0.00     0.000 C
ATOM    100  C5  BDP C   6      18.206  10.493  47.4090  0.00  0.00     0.000 C
ATOM    101  O5  BDP C   6      19.227   9.985  46.5360  0.00  0.00     0.000 O
BRANCH 100 102
ATOM    102   C  BDP C   6      16.877  10.322  46.7190  0.00  0.00     0.000 C
ATOM    103   O  BDP C   6      16.160   9.327  46.8990  0.00  0.00     0.000 OA
ATOM    104   O  BDP C   6      16.518  11.233  45.9640  0.00  0.00     0.000 OA
ENDBRANCH 100 102
ENDBRANCH 95 99
ENDBRANCH 75 95
ENDBRANCH 74 78
ENDBRANCH 58 74
ENDBRANCH 57 61
ENDBRANCH 37 57
ENDBRANCH 36 40
ENDBRANCH 23 36
ENDBRANCH 22 26
ENDBRANCH 1 22
TORSDOF 20
ENDMDL
MODEL 40
REMARK VINA RESULT:      -6.6      5.377     17.911
ROOT
ATOM      1  C1  NGY C   1      11.788  10.747  46.1580  0.00  0.00     0.000 C
ATOM      2  C2  NGY C   1      11.546   9.355  45.5920  0.00  0.00     0.000 C
ATOM      3  C3  NGY C   1      10.836   9.449  44.2450  0.00  0.00     0.000 C
ATOM      4  C4  NGY C   1       9.574  10.270  44.4290  0.00  0.00     0.000 C
ATOM      5  C5  NGY C   1       9.962  11.662  44.9190  0.00  0.00     0.000 C
ATOM      6  O5  NGY C   1      10.611  11.525  46.2100  0.00  0.00     0.000 O
ATOM      7   O  NGY C   1      10.556   8.139  43.7730  0.00  0.00     0.000 O
ATOM      9  HD  NGY C   1      10.324   7.376  44.1100  0.00  0.00     0.000 HD
ATOM      9   O  NGY C   1       8.848  10.366  43.2130  0.00  0.00     0.000 O
ATOM     11  HD  NGY C   1       8.616   9.603  43.5500  0.00  0.00     0.000 HD
ENDROOT
BRANCH 2 13
ATOM     11   N  NGY C   1      12.839   8.730  45.7390  0.00  0.00     0.000 N
ATOM     13  HD  NGY C   1      12.582   7.907  45.8210  0.00  0.00     0.000 HD
ATOM     13   C  NGY C   1      12.964   7.414  45.9040  0.00  0.00     0.000 C
ATOM     14   O  NGY C   1      11.977   6.698  46.0800  0.00  0.00     0.000 OA
ATOM     15   C  NGY C   1      14.353   6.856  45.8360  0.00  0.00     0.000 C
ENDBRANCH 2 13
BRANCH 5 16
ATOM     16   C  NGY C   1       8.819  12.600  45.1400  0.00  0.00     0.000 C
ATOM     17   O  NGY C   1       7.032  14.325  42.4400  0.00  0.00     0.000 OA
ATOM     18   O  NGY C   1       8.511  13.249  43.9030  0.00  0.00     0.000 O
ATOM     19   S  NGY C   1       7.090  13.915  43.8200  0.00  0.00     0.000 S
ATOM     20   O  NGY C   1       7.091  15.034  44.7260  0.00  0.00     0.000 OA
ATOM     21   O  NGY C   1       6.168  12.859  44.2040  0.00  0.00     0.000 OA
ENDBRANCH 5 16
BRANCH 1 22
ATOM     22  O4  BDP C   2      12.772  11.340  45.4480  0.00  0.00     0.000 O
BRANCH 22 26
ATOM     23  C1  BDP C   2      16.365  13.331  45.7490  0.00  0.00     0.000 C
ATOM     24  C2  BDP C   2      15.873  12.682  47.0210  0.00  0.00     0.000 C
ATOM     25  C3  BDP C   2      14.775  11.703  46.6980  0.00  0.00     0.000 C
ATOM     26  C4  BDP C   2      13.685  12.384  45.8760  0.00  0.00     0.000 C
ATOM     27  C5  BDP C   2      14.314  13.152  44.7200  0.00  0.00     0.000 C
ATOM     28  O5  BDP C   2      15.296  14.124  45.1610  0.00  0.00     0.000 O
ATOM     29   O  BDP C   2      16.873  11.873  47.6410  0.00  0.00     0.000 O
ATOM     31  HD  BDP C   2      16.599  11.150  48.0320  0.00  0.00     0.000 HD
ATOM     31   O  BDP C   2      14.243  11.254  47.9380  0.00  0.00     0.000 O
ATOM     33  HD  BDP C   2      13.969  10.532  48.3290  0.00  0.00     0.000 HD
BRANCH 27 33
ATOM     33   C  BDP C   2      13.295  13.931  43.9220  0.00  0.00     0.000 C
ATOM     34   O  BDP C   2      13.298  15.184  43.8820  0.00  0.00     0.000 OA
ATOM     35   O  BDP C   2      12.426  13.313  43.3300  0.00  0.00     0.000 OA
ENDBRANCH 27 33
BRANCH 23 36
ATOM     36  O4  SGN C   3      17.443  14.137  45.8890  0.00  0.00     0.000 O
BRANCH 36 40
ATOM     37  C1  SGN C   3      21.187  15.043  44.2800  0.00  0.00     0.000 C
ATOM     38  C2  SGN C   3      20.010  15.960  43.9090  0.00  0.00     0.000 C
ATOM     39  C3  SGN C   3      18.861  15.772  44.8890  0.00  0.00     0.000 C
ATOM     40  C4  SGN C   3      18.470  14.310  44.9080  0.00  0.00     0.000 C
ATOM     41  C5  SGN C   3      19.688  13.484  45.2570  0.00  0.00     0.000 C
ATOM     42  O5  SGN C   3      20.719  13.703  44.2810  0.00  0.00     0.000 O
ATOM     43   O  SGN C   3      17.766  16.586  44.4890  0.00  0.00     0.000 O
ATOM     45  HD  SGN C   3      17.476  15.896  44.9250  0.00  0.00     0.000 HD
BRANCH 38 47
ATOM     45   N  SGN C   3      20.597  17.308  44.0050  0.00  0.00     0.000 N
ATOM     47  HD  SGN C   3      20.293  16.605  44.4080  0.00  0.00     0.000 HD
ATOM     47   S  SGN C   3      21.201  17.796  42.6180  0.00  0.00     0.000 S
ATOM     48   O  SGN C   3      22.320  17.010  42.2350  0.00  0.00     0.000 OA
ATOM     49   O  SGN C   3      20.114  17.854  41.6970  0.00  0.00     0.000 OA
ATOM     50   O  SGN C   3      21.690  19.131  42.9600  0.00  0.00     0.000 OA
ENDBRANCH 38 47
BRANCH 41 51
ATOM     51   C  SGN C   3      19.432  12.002  45.3150  0.00  0.00     0.000 C
ATOM     52   O  SGN C   3      20.340   9.662  48.0670  0.00  0.00     0.000 OA
ATOM     53   O  SGN C   3      18.447   9.629  46.6010  0.00  0.00     0.000 OA
ATOM     54   O  SGN C   3      20.665   9.318  45.7330  0.00  0.00     0.000 OA
ATOM     55   O  SGN C   3      19.890  11.508  46.5530  0.00  0.00     0.000 O
ATOM     56   S  SGN C   3      19.830   9.876  46.7550  0.00  0.00     0.000 S
ENDBRANCH 41 51
BRANCH 37 57
ATOM     57  O4  IDS C   4      21.745  15.298  45.4890  0.00  0.00     0.000 O
BRANCH 57 61
ATOM     58  C1  IDS C   4      25.264  15.086  46.9180  0.00  0.00     0.000 C
ATOM     59  C2  IDS C   4      25.077  14.926  45.4420  0.00  0.00     0.000 C
ATOM     60  C3  IDS C   4      23.838  14.100  45.0890  0.00  0.00     0.000 C
ATOM     61  C4  IDS C   4      22.624  14.273  45.9910  0.00  0.00     0.000 C
ATOM     62  C5  IDS C   4      23.055  14.579  47.4300  0.00  0.00     0.000 C
ATOM     63  O5  IDS C   4      24.059  15.582  47.4770  0.00  0.00     0.000 O
ATOM     64   O  IDS C   4      24.257  12.750  45.1610  0.00  0.00     0.000 O
ATOM     66  HD  IDS C   4      23.864  12.345  45.8170  0.00  0.00     0.000 HD
BRANCH 59 66
ATOM     66   O  IDS C   4      24.916  16.230  44.7710  0.00  0.00     0.000 O
ATOM     67   S  IDS C   4      26.162  16.757  43.9330  0.00  0.00     0.000 S
ATOM     68   O  IDS C   4      26.277  15.787  42.8710  0.00  0.00     0.000 OA
ATOM     69   O  IDS C   4      25.786  18.090  43.5050  0.00  0.00     0.000 OA
ATOM     70   O  IDS C   4      27.318  16.726  44.8150  0.00  0.00     0.000 OA
ENDBRANCH 59 66
BRANCH 62 71
ATOM     71   C  IDS C   4      21.921  15.095  48.2940  0.00  0.00     0.000 C
ATOM     72   O  IDS C   4      21.978  16.211  48.7750  0.00  0.00     0.000 OA
ATOM     73   O  IDS C   4      20.990  14.316  48.5800  0.00  0.00     0.000 OA
ENDBRANCH 62 71
BRANCH 58 74
ATOM     74  O4  SGN C   5      25.908  14.053  47.5310  0.00  0.00     0.000 O
BRANCH 74 78
ATOM     75  C1  SGN C   5      28.638  12.925  50.4840  0.00  0.00     0.000 C
ATOM     76  C2  SGN C   5      27.404  13.710  50.9690  0.00  0.00     0.000 C
ATOM     77  C3  SGN C   5      26.331  13.764  49.8740  0.00  0.00     0.000 C
ATOM     78  C4  SGN C   5      26.919  14.175  48.5310  0.00  0.00     0.000 C
ATOM     79  C5  SGN C   5      28.106  13.281  48.2030  0.00  0.00     0.000 C
ATOM     80  O5  SGN C   5      29.116  13.416  49.2380  0.00  0.00     0.000 O
ATOM     81   O  SGN C   5      25.310  14.673  50.2720  0.00  0.00     0.000 O
ATOM     83  HD  SGN C   5      25.058  14.740  51.0970  0.00  0.00     0.000 HD
BRANCH 76 85
ATOM     83   N  SGN C   5      27.922  13.273  52.2710  0.00  0.00     0.000 N
ATOM     85  HD  SGN C   5      27.836  12.883  53.0390  0.00  0.00     0.000 HD
ATOM     85   S  SGN C   5      27.208  13.292  53.7150  0.00  0.00     0.000 S
ATOM     86   O  SGN C   5      28.065  12.730  54.7000  0.00  0.00     0.000 OA
ATOM     87   O  SGN C   5      26.749  14.616  53.9380  0.00  0.00     0.000 OA
ATOM     88   O  SGN C   5      26.087  12.319  53.3580  0.00  0.00     0.000 OA
ENDBRANCH 76 85
BRANCH 79 89
ATOM     89   C  SGN C   5      28.749  13.598  46.8670  0.00  0.00     0.000 C
ATOM     90   O  SGN C   5      29.406  14.887  46.9340  0.00  0.00     0.000 O
ATOM     91   S  SGN C   5      30.715  15.077  46.0230  0.00  0.00     0.000 S
ATOM     92   O  SGN C   5      31.589  13.976  46.3340  0.00  0.00     0.000 OA
ATOM     93   O  SGN C   5      30.280  15.064  44.6500  0.00  0.00     0.000 OA
ATOM     94   O  SGN C   5      31.228  16.352  46.4440  0.00  0.00     0.000 OA
ENDBRANCH 79 89
BRANCH 75 95
ATOM     95  O4  BDP C   6      28.222  11.632  50.3390  0.00  0.00     0.000 O
BRANCH 95 99
ATOM     96  C1  BDP C   6      30.537   8.061  50.9210  0.00  0.00     0.000 C
ATOM     97  C2  BDP C   6      31.036   9.348  51.5140  0.00  0.00     0.000 C
ATOM     98  C3  BDP C   6      29.981  10.463  51.5870  0.00  0.00     0.000 C
ATOM     99  C4  BDP C   6      29.252  10.622  50.2610  0.00  0.00     0.000 C
ATOM    100  C5  BDP C   6      28.774   9.222  49.8080  0.00  0.00     0.000 C
ATOM    101  O5  BDP C   6      29.995   8.475  49.6810  0.00  0.00     0.000 O
BRANCH 100 102
ATOM    102   C  BDP C   6      28.102   9.247  48.4580  0.00  0.00     0.000 C
ATOM    103   O  BDP C   6      28.447  10.029  47.5610  0.00  0.00     0.000 OA
ATOM    104   O  BDP C   6      27.188   8.434  48.2750  0.00  0.00     0.000 OA
ENDBRANCH 100 102
ENDBRANCH 95 99
ENDBRANCH 75 95
ENDBRANCH 74 78
ENDBRANCH 58 74
ENDBRANCH 57 61
ENDBRANCH 37 57
ENDBRANCH 36 40
ENDBRANCH 23 36
ENDBRANCH 22 26
ENDBRANCH 1 22
TORSDOF 20
ENDMDL
MODEL 41
REMARK VINA RESULT:      -6.6      6.682     10.816
ROOT
ATOM      1  C1  NGY C   1      14.962  12.658  45.1860  0.00  0.00     0.000 C
ATOM      2  C2  NGY C   1      15.659  12.439  46.5210  0.00  0.00     0.000 C
ATOM      3  C3  NGY C   1      15.793  13.761  47.2710  0.00  0.00     0.000 C
ATOM      4  C4  NGY C   1      16.496  14.752  46.3630  0.00  0.00     0.000 C
ATOM      5  C5  NGY C   1      15.656  14.943  45.1030  0.00  0.00     0.000 C
ATOM      6  O5  NGY C   1      15.576  13.669  44.4130  0.00  0.00     0.000 O
ATOM      7   O  NGY C   1      16.509  13.542  48.4780  0.00  0.00     0.000 O
ATOM      9  HD  NGY C   1      17.167  13.048  48.7480  0.00  0.00     0.000 HD
ATOM      9   O  NGY C   1      16.681  15.998  47.0190  0.00  0.00     0.000 O
ATOM     11  HD  NGY C   1      17.340  15.505  47.2890  0.00  0.00     0.000 HD
ENDROOT
BRANCH 2 13
ATOM     11   N  NGY C   1      16.121  11.600  47.6020  0.00  0.00     0.000 N
ATOM     13  HD  NGY C   1      15.539  10.961  47.5340  0.00  0.00     0.000 HD
ATOM     13   C  NGY C   1      15.514  10.452  47.9030  0.00  0.00     0.000 C
ATOM     14   O  NGY C   1      14.452  10.133  47.3670  0.00  0.00     0.000 OA
ATOM     15   C  NGY C   1      16.202   9.569  48.8990  0.00  0.00     0.000 C
ENDBRANCH 2 13
BRANCH 5 16
ATOM     16   C  NGY C   1      16.216  15.907  44.1060  0.00  0.00     0.000 C
ATOM     17   O  NGY C   1      19.706  15.893  42.9780  0.00  0.00     0.000 OA
ATOM     18   O  NGY C   1      17.637  15.753  44.0660  0.00  0.00     0.000 O
ATOM     19   S  NGY C   1      18.348  16.338  42.7930  0.00  0.00     0.000 S
ATOM     20   O  NGY C   1      18.228  17.771  42.8590  0.00  0.00     0.000 OA
ATOM     21   O  NGY C   1      17.637  15.747  41.6720  0.00  0.00     0.000 OA
ENDBRANCH 5 16
BRANCH 1 22
ATOM     22  O4  BDP C   2      13.654  12.900  45.4120  0.00  0.00     0.000 O
BRANCH 22 26
ATOM     23  C1  BDP C   2       9.694  12.698  44.2970  0.00  0.00     0.000 C
ATOM     24  C2  BDP C   2      10.411  11.372  44.3910  0.00  0.00     0.000 C
ATOM     25  C3  BDP C   2      11.703  11.548  45.1450  0.00  0.00     0.000 C
ATOM     26  C4  BDP C   2      12.530  12.669  44.5230  0.00  0.00     0.000 C
ATOM     27  C5  BDP C   2      11.657  13.900  44.3150  0.00  0.00     0.000 C
ATOM     28  O5  BDP C   2      10.486  13.626  43.5030  0.00  0.00     0.000 O
ATOM     29   O  BDP C   2       9.692  10.419  45.1740  0.00  0.00     0.000 O
ATOM     31  HD  BDP C   2      10.165   9.879  45.6580  0.00  0.00     0.000 HD
ATOM     31   O  BDP C   2      12.406  10.315  45.0560  0.00  0.00     0.000 O
ATOM     33  HD  BDP C   2      12.879   9.775  45.5400  0.00  0.00     0.000 HD
BRANCH 27 33
ATOM     33   C  BDP C   2      12.392  15.015  43.6100  0.00  0.00     0.000 C
ATOM     34   O  BDP C   2      13.001  14.833  42.5290  0.00  0.00     0.000 OA
ATOM     35   O  BDP C   2      12.416  16.116  44.1350  0.00  0.00     0.000 OA
ENDBRANCH 27 33
BRANCH 23 36
ATOM     36  O4  SGN C   3       8.455  12.649  43.7550  0.00  0.00     0.000 O
BRANCH 36 40
ATOM     37  C1  SGN C   3       4.547  14.103  43.9540  0.00  0.00     0.000 C
ATOM     38  C2  SGN C   3       5.681  15.126  43.7760  0.00  0.00     0.000 C
ATOM     39  C3  SGN C   3       6.947  14.436  43.2900  0.00  0.00     0.000 C
ATOM     40  C4  SGN C   3       7.310  13.337  44.2650  0.00  0.00     0.000 C
ATOM     41  C5  SGN C   3       6.133  12.394  44.3960  0.00  0.00     0.000 C
ATOM     42  O5  SGN C   3       4.986  13.114  44.8720  0.00  0.00     0.000 O
ATOM     43   O  SGN C   3       7.994  15.394  43.1920  0.00  0.00     0.000 O
ATOM     45  HD  SGN C   3       8.326  14.609  43.3420  0.00  0.00     0.000 HD
BRANCH 38 47
ATOM     45   N  SGN C   3       5.747  16.597  43.8220  0.00  0.00     0.000 N
ATOM     47  HD  SGN C   3       6.165  15.839  43.8140  0.00  0.00     0.000 HD
ATOM     47   S  SGN C   3       4.362  17.270  43.4280  0.00  0.00     0.000 S
ATOM     48   O  SGN C   3       4.037  17.028  42.0660  0.00  0.00     0.000 OA
ATOM     49   O  SGN C   3       3.409  16.843  44.3990  0.00  0.00     0.000 OA
ATOM     50   O  SGN C   3       4.672  18.692  43.5660  0.00  0.00     0.000 OA
ENDBRANCH 38 47
BRANCH 41 51
ATOM     51   C  SGN C   3       6.367  11.246  45.3390  0.00  0.00     0.000 C
ATOM     52   O  SGN C   3       3.960   9.822  47.8000  0.00  0.00     0.000 OA
ATOM     53   O  SGN C   3       5.657   8.723  46.5180  0.00  0.00     0.000 OA
ATOM     54   O  SGN C   3       6.250  10.349  48.1820  0.00  0.00     0.000 OA
ATOM     55   O  SGN C   3       5.181  10.999  46.0600  0.00  0.00     0.000 O
ATOM     56   S  SGN C   3       5.272   9.868  47.2520  0.00  0.00     0.000 S
ENDBRANCH 41 51
BRANCH 37 57
ATOM     57  O4  IDS C   4       4.162  13.481  42.8130  0.00  0.00     0.000 O
BRANCH 57 61
ATOM     58  C1  IDS C   4       0.615  13.107  41.4910  0.00  0.00     0.000 C
ATOM     59  C2  IDS C   4       0.829  13.849  42.7720  0.00  0.00     0.000 C
ATOM     60  C3  IDS C   4       1.887  13.197  43.6640  0.00  0.00     0.000 C
ATOM     61  C4  IDS C   4       3.071  12.551  42.9560  0.00  0.00     0.000 C
ATOM     62  C5  IDS C   4       2.648  11.989  41.5940  0.00  0.00     0.000 C
ATOM     63  O5  IDS C   4       1.869  12.921  40.8580  0.00  0.00     0.000 O
ATOM     64   O  IDS C   4       1.198  12.193  44.3860  0.00  0.00     0.000 O
ATOM     66  HD  IDS C   4       1.471  11.407  44.1470  0.00  0.00     0.000 HD
BRANCH 59 66
ATOM     66   O  IDS C   4       1.282  15.232  42.5280  0.00  0.00     0.000 O
ATOM     67   S  IDS C   4       0.199  16.381  42.7260  0.00  0.00     0.000 S
ATOM     68   O  IDS C   4      -0.096  16.314  44.1370  0.00  0.00     0.000 OA
ATOM     69   O  IDS C   4       0.861  17.597  42.2980  0.00  0.00     0.000 OA
ATOM     70   O  IDS C   4      -0.958  16.025  41.9180  0.00  0.00     0.000 OA
ENDBRANCH 59 66
BRANCH 62 71
ATOM     71   C  IDS C   4       3.825  11.645  40.7010  0.00  0.00     0.000 C
ATOM     72   O  IDS C   4       4.208  12.438  39.8630  0.00  0.00     0.000 OA
ATOM     73   O  IDS C   4       4.316  10.501  40.7790  0.00  0.00     0.000 OA
ENDBRANCH 62 71
BRANCH 58 74
ATOM     74  O4  SGN C   5      -0.253  12.058  41.5720  0.00  0.00     0.000 O
BRANCH 74 78
ATOM     75  C1  SGN C   5      -2.774   9.726  39.1960  0.00  0.00     0.000 C
ATOM     76  C2  SGN C   5      -1.652  10.478  38.4550  0.00  0.00     0.000 C
ATOM     77  C3  SGN C   5      -0.608  11.007  39.4470  0.00  0.00     0.000 C
ATOM     78  C4  SGN C   5      -1.261  11.732  40.6150  0.00  0.00     0.000 C
ATOM     79  C5  SGN C   5      -2.321  10.836  41.2390  0.00  0.00     0.000 C
ATOM     80  O5  SGN C   5      -3.328  10.510  40.2450  0.00  0.00     0.000 O
ATOM     81   O  SGN C   5       0.286  11.875  38.7570  0.00  0.00     0.000 O
ATOM     83  HD  SGN C   5       0.536  11.716  37.9430  0.00  0.00     0.000 HD
BRANCH 76 85
ATOM     83   N  SGN C   5      -1.991   9.475  37.4370  0.00  0.00     0.000 N
ATOM     85  HD  SGN C   5      -1.777   8.907  36.8190  0.00  0.00     0.000 HD
ATOM     85   S  SGN C   5      -1.372   9.262  35.9660  0.00  0.00     0.000 S
ATOM     86   O  SGN C   5      -1.967   8.135  35.3340  0.00  0.00     0.000 OA
ATOM     87   O  SGN C   5      -1.464  10.505  35.2880  0.00  0.00     0.000 OA
ATOM     88   O  SGN C   5       0.045   8.932  36.4290  0.00  0.00     0.000 OA
ENDBRANCH 76 85
BRANCH 79 89
ATOM     89   C  SGN C   5      -3.015  11.462  42.4320  0.00  0.00     0.000 C
ATOM     90   O  SGN C   5      -2.199  11.294  43.6170  0.00  0.00     0.000 O
ATOM     91   S  SGN C   5      -2.297  12.447  44.7300  0.00  0.00     0.000 S
ATOM     92   O  SGN C   5      -2.058  13.691  44.0470  0.00  0.00     0.000 OA
ATOM     93   O  SGN C   5      -3.619  12.376  45.2980  0.00  0.00     0.000 OA
ATOM     94   O  SGN C   5      -1.260  12.096  45.6610  0.00  0.00     0.000 OA
ENDBRANCH 79 89
BRANCH 75 95
ATOM     95  O4  BDP C   6      -2.191   8.607  39.7180  0.00  0.00     0.000 O
BRANCH 95 99
ATOM     96  C1  BDP C   6      -4.214   4.830  40.0120  0.00  0.00     0.000 C
ATOM     97  C2  BDP C   6      -4.953   6.001  39.4270  0.00  0.00     0.000 C
ATOM     98  C3  BDP C   6      -4.053   7.175  39.0130  0.00  0.00     0.000 C
ATOM     99  C4  BDP C   6      -3.075   7.538  40.1200  0.00  0.00     0.000 C
ATOM    100  C5  BDP C   6      -2.376   6.239  40.5860  0.00  0.00     0.000 C
ATOM    101  O5  BDP C   6      -3.461   5.422  41.0530  0.00  0.00     0.000 O
BRANCH 100 102
ATOM    102   C  BDP C   6      -1.435   6.467  41.7410  0.00  0.00     0.000 C
ATOM    103   O  BDP C   6      -0.238   6.746  41.5750  0.00  0.00     0.000 OA
ATOM    104   O  BDP C   6      -1.913   6.376  42.8780  0.00  0.00     0.000 OA
ENDBRANCH 100 102
ENDBRANCH 95 99
ENDBRANCH 75 95
ENDBRANCH 74 78
ENDBRANCH 58 74
ENDBRANCH 57 61
ENDBRANCH 37 57
ENDBRANCH 36 40
ENDBRANCH 23 36
ENDBRANCH 22 26
ENDBRANCH 1 22
TORSDOF 20
ENDMDL
MODEL 42
REMARK VINA RESULT:      -6.5      5.140     16.480
ROOT
ATOM      1  C1  NGY C   1      11.375  10.942  46.0210  0.00  0.00     0.000 C
ATOM      2  C2  NGY C   1      11.307   9.500  45.5350  0.00  0.00     0.000 C
ATOM      3  C3  NGY C   1      10.752   9.447  44.1160  0.00  0.00     0.000 C
ATOM      4  C4  NGY C   1       9.418  10.168  44.0990  0.00  0.00     0.000 C
ATOM      5  C5  NGY C   1       9.639  11.617  44.5250  0.00  0.00     0.000 C
ATOM      6  O5  NGY C   1      10.144  11.618  45.8860  0.00  0.00     0.000 O
ATOM      7   O  NGY C   1      10.630   8.090  43.7130  0.00  0.00     0.000 O
ATOM      9  HD  NGY C   1      10.420   7.333  44.0780  0.00  0.00     0.000 HD
ATOM      9   O  NGY C   1       8.831  10.123  42.8070  0.00  0.00     0.000 O
ATOM     11  HD  NGY C   1       8.622   9.367  43.1720  0.00  0.00     0.000 HD
ENDROOT
BRANCH 2 13
ATOM     11   N  NGY C   1      12.540   8.764  45.3800  0.00  0.00     0.000 N
ATOM     13  HD  NGY C   1      12.419   8.168  45.9960  0.00  0.00     0.000 HD
ATOM     13   C  NGY C   1      12.825   7.710  46.1430  0.00  0.00     0.000 C
ATOM     14   O  NGY C   1      12.115   7.410  47.1040  0.00  0.00     0.000 OA
ATOM     15   C  NGY C   1      14.026   6.904  45.7540  0.00  0.00     0.000 C
ENDBRANCH 2 13
BRANCH 5 16
ATOM     16   C  NGY C   1       8.409  12.467  44.5500  0.00  0.00     0.000 C
ATOM     17   O  NGY C   1       6.791  13.643  47.6250  0.00  0.00     0.000 OA
ATOM     18   O  NGY C   1       7.936  12.553  45.8970  0.00  0.00     0.000 O
ATOM     19   S  NGY C   1       6.946  13.735  46.1950  0.00  0.00     0.000 S
ATOM     20   O  NGY C   1       5.722  13.453  45.4920  0.00  0.00     0.000 OA
ATOM     21   O  NGY C   1       7.634  14.921  45.7110  0.00  0.00     0.000 OA
ENDBRANCH 5 16
BRANCH 1 22
ATOM     22  O4  BDP C   2      12.385  11.568  45.3810  0.00  0.00     0.000 O
BRANCH 22 26
ATOM     23  C1  BDP C   2      15.719  13.800  46.3160  0.00  0.00     0.000 C
ATOM     24  C2  BDP C   2      14.826  13.446  47.4810  0.00  0.00     0.000 C
ATOM     25  C3  BDP C   2      13.875  12.350  47.0760  0.00  0.00     0.000 C
ATOM     26  C4  BDP C   2      13.128  12.741  45.8060  0.00  0.00     0.000 C
ATOM     27  C5  BDP C   2      14.114  13.247  44.7610  0.00  0.00     0.000 C
ATOM     28  O5  BDP C   2      14.916  14.358  45.2370  0.00  0.00     0.000 O
ATOM     29   O  BDP C   2      15.552  12.876  48.5700  0.00  0.00     0.000 O
ATOM     31  HD  BDP C   2      15.152  12.253  49.0190  0.00  0.00     0.000 HD
ATOM     31   O  BDP C   2      12.959  12.179  48.1500  0.00  0.00     0.000 O
ATOM     33  HD  BDP C   2      12.558  11.556  48.5980  0.00  0.00     0.000 HD
BRANCH 27 33
ATOM     33   C  BDP C   2      13.427  13.743  43.5110  0.00  0.00     0.000 C
ATOM     34   O  BDP C   2      12.223  14.094  43.5080  0.00  0.00     0.000 OA
ATOM     35   O  BDP C   2      14.063  13.768  42.4700  0.00  0.00     0.000 OA
ENDBRANCH 27 33
BRANCH 23 36
ATOM     36  O4  SGN C   3      16.706  14.683  46.5900  0.00  0.00     0.000 O
BRANCH 36 40
ATOM     37  C1  SGN C   3      20.797  15.374  46.1230  0.00  0.00     0.000 C
ATOM     38  C2  SGN C   3      19.835  16.129  45.1920  0.00  0.00     0.000 C
ATOM     39  C3  SGN C   3      18.423  16.114  45.7600  0.00  0.00     0.000 C
ATOM     40  C4  SGN C   3      18.002  14.678  45.9840  0.00  0.00     0.000 C
ATOM     41  C5  SGN C   3      19.014  14.008  46.8880  0.00  0.00     0.000 C
ATOM     42  O5  SGN C   3      20.313  14.050  46.2770  0.00  0.00     0.000 O
ATOM     43   O  SGN C   3      17.545  16.767  44.8520  0.00  0.00     0.000 O
ATOM     45  HD  SGN C   3      17.108  16.180  45.3150  0.00  0.00     0.000 HD
BRANCH 38 47
ATOM     45   N  SGN C   3      20.002  17.479  44.6250  0.00  0.00     0.000 N
ATOM     47  HD  SGN C   3      19.550  16.942  45.1320  0.00  0.00     0.000 HD
ATOM     47   S  SGN C   3      21.439  17.680  43.9760  0.00  0.00     0.000 S
ATOM     48   O  SGN C   3      22.462  17.642  44.9610  0.00  0.00     0.000 OA
ATOM     49   O  SGN C   3      21.541  16.739  42.9090  0.00  0.00     0.000 OA
ATOM     50   O  SGN C   3      21.351  19.052  43.4780  0.00  0.00     0.000 OA
ENDBRANCH 38 47
BRANCH 41 51
ATOM     51   C  SGN C   3      18.706  12.568  47.1950  0.00  0.00     0.000 C
ATOM     52   O  SGN C   3      19.970   9.560  45.3960  0.00  0.00     0.000 OA
ATOM     53   O  SGN C   3      19.473   9.849  47.7200  0.00  0.00     0.000 OA
ATOM     54   O  SGN C   3      17.727   9.981  46.0760  0.00  0.00     0.000 OA
ATOM     55   O  SGN C   3      19.429  11.748  46.3040  0.00  0.00     0.000 O
ATOM     56   S  SGN C   3      19.119  10.133  46.3820  0.00  0.00     0.000 S
ENDBRANCH 41 51
BRANCH 37 57
ATOM     57  O4  IDS C   4      20.937  15.921  47.3560  0.00  0.00     0.000 O
BRANCH 57 61
ATOM     58  C1  IDS C   4      23.206  16.624  50.3270  0.00  0.00     0.000 C
ATOM     59  C2  IDS C   4      23.810  16.570  48.9590  0.00  0.00     0.000 C
ATOM     60  C3  IDS C   4      23.219  15.453  48.0950  0.00  0.00     0.000 C
ATOM     61  C4  IDS C   4      21.737  15.159  48.2810  0.00  0.00     0.000 C
ATOM     62  C5  IDS C   4      21.307  15.428  49.7280  0.00  0.00     0.000 C
ATOM     63  O5  IDS C   4      21.795  16.675  50.2000  0.00  0.00     0.000 O
ATOM     64   O  IDS C   4      23.950  14.290  48.4400  0.00  0.00     0.000 O
ATOM     66  HD  IDS C   4      23.439  13.720  48.8440  0.00  0.00     0.000 HD
BRANCH 59 66
ATOM     66   O  IDS C   4      23.592  17.829  48.2210  0.00  0.00     0.000 O
ATOM     67   S  IDS C   4      24.893  18.658  47.8310  0.00  0.00     0.000 S
ATOM     68   O  IDS C   4      25.577  17.782  46.9090  0.00  0.00     0.000 OA
ATOM     69   O  IDS C   4      24.392  19.886  47.2470  0.00  0.00     0.000 OA
ATOM     70   O  IDS C   4      25.659  18.856  49.0510  0.00  0.00     0.000 OA
ENDBRANCH 59 66
BRANCH 62 71
ATOM     71   C  IDS C   4      19.801  15.487  49.8990  0.00  0.00     0.000 C
ATOM     72   O  IDS C   4      19.215  16.546  49.7820  0.00  0.00     0.000 OA
ATOM     73   O  IDS C   4      19.203  14.454  50.2620  0.00  0.00     0.000 OA
ENDBRANCH 62 71
BRANCH 58 74
ATOM     74  O4  SGN C   5      23.763  15.772  51.2350  0.00  0.00     0.000 O
BRANCH 74 78
ATOM     75  C1  SGN C   5      24.832  15.165  55.2260  0.00  0.00     0.000 C
ATOM     76  C2  SGN C   5      23.340  15.440  54.9610  0.00  0.00     0.000 C
ATOM     77  C3  SGN C   5      23.021  15.304  53.4660  0.00  0.00     0.000 C
ATOM     78  C4  SGN C   5      24.021  16.066  52.6070  0.00  0.00     0.000 C
ATOM     79  C5  SGN C   5      25.435  15.652  52.9870  0.00  0.00     0.000 C
ATOM     80  O5  SGN C   5      25.668  15.953  54.3890  0.00  0.00     0.000 O
ATOM     81   O  SGN C   5      21.698  15.777  53.2310  0.00  0.00     0.000 O
ATOM     83  HD  SGN C   5      21.060  15.643  53.8010  0.00  0.00     0.000 HD
BRANCH 76 85
ATOM     83   N  SGN C   5      22.126  15.036  55.6810  0.00  0.00     0.000 N
ATOM     85  HD  SGN C   5      21.611  15.038  56.3770  0.00  0.00     0.000 HD
ATOM     85   S  SGN C   5      21.948  14.599  57.2210  0.00  0.00     0.000 S
ATOM     86   O  SGN C   5      20.581  14.331  57.5060  0.00  0.00     0.000 OA
ATOM     87   O  SGN C   5      22.876  13.554  57.4690  0.00  0.00     0.000 OA
ATOM     88   O  SGN C   5      22.372  15.936  57.8230  0.00  0.00     0.000 OA
ENDBRANCH 76 85
BRANCH 79 89
ATOM     89   C  SGN C   5      26.507  16.342  52.1680  0.00  0.00     0.000 C
ATOM     90   O  SGN C   5      27.475  15.367  51.7080  0.00  0.00     0.000 O
ATOM     91   S  SGN C   5      28.181  15.662  50.2970  0.00  0.00     0.000 S
ATOM     92   O  SGN C   5      27.120  15.897  49.3530  0.00  0.00     0.000 OA
ATOM     93   O  SGN C   5      29.023  16.817  50.4790  0.00  0.00     0.000 OA
ATOM     94   O  SGN C   5      28.920  14.456  50.0390  0.00  0.00     0.000 OA
ENDBRANCH 79 89
BRANCH 75 95
ATOM     95  O4  BDP C   6      25.021  13.841  54.9480  0.00  0.00     0.000 O
BRANCH 95 99
ATOM     96  C1  BDP C   6      27.761  11.231  56.9800  0.00  0.00     0.000 C
ATOM     97  C2  BDP C   6      27.519  12.602  57.5430  0.00  0.00     0.000 C
ATOM     98  C3  BDP C   6      26.269  13.303  56.9910  0.00  0.00     0.000 C
ATOM     99  C4  BDP C   6      26.221  13.230  55.4710  0.00  0.00     0.000 C
ATOM    100  C5  BDP C   6      26.450  11.758  55.0560  0.00  0.00     0.000 C
ATOM    101  O5  BDP C   6      27.753  11.459  55.5830  0.00  0.00     0.000 O
BRANCH 100 102
ATOM    102   C  BDP C   6      26.501  11.577  53.5610  0.00  0.00     0.000 C
ATOM    103   O  BDP C   6      27.034  12.407  52.8110  0.00  0.00     0.000 OA
ATOM    104   O  BDP C   6      25.992  10.545  53.1050  0.00  0.00     0.000 OA
ENDBRANCH 100 102
ENDBRANCH 95 99
ENDBRANCH 75 95
ENDBRANCH 74 78
ENDBRANCH 58 74
ENDBRANCH 57 61
ENDBRANCH 37 57
ENDBRANCH 36 40
ENDBRANCH 23 36
ENDBRANCH 22 26
ENDBRANCH 1 22
TORSDOF 20
ENDMDL
MODEL 43
REMARK VINA RESULT:      -6.4      5.487     17.469
ROOT
ATOM      1  C1  NGY C   1      12.087  10.870  46.1840  0.00  0.00     0.000 C
ATOM      2  C2  NGY C   1      11.920   9.435  45.7040  0.00  0.00     0.000 C
ATOM      3  C3  NGY C   1      11.249   9.411  44.3340  0.00  0.00     0.000 C
ATOM      4  C4  NGY C   1       9.949  10.187  44.4280  0.00  0.00     0.000 C
ATOM      5  C5  NGY C   1      10.264  11.623  44.8360  0.00  0.00     0.000 C
ATOM      6  O5  NGY C   1      10.877  11.598  46.1510  0.00  0.00     0.000 O
ATOM      7   O  NGY C   1      11.039   8.063  43.9410  0.00  0.00     0.000 O
ATOM      9  HD  NGY C   1      10.828   7.313  44.3210  0.00  0.00     0.000 HD
ATOM      9   O  NGY C   1       9.258  10.172  43.1870  0.00  0.00     0.000 O
ATOM     11  HD  NGY C   1       9.047   9.423  43.5670  0.00  0.00     0.000 HD
ENDROOT
BRANCH 2 13
ATOM     11   N  NGY C   1      12.420   8.104  45.4560  0.00  0.00     0.000 N
ATOM     13  HD  NGY C   1      13.027   8.071  46.0730  0.00  0.00     0.000 HD
ATOM     13   C  NGY C   1      13.407   7.582  46.1830  0.00  0.00     0.000 C
ATOM     14   O  NGY C   1      14.027   8.266  46.9990  0.00  0.00     0.000 OA
ATOM     15   C  NGY C   1      13.698   6.127  45.9760  0.00  0.00     0.000 C
ENDBRANCH 2 13
BRANCH 5 16
ATOM     16   C  NGY C   1       9.076  12.523  44.9620  0.00  0.00     0.000 C
ATOM     17   O  NGY C   1       9.060  16.050  43.9540  0.00  0.00     0.000 OA
ATOM     18   O  NGY C   1       9.484  13.865  44.6830  0.00  0.00     0.000 O
ATOM     19   S  NGY C   1       8.327  14.867  44.3280  0.00  0.00     0.000 S
ATOM     20   O  NGY C   1       7.548  15.059  45.5230  0.00  0.00     0.000 OA
ATOM     21   O  NGY C   1       7.594  14.214  43.2550  0.00  0.00     0.000 OA
ENDBRANCH 5 16
BRANCH 1 22
ATOM     22  O4  BDP C   2      13.066  11.458  45.4650  0.00  0.00     0.000 O
BRANCH 22 26
ATOM     23  C1  BDP C   2      16.653  13.377  46.1080  0.00  0.00     0.000 C
ATOM     24  C2  BDP C   2      15.879  13.012  47.3530  0.00  0.00     0.000 C
ATOM     25  C3  BDP C   2      14.804  12.016  47.0050  0.00  0.00     0.000 C
ATOM     26  C4  BDP C   2      13.945  12.544  45.8610  0.00  0.00     0.000 C
ATOM     27  C5  BDP C   2      14.837  13.045  44.7330  0.00  0.00     0.000 C
ATOM     28  O5  BDP C   2      15.776  14.062  45.1710  0.00  0.00     0.000 O
ATOM     29   O  BDP C   2      16.682  12.320  48.3100  0.00  0.00     0.000 O
ATOM     31  HD  BDP C   2      16.289  11.698  48.7680  0.00  0.00     0.000 HD
ATOM     31   O  BDP C   2      14.010  11.841  48.1720  0.00  0.00     0.000 O
ATOM     33  HD  BDP C   2      13.617  11.220  48.6300  0.00  0.00     0.000 HD
BRANCH 27 33
ATOM     33   C  BDP C   2      14.049  13.672  43.6080  0.00  0.00     0.000 C
ATOM     34   O  BDP C   2      12.900  14.143  43.7820  0.00  0.00     0.000 OA
ATOM     35   O  BDP C   2      14.541  13.685  42.4920  0.00  0.00     0.000 OA
ENDBRANCH 27 33
BRANCH 23 36
ATOM     36  O4  SGN C   3      17.734  14.167  46.3090  0.00  0.00     0.000 O
BRANCH 36 40
ATOM     37  C1  SGN C   3      21.730  14.757  45.2530  0.00  0.00     0.000 C
ATOM     38  C2  SGN C   3      20.664  15.569  44.4990  0.00  0.00     0.000 C
ATOM     39  C3  SGN C   3      19.354  15.575  45.2720  0.00  0.00     0.000 C
ATOM     40  C4  SGN C   3      18.924  14.144  45.5160  0.00  0.00     0.000 C
ATOM     41  C5  SGN C   3      20.036  13.417  46.2390  0.00  0.00     0.000 C
ATOM     42  O5  SGN C   3      21.230  13.442  45.4410  0.00  0.00     0.000 O
ATOM     43   O  SGN C   3      18.372  16.282  44.5240  0.00  0.00     0.000 O
ATOM     45  HD  SGN C   3      17.989  15.693  45.0310  0.00  0.00     0.000 HD
BRANCH 38 47
ATOM     45   N  SGN C   3      21.780  15.623  43.5370  0.00  0.00     0.000 N
ATOM     47  HD  SGN C   3      21.182  15.151  43.9490  0.00  0.00     0.000 HD
ATOM     47   S  SGN C   3      22.119  17.113  43.1000  0.00  0.00     0.000 S
ATOM     48   O  SGN C   3      21.056  17.691  42.3570  0.00  0.00     0.000 OA
ATOM     49   O  SGN C   3      22.524  17.803  44.2820  0.00  0.00     0.000 OA
ATOM     50   O  SGN C   3      23.242  16.907  42.1870  0.00  0.00     0.000 OA
ENDBRANCH 38 47
BRANCH 41 51
ATOM     51   C  SGN C   3      19.731  11.977  46.5470  0.00  0.00     0.000 C
ATOM     52   O  SGN C   3      22.025   9.062  46.2020  0.00  0.00     0.000 OA
ATOM     53   O  SGN C   3      20.299   9.460  47.8120  0.00  0.00     0.000 OA
ATOM     54   O  SGN C   3      19.756   9.188  45.4880  0.00  0.00     0.000 OA
ATOM     55   O  SGN C   3      20.892  11.207  46.3250  0.00  0.00     0.000 O
ATOM     56   S  SGN C   3      20.726   9.576  46.4700  0.00  0.00     0.000 S
ENDBRANCH 41 51
BRANCH 37 57
ATOM     57  O4  IDS C   4      22.069  15.258  46.4660  0.00  0.00     0.000 O
BRANCH 57 61
ATOM     58  C1  IDS C   4      25.181  15.334  48.6530  0.00  0.00     0.000 C
ATOM     59  C2  IDS C   4      25.315  14.896  47.2290  0.00  0.00     0.000 C
ATOM     60  C3  IDS C   4      24.152  14.014  46.7700  0.00  0.00     0.000 C
ATOM     61  C4  IDS C   4      22.778  14.351  47.3320  0.00  0.00     0.000 C
ATOM     62  C5  IDS C   4      22.896  14.925  48.7490  0.00  0.00     0.000 C
ATOM     63  O5  IDS C   4      23.904  15.922  48.8300  0.00  0.00     0.000 O
ATOM     64   O  IDS C   4      24.493  12.704  47.1820  0.00  0.00     0.000 O
ATOM     66  HD  IDS C   4      23.951  12.429  47.7990  0.00  0.00     0.000 HD
BRANCH 59 66
ATOM     66   O  IDS C   4      25.354  16.049  46.3090  0.00  0.00     0.000 O
ATOM     67   S  IDS C   4      26.692  16.242  45.4690  0.00  0.00     0.000 S
ATOM     68   O  IDS C   4      26.722  15.072  44.6250  0.00  0.00     0.000 OA
ATOM     69   O  IDS C   4      26.513  17.498  44.7670  0.00  0.00     0.000 OA
ATOM     70   O  IDS C   4      27.797  16.250  46.4150  0.00  0.00     0.000 OA
ENDBRANCH 59 66
BRANCH 62 71
ATOM     71   C  IDS C   4      21.621  15.591  49.2290  0.00  0.00     0.000 C
ATOM     72   O  IDS C   4      20.607  14.937  49.3710  0.00  0.00     0.000 OA
ATOM     73   O  IDS C   4      21.616  16.831  49.3700  0.00  0.00     0.000 OA
ENDBRANCH 62 71
BRANCH 58 74
ATOM     74  O4  SGN C   5      25.635  14.438  49.5750  0.00  0.00     0.000 O
BRANCH 74 78
ATOM     75  C1  SGN C   5      27.761  13.866  53.1240  0.00  0.00     0.000 C
ATOM     76  C2  SGN C   5      26.399  14.571  53.2590  0.00  0.00     0.000 C
ATOM     77  C3  SGN C   5      25.578  14.416  51.9720  0.00  0.00     0.000 C
ATOM     78  C4  SGN C   5      26.403  14.752  50.7370  0.00  0.00     0.000 C
ATOM     79  C5  SGN C   5      27.695  13.949  50.7570  0.00  0.00     0.000 C
ATOM     80  O5  SGN C   5      28.452  14.278  51.9520  0.00  0.00     0.000 O
ATOM     81   O  SGN C   5      24.432  15.258  52.0510  0.00  0.00     0.000 O
ATOM     83  HD  SGN C   5      24.008  15.379  52.7970  0.00  0.00     0.000 HD
BRANCH 76 85
ATOM     83   N  SGN C   5      25.999  13.840  54.4680  0.00  0.00     0.000 N
ATOM     85  HD  SGN C   5      25.524  13.746  55.1860  0.00  0.00     0.000 HD
ATOM     85   S  SGN C   5      25.663  14.402  55.9390  0.00  0.00     0.000 S
ATOM     86   O  SGN C   5      25.274  13.339  56.8000  0.00  0.00     0.000 OA
ATOM     87   O  SGN C   5      26.767  15.194  56.3480  0.00  0.00     0.000 OA
ATOM     88   O  SGN C   5      24.449  15.231  55.5260  0.00  0.00     0.000 OA
ENDBRANCH 76 85
BRANCH 79 89
ATOM     89   C  SGN C   5      28.579  14.196  49.5510  0.00  0.00     0.000 C
ATOM     90   O  SGN C   5      29.243  12.966  49.1700  0.00  0.00     0.000 O
ATOM     91   S  SGN C   5      29.561  12.773  47.6090  0.00  0.00     0.000 S
ATOM     92   O  SGN C   5      28.320  12.989  46.9110  0.00  0.00     0.000 OA
ATOM     93   O  SGN C   5      30.566  13.744  47.2580  0.00  0.00     0.000 OA
ATOM     94   O  SGN C   5      30.031  11.417  47.5330  0.00  0.00     0.000 OA
ENDBRANCH 79 89
BRANCH 75 95
ATOM     95  O4  BDP C   6      27.483  12.530  53.0470  0.00  0.00     0.000 O
BRANCH 95 99
ATOM     96  C1  BDP C   6      29.745   9.168  54.4700  0.00  0.00     0.000 C
ATOM     97  C2  BDP C   6      29.862  10.477  55.1990  0.00  0.00     0.000 C
ATOM     98  C3  BDP C   6      28.755  11.489  54.8670  0.00  0.00     0.000 C
ATOM     99  C4  BDP C   6      28.559  11.621  53.3640  0.00  0.00     0.000 C
ATOM    100  C5  BDP C   6      28.420  10.198  52.7730  0.00  0.00     0.000 C
ATOM    101  O5  BDP C   6      29.665   9.569  53.1150  0.00  0.00     0.000 O
BRANCH 100 102
ATOM    102   C  BDP C   6      28.298  10.202  51.2710  0.00  0.00     0.000 C
ATOM    103   O  BDP C   6      29.289  10.182  50.5260  0.00  0.00     0.000 OA
ATOM    104   O  BDP C   6      27.153  10.213  50.8030  0.00  0.00     0.000 OA
ENDBRANCH 100 102
ENDBRANCH 95 99
ENDBRANCH 75 95
ENDBRANCH 74 78
ENDBRANCH 58 74
ENDBRANCH 57 61
ENDBRANCH 37 57
ENDBRANCH 36 40
ENDBRANCH 23 36
ENDBRANCH 22 26
ENDBRANCH 1 22
TORSDOF 20
ENDMDL
MODEL 44
REMARK VINA RESULT:      -6.4     19.178     24.699
ROOT
ATOM      1  C1  NGY C   1      32.138   4.516  35.0400  0.00  0.00     0.000 C
ATOM      2  C2  NGY C   1      33.487   4.087  34.4800  0.00  0.00     0.000 C
ATOM      3  C3  NGY C   1      34.171   5.263  33.7910  0.00  0.00     0.000 C
ATOM      4  C4  NGY C   1      33.221   5.824  32.7510  0.00  0.00     0.000 C
ATOM      5  C5  NGY C   1      31.948   6.290  33.4520  0.00  0.00     0.000 C
ATOM      6  O5  NGY C   1      31.321   5.137  34.0710  0.00  0.00     0.000 O
ATOM      7   O  NGY C   1      35.392   4.821  33.2150  0.00  0.00     0.000 O
ATOM      9  HD  NGY C   1      35.690   4.109  32.8210  0.00  0.00     0.000 HD
ATOM      9   O  NGY C   1      33.816   6.905  32.0480  0.00  0.00     0.000 O
ATOM     11  HD  NGY C   1      34.114   6.193  31.6540  0.00  0.00     0.000 HD
ENDROOT
BRANCH 2 13
ATOM     11   N  NGY C   1      34.596   3.689  35.3150  0.00  0.00     0.000 N
ATOM     13  HD  NGY C   1      34.573   2.835  35.1700  0.00  0.00     0.000 HD
ATOM     13   C  NGY C   1      34.964   2.413  35.4260  0.00  0.00     0.000 C
ATOM     14   O  NGY C   1      34.284   1.510  34.9360  0.00  0.00     0.000 OA
ATOM     15   C  NGY C   1      36.249   2.144  36.1470  0.00  0.00     0.000 C
ENDBRANCH 2 13
BRANCH 5 16
ATOM     16   C  NGY C   1      30.908   6.882  32.5540  0.00  0.00     0.000 C
ATOM     17   O  NGY C   1      30.675  10.456  31.7630  0.00  0.00     0.000 OA
ATOM     18   O  NGY C   1      30.980   8.307  32.6430  0.00  0.00     0.000 O
ATOM     19   S  NGY C   1      30.298   9.097  31.4690  0.00  0.00     0.000 S
ATOM     20   O  NGY C   1      28.879   8.886  31.5820  0.00  0.00     0.000 OA
ATOM     21   O  NGY C   1      30.875   8.529  30.2610  0.00  0.00     0.000 OA
ENDBRANCH 5 16
BRANCH 1 22
ATOM     22  O4  BDP C   2      32.345   5.297  36.1220  0.00  0.00     0.000 O
BRANCH 22 26
ATOM     23  C1  BDP C   2      31.187   6.773  39.7890  0.00  0.00     0.000 C
ATOM     24  C2  BDP C   2      31.305   5.269  39.7010  0.00  0.00     0.000 C
ATOM     25  C3  BDP C   2      32.071   4.894  38.4600  0.00  0.00     0.000 C
ATOM     26  C4  BDP C   2      31.445   5.549  37.2340  0.00  0.00     0.000 C
ATOM     27  C5  BDP C   2      31.213   7.031  37.5020  0.00  0.00     0.000 C
ATOM     28  O5  BDP C   2      30.392   7.266  38.6740  0.00  0.00     0.000 O
ATOM     29   O  BDP C   2      32.090   4.722  40.7600  0.00  0.00     0.000 O
ATOM     31  HD  BDP C   2      32.586   4.040  40.5630  0.00  0.00     0.000 HD
ATOM     31   O  BDP C   2      32.004   3.478  38.3450  0.00  0.00     0.000 O
ATOM     33  HD  BDP C   2      32.500   2.796  38.1480  0.00  0.00     0.000 HD
BRANCH 27 33
ATOM     33   C  BDP C   2      30.504   7.720  36.3600  0.00  0.00     0.000 C
ATOM     34   O  BDP C   2      30.908   8.809  35.8860  0.00  0.00     0.000 OA
ATOM     35   O  BDP C   2      29.490   7.210  35.9140  0.00  0.00     0.000 OA
ENDBRANCH 27 33
BRANCH 23 36
ATOM     36  O4  SGN C   3      30.631   7.245  40.9290  0.00  0.00     0.000 O
BRANCH 36 40
ATOM     37  C1  SGN C   3      30.956  10.592  43.4020  0.00  0.00     0.000 C
ATOM     38  C2  SGN C   3      29.561  10.236  42.8630  0.00  0.00     0.000 C
ATOM     39  C3  SGN C   3      29.534   8.797  42.3670  0.00  0.00     0.000 C
ATOM     40  C4  SGN C   3      30.618   8.618  41.3270  0.00  0.00     0.000 C
ATOM     41  C5  SGN C   3      31.947   9.012  41.9340  0.00  0.00     0.000 C
ATOM     42  O5  SGN C   3      31.898  10.383  42.3610  0.00  0.00     0.000 O
ATOM     43   O  SGN C   3      28.252   8.514  41.8210  0.00  0.00     0.000 O
ATOM     45  HD  SGN C   3      28.850   8.014  41.4440  0.00  0.00     0.000 HD
BRANCH 38 47
ATOM     45   N  SGN C   3      28.410  11.148  42.7480  0.00  0.00     0.000 N
ATOM     47  HD  SGN C   3      28.869  10.493  42.4160  0.00  0.00     0.000 HD
ATOM     47   S  SGN C   3      28.108  11.904  44.1130  0.00  0.00     0.000 S
ATOM     48   O  SGN C   3      27.674  11.001  45.1200  0.00  0.00     0.000 OA
ATOM     49   O  SGN C   3      29.261  12.688  44.4100  0.00  0.00     0.000 OA
ATOM     50   O  SGN C   3      26.968  12.741  43.7430  0.00  0.00     0.000 OA
ENDBRANCH 38 47
BRANCH 41 51
ATOM     51   C  SGN C   3      33.116   8.875  40.9970  0.00  0.00     0.000 C
ATOM     52   O  SGN C   3      34.426  11.439  38.6330  0.00  0.00     0.000 OA
ATOM     53   O  SGN C   3      35.606   9.765  39.8730  0.00  0.00     0.000 OA
ATOM     54   O  SGN C   3      34.034   9.136  38.1710  0.00  0.00     0.000 OA
ATOM     55   O  SGN C   3      33.302  10.097  40.3180  0.00  0.00     0.000 O
ATOM     56   S  SGN C   3      34.449  10.109  39.1380  0.00  0.00     0.000 S
ENDBRANCH 41 51
BRANCH 37 57
ATOM     57  O4  IDS C   4      31.348   9.869  44.4800  0.00  0.00     0.000 O
BRANCH 57 61
ATOM     58  C1  IDS C   4      32.370   9.429  48.1170  0.00  0.00     0.000 C
ATOM     59  C2  IDS C   4      31.110  10.173  47.8110  0.00  0.00     0.000 C
ATOM     60  C3  IDS C   4      31.246  11.092  46.5940  0.00  0.00     0.000 C
ATOM     61  C4  IDS C   4      32.124  10.590  45.4560  0.00  0.00     0.000 C
ATOM     62  C5  IDS C   4      33.268   9.723  45.9950  0.00  0.00     0.000 C
ATOM     63  O5  IDS C   4      32.807   8.770  46.9410  0.00  0.00     0.000 O
ATOM     64   O  IDS C   4      31.807  12.291  47.0940  0.00  0.00     0.000 O
ATOM     66  HD  IDS C   4      32.607  12.404  46.7840  0.00  0.00     0.000 HD
BRANCH 59 66
ATOM     66   O  IDS C   4      29.994   9.253  47.5170  0.00  0.00     0.000 O
ATOM     67   S  IDS C   4      28.724   9.349  48.4710  0.00  0.00     0.000 S
ATOM     68   O  IDS C   4      28.213  10.672  48.2060  0.00  0.00     0.000 OA
ATOM     69   O  IDS C   4      27.859   8.265  48.0500  0.00  0.00     0.000 OA
ATOM     70   O  IDS C   4      29.202   9.222  49.8390  0.00  0.00     0.000 OA
ENDBRANCH 59 66
BRANCH 62 71
ATOM     71   C  IDS C   4      33.967   8.922  44.9130  0.00  0.00     0.000 C
ATOM     72   O  IDS C   4      33.952   7.706  44.9480  0.00  0.00     0.000 OA
ATOM     73   O  IDS C   4      34.636   9.535  44.0580  0.00  0.00     0.000 OA
ENDBRANCH 62 71
BRANCH 58 74
ATOM     74  O4  SGN C   5      33.275  10.116  48.8700  0.00  0.00     0.000 O
BRANCH 74 78
ATOM     75  C1  SGN C   5      36.309   9.778  51.7210  0.00  0.00     0.000 C
ATOM     76  C2  SGN C   5      36.331   8.739  50.5840  0.00  0.00     0.000 C
ATOM     77  C3  SGN C   5      35.402   9.166  49.4400  0.00  0.00     0.000 C
ATOM     78  C4  SGN C   5      34.033   9.585  49.9580  0.00  0.00     0.000 C
ATOM     79  C5  SGN C   5      34.201  10.628  51.0520  0.00  0.00     0.000 C
ATOM     80  O5  SGN C   5      34.982  10.068  52.1410  0.00  0.00     0.000 O
ATOM     81   O  SGN C   5      35.279   8.089  48.5170  0.00  0.00     0.000 O
ATOM     83  HD  SGN C   5      35.949   7.572  48.3310  0.00  0.00     0.000 HD
BRANCH 76 85
ATOM     83   N  SGN C   5      37.785   8.788  50.3790  0.00  0.00     0.000 N
ATOM     85  HD  SGN C   5      38.531   8.451  50.0990  0.00  0.00     0.000 HD
ATOM     85   S  SGN C   5      38.883   7.624  50.5580  0.00  0.00     0.000 S
ATOM     86   O  SGN C   5      40.175   8.101  50.2060  0.00  0.00     0.000 OA
ATOM     87   O  SGN C   5      38.723   7.095  51.8650  0.00  0.00     0.000 OA
ATOM     88   O  SGN C   5      38.333   6.708  49.4680  0.00  0.00     0.000 OA
ENDBRANCH 76 85
BRANCH 79 89
ATOM     89   C  SGN C   5      32.887  11.128  51.6170  0.00  0.00     0.000 C
ATOM     90   O  SGN C   5      31.968  10.019  51.7760  0.00  0.00     0.000 O
ATOM     91   S  SGN C   5      30.916  10.122  52.9840  0.00  0.00     0.000 S
ATOM     92   O  SGN C   5      31.684  10.398  54.1690  0.00  0.00     0.000 OA
ATOM     93   O  SGN C   5      30.002  11.187  52.6590  0.00  0.00     0.000 OA
ATOM     94   O  SGN C   5      30.296   8.825  52.9920  0.00  0.00     0.000 OA
ENDBRANCH 79 89
BRANCH 75 95
ATOM     95  O4  BDP C   6      36.884  10.905  51.2070  0.00  0.00     0.000 O
BRANCH 95 99
ATOM     96  C1  BDP C   6      39.214  14.012  53.0420  0.00  0.00     0.000 C
ATOM     97  C2  BDP C   6      39.489  12.584  53.4210  0.00  0.00     0.000 C
ATOM     98  C3  BDP C   6      38.895  11.546  52.4570  0.00  0.00     0.000 C
ATOM     99  C4  BDP C   6      37.434  11.846  52.1540  0.00  0.00     0.000 C
ATOM    100  C5  BDP C   6      37.326  13.335  51.7480  0.00  0.00     0.000 C
ATOM    101  O5  BDP C   6      37.805  14.035  52.9080  0.00  0.00     0.000 O
BRANCH 100 102
ATOM    102   C  BDP C   6      35.904  13.768  51.4990  0.00  0.00     0.000 C
ATOM    103   O  BDP C   6      35.101  13.966  52.4220  0.00  0.00     0.000 OA
ATOM    104   O  BDP C   6      35.568  13.931  50.3200  0.00  0.00     0.000 OA
ENDBRANCH 100 102
ENDBRANCH 95 99
ENDBRANCH 75 95
ENDBRANCH 74 78
ENDBRANCH 58 74
ENDBRANCH 57 61
ENDBRANCH 37 57
ENDBRANCH 36 40
ENDBRANCH 23 36
ENDBRANCH 22 26
ENDBRANCH 1 22
TORSDOF 20
ENDMDL
MODEL 45
REMARK VINA RESULT:      -6.4     15.003     19.722
ROOT
ATOM      1  C1  NGY C   1      31.615   7.698  55.7780  0.00  0.00     0.000 C
ATOM      2  C2  NGY C   1      32.622   6.591  56.0590  0.00  0.00     0.000 C
ATOM      3  C3  NGY C   1      31.927   5.233  56.0620  0.00  0.00     0.000 C
ATOM      4  C4  NGY C   1      30.778   5.288  57.0500  0.00  0.00     0.000 C
ATOM      5  C5  NGY C   1      29.805   6.378  56.6090  0.00  0.00     0.000 C
ATOM      6  O5  NGY C   1      30.501   7.651  56.6450  0.00  0.00     0.000 O
ATOM      7   O  NGY C   1      32.871   4.226  56.3970  0.00  0.00     0.000 O
ATOM      9  HD  NGY C   1      33.555   4.144  56.9210  0.00  0.00     0.000 HD
ATOM      9   O  NGY C   1      30.109   4.038  57.1230  0.00  0.00     0.000 O
ATOM     11  HD  NGY C   1      30.793   3.955  57.6480  0.00  0.00     0.000 HD
ENDROOT
BRANCH 2 13
ATOM     11   N  NGY C   1      33.690   6.879  55.1310  0.00  0.00     0.000 N
ATOM     13  HD  NGY C   1      34.355   6.573  55.5930  0.00  0.00     0.000 HD
ATOM     13   C  NGY C   1      34.957   6.580  55.4100  0.00  0.00     0.000 C
ATOM     14   O  NGY C   1      35.285   6.178  56.5280  0.00  0.00     0.000 OA
ATOM     15   C  NGY C   1      35.946   6.732  54.2950  0.00  0.00     0.000 C
ENDBRANCH 2 13
BRANCH 5 16
ATOM     16   C  NGY C   1      28.604   6.550  57.4840  0.00  0.00     0.000 C
ATOM     17   O  NGY C   1      25.146   6.188  56.3140  0.00  0.00     0.000 OA
ATOM     18   O  NGY C   1      27.433   6.553  56.6630  0.00  0.00     0.000 O
ATOM     19   S  NGY C   1      26.079   6.275  57.4090  0.00  0.00     0.000 S
ATOM     20   O  NGY C   1      25.822   7.407  58.2600  0.00  0.00     0.000 OA
ATOM     21   O  NGY C   1      26.311   5.040  58.1400  0.00  0.00     0.000 OA
ENDBRANCH 5 16
BRANCH 1 22
ATOM     22  O4  BDP C   2      31.263   7.645  54.4760  0.00  0.00     0.000 O
BRANCH 22 26
ATOM     23  C1  BDP C   2      30.294   9.529  50.9440  0.00  0.00     0.000 C
ATOM     24  C2  BDP C   2      31.503  10.079  51.6640  0.00  0.00     0.000 C
ATOM     25  C3  BDP C   2      31.957   9.097  52.7120  0.00  0.00     0.000 C
ATOM     26  C4  BDP C   2      30.795   8.725  53.6270  0.00  0.00     0.000 C
ATOM     27  C5  BDP C   2      29.577   8.356  52.7900  0.00  0.00     0.000 C
ATOM     28  O5  BDP C   2      29.182   9.412  51.8770  0.00  0.00     0.000 O
ATOM     29   O  BDP C   2      32.637  10.203  50.8050  0.00  0.00     0.000 O
ATOM     31  HD  BDP C   2      33.411  10.041  51.1600  0.00  0.00     0.000 HD
ATOM     31   O  BDP C   2      32.983   9.737  53.4610  0.00  0.00     0.000 O
ATOM     33  HD  BDP C   2      33.756   9.575  53.8150  0.00  0.00     0.000 HD
BRANCH 27 33
ATOM     33   C  BDP C   2      28.359   8.071  53.6370  0.00  0.00     0.000 C
ATOM     34   O  BDP C   2      27.819   8.954  54.3450  0.00  0.00     0.000 OA
ATOM     35   O  BDP C   2      27.916   6.935  53.6520  0.00  0.00     0.000 OA
ENDBRANCH 27 33
BRANCH 23 36
ATOM     36  O4  SGN C   3      29.867  10.260  49.8880  0.00  0.00     0.000 O
BRANCH 36 40
ATOM     37  C1  SGN C   3      28.160  10.057  46.0830  0.00  0.00     0.000 C
ATOM     38  C2  SGN C   3      27.586   9.138  47.1740  0.00  0.00     0.000 C
ATOM     39  C3  SGN C   3      27.994   9.630  48.5540  0.00  0.00     0.000 C
ATOM     40  C4  SGN C   3      29.504   9.723  48.6140  0.00  0.00     0.000 C
ATOM     41  C5  SGN C   3      29.981  10.624  47.4960  0.00  0.00     0.000 C
ATOM     42  O5  SGN C   3      29.571  10.085  46.2300  0.00  0.00     0.000 O
ATOM     43   O  SGN C   3      27.500   8.730  49.5380  0.00  0.00     0.000 O
ATOM     45  HD  SGN C   3      28.213   9.124  49.8310  0.00  0.00     0.000 HD
BRANCH 38 47
ATOM     45   N  SGN C   3      26.783   7.914  46.9960  0.00  0.00     0.000 N
ATOM     47  HD  SGN C   3      27.376   8.349  47.4540  0.00  0.00     0.000 HD
ATOM     47   S  SGN C   3      25.591   8.126  45.9660  0.00  0.00     0.000 S
ATOM     48   O  SGN C   3      24.630   9.044  46.4680  0.00  0.00     0.000 OA
ATOM     49   O  SGN C   3      26.188   8.447  44.7110  0.00  0.00     0.000 OA
ATOM     50   O  SGN C   3      24.975   6.801  45.9470  0.00  0.00     0.000 OA
ENDBRANCH 38 47
BRANCH 41 51
ATOM     51   C  SGN C   3      31.474  10.804  47.4470  0.00  0.00     0.000 C
ATOM     52   O  SGN C   3      34.046   8.172  46.8690  0.00  0.00     0.000 OA
ATOM     53   O  SGN C   3      34.047  10.474  46.2110  0.00  0.00     0.000 OA
ATOM     54   O  SGN C   3      34.090   9.872  48.5350  0.00  0.00     0.000 OA
ATOM     55   O  SGN C   3      32.074   9.562  47.1550  0.00  0.00     0.000 O
ATOM     56   S  SGN C   3      33.718   9.517  47.1980  0.00  0.00     0.000 S
ENDBRANCH 41 51
BRANCH 37 57
ATOM     57  O4  IDS C   4      27.705  11.333  46.1220  0.00  0.00     0.000 O
BRANCH 57 61
ATOM     58  C1  IDS C   4      26.146  13.955  43.8480  0.00  0.00     0.000 C
ATOM     59  C2  IDS C   4      26.117  12.523  43.4180  0.00  0.00     0.000 C
ATOM     60  C3  IDS C   4      27.419  11.783  43.7360  0.00  0.00     0.000 C
ATOM     61  C4  IDS C   4      28.125  12.171  45.0280  0.00  0.00     0.000 C
ATOM     62  C5  IDS C   4      27.892  13.651  45.3500  0.00  0.00     0.000 C
ATOM     63  O5  IDS C   4      26.525  14.012  45.2130  0.00  0.00     0.000 O
ATOM     64   O  IDS C   4      28.283  12.068  42.6520  0.00  0.00     0.000 O
ATOM     66  HD  IDS C   4      28.949  12.556  42.9160  0.00  0.00     0.000 HD
BRANCH 59 66
ATOM     66   O  IDS C   4      25.037  11.776  44.0910  0.00  0.00     0.000 O
ATOM     67   S  IDS C   4      23.843  11.268  43.1690  0.00  0.00     0.000 S
ATOM     68   O  IDS C   4      24.486  10.315  42.2950  0.00  0.00     0.000 OA
ATOM     69   O  IDS C   4      22.878  10.698  44.0890  0.00  0.00     0.000 OA
ATOM     70   O  IDS C   4      23.346  12.420  42.4340  0.00  0.00     0.000 OA
ENDBRANCH 59 66
BRANCH 62 71
ATOM     71   C  IDS C   4      28.270  14.016  46.7730  0.00  0.00     0.000 C
ATOM     72   O  IDS C   4      29.413  13.865  47.1590  0.00  0.00     0.000 OA
ATOM     73   O  IDS C   4      27.366  14.371  47.5560  0.00  0.00     0.000 OA
ENDBRANCH 62 71
BRANCH 58 74
ATOM     74  O4  SGN C   5      26.725  14.811  42.9590  0.00  0.00     0.000 O
BRANCH 74 78
ATOM     75  C1  SGN C   5      26.501  18.703  41.4610  0.00  0.00     0.000 C
ATOM     76  C2  SGN C   5      27.753  18.371  42.2950  0.00  0.00     0.000 C
ATOM     77  C3  SGN C   5      27.888  16.855  42.4920  0.00  0.00     0.000 C
ATOM     78  C4  SGN C   5      26.576  16.230  42.9470  0.00  0.00     0.000 C
ATOM     79  C5  SGN C   5      25.461  16.643  41.9980  0.00  0.00     0.000 C
ATOM     80  O5  SGN C   5      25.336  18.090  41.9970  0.00  0.00     0.000 O
ATOM     81   O  SGN C   5      28.918  16.602  43.4410  0.00  0.00     0.000 O
ATOM     83  HD  SGN C   5      29.636  17.085  43.4720  0.00  0.00     0.000 HD
BRANCH 76 85
ATOM     83   N  SGN C   5      28.938  19.183  42.6010  0.00  0.00     0.000 N
ATOM     85  HD  SGN C   5      29.376  19.930  42.6030  0.00  0.00     0.000 HD
ATOM     85   S  SGN C   5      29.652  20.324  41.7160  0.00  0.00     0.000 S
ATOM     86   O  SGN C   5      30.750  20.886  42.4220  0.00  0.00     0.000 OA
ATOM     87   O  SGN C   5      29.924  19.758  40.4430  0.00  0.00     0.000 OA
ATOM     88   O  SGN C   5      28.469  21.289  41.7050  0.00  0.00     0.000 OA
ENDBRANCH 76 85
BRANCH 79 89
ATOM     89   C  SGN C   5      24.113  16.049  42.3550  0.00  0.00     0.000 C
ATOM     90   O  SGN C   5      23.516  16.805  43.4380  0.00  0.00     0.000 O
ATOM     91   S  SGN C   5      21.914  16.890  43.4590  0.00  0.00     0.000 S
ATOM     92   O  SGN C   5      21.514  17.352  42.1560  0.00  0.00     0.000 OA
ATOM     93   O  SGN C   5      21.423  15.568  43.7490  0.00  0.00     0.000 OA
ATOM     94   O  SGN C   5      21.648  17.837  44.5080  0.00  0.00     0.000 OA
ENDBRANCH 79 89
BRANCH 75 95
ATOM     95  O4  BDP C   6      26.746  18.209  40.2100  0.00  0.00     0.000 O
BRANCH 95 99
ATOM     96  C1  BDP C   6      25.678  20.149  36.5300  0.00  0.00     0.000 C
ATOM     97  C2  BDP C   6      25.505  20.902  37.8190  0.00  0.00     0.000 C
ATOM     98  C3  BDP C   6      26.254  20.293  39.0140  0.00  0.00     0.000 C
ATOM     99  C4  BDP C   6      26.002  18.797  39.1210  0.00  0.00     0.000 C
ATOM    100  C5  BDP C   6      26.256  18.169  37.7310  0.00  0.00     0.000 C
ATOM    101  O5  BDP C   6      25.303  18.831  36.8830  0.00  0.00     0.000 O
BRANCH 100 102
ATOM    102   C  BDP C   6      25.959  16.691  37.6970  0.00  0.00     0.000 C
ATOM    103   O  BDP C   6      26.809  15.853  37.3620  0.00  0.00     0.000 OA
ATOM    104   O  BDP C   6      24.822  16.341  38.0340  0.00  0.00     0.000 OA
ENDBRANCH 100 102
ENDBRANCH 95 99
ENDBRANCH 75 95
ENDBRANCH 74 78
ENDBRANCH 58 74
ENDBRANCH 57 61
ENDBRANCH 37 57
ENDBRANCH 36 40
ENDBRANCH 23 36
ENDBRANCH 22 26
ENDBRANCH 1 22
TORSDOF 20
ENDMDL
MODEL 46
REMARK VINA RESULT:      -6.4     14.006     18.636
ROOT
ATOM      1  C1  NGY C   1      30.445   9.029  39.7730  0.00  0.00     0.000 C
ATOM      2  C2  NGY C   1      29.750   8.062  38.8240  0.00  0.00     0.000 C
ATOM      3  C3  NGY C   1      30.364   6.671  38.9440  0.00  0.00     0.000 C
ATOM      4  C4  NGY C   1      31.859   6.789  38.7200  0.00  0.00     0.000 C
ATOM      5  C5  NGY C   1      32.442   7.717  39.7830  0.00  0.00     0.000 C
ATOM      6  O5  NGY C   1      31.848   9.030  39.6150  0.00  0.00     0.000 O
ATOM      7   O  NGY C   1      29.749   5.806  38.0000  0.00  0.00     0.000 O
ATOM      9  HD  NGY C   1      29.441   5.861  37.1920  0.00  0.00     0.000 HD
ATOM      9   O  NGY C   1      32.486   5.516  38.7860  0.00  0.00     0.000 O
ATOM     11  HD  NGY C   1      32.178   5.571  37.9790  0.00  0.00     0.000 HD
ENDROOT
BRANCH 2 13
ATOM     11   N  NGY C   1      28.408   8.584  38.9320  0.00  0.00     0.000 N
ATOM     13  HD  NGY C   1      28.027   8.101  38.3210  0.00  0.00     0.000 HD
ATOM     13   C  NGY C   1      27.421   8.134  38.1590  0.00  0.00     0.000 C
ATOM     14   O  NGY C   1      27.644   7.360  37.2260  0.00  0.00     0.000 OA
ATOM     15   C  NGY C   1      26.036   8.595  38.5000  0.00  0.00     0.000 C
ENDBRANCH 2 13
BRANCH 5 16
ATOM     16   C  NGY C   1      33.920   7.928  39.7000  0.00  0.00     0.000 C
ATOM     17   O  NGY C   1      35.612  11.010  40.7480  0.00  0.00     0.000 OA
ATOM     18   O  NGY C   1      34.205   9.301  39.9830  0.00  0.00     0.000 O
ATOM     19   S  NGY C   1      35.691   9.618  40.3820  0.00  0.00     0.000 S
ATOM     20   O  NGY C   1      36.500   9.405  39.2110  0.00  0.00     0.000 OA
ATOM     21   O  NGY C   1      35.984   8.696  41.4670  0.00  0.00     0.000 OA
ENDBRANCH 5 16
BRANCH 1 22
ATOM     22  O4  BDP C   2      30.066   8.745  41.0370  0.00  0.00     0.000 O
BRANCH 22 26
ATOM     23  C1  BDP C   2      29.179   9.901  44.8900  0.00  0.00     0.000 C
ATOM     24  C2  BDP C   2      28.361  10.565  43.8070  0.00  0.00     0.000 C
ATOM     25  C3  BDP C   2      28.520   9.806  42.5160  0.00  0.00     0.000 C
ATOM     26  C4  BDP C   2      29.997   9.641  42.1780  0.00  0.00     0.000 C
ATOM     27  C5  BDP C   2      30.753   9.130  43.3970  0.00  0.00     0.000 C
ATOM     28  O5  BDP C   2      30.593   9.988  44.5560  0.00  0.00     0.000 O
ATOM     29   O  BDP C   2      26.959  10.499  44.0670  0.00  0.00     0.000 O
ATOM     31  HD  BDP C   2      26.442  10.400  43.3800  0.00  0.00     0.000 HD
ATOM     31   O  BDP C   2      27.869  10.567  41.5060  0.00  0.00     0.000 O
ATOM     33  HD  BDP C   2      27.352  10.468  40.8190  0.00  0.00     0.000 HD
BRANCH 27 33
ATOM     33   C  BDP C   2      32.241   9.038  43.1580  0.00  0.00     0.000 C
ATOM     34   O  BDP C   2      32.941  10.050  42.9160  0.00  0.00     0.000 OA
ATOM     35   O  BDP C   2      32.763   7.935  43.1690  0.00  0.00     0.000 OA
ENDBRANCH 27 33
BRANCH 23 36
ATOM     36  O4  SGN C   3      29.020  10.412  46.1330  0.00  0.00     0.000 O
BRANCH 36 40
ATOM     37  C1  SGN C   3      28.851   9.570  50.2180  0.00  0.00     0.000 C
ATOM     38  C2  SGN C   3      30.184   9.326  49.4930  0.00  0.00     0.000 C
ATOM     39  C3  SGN C   3      30.214  10.072  48.1670  0.00  0.00     0.000 C
ATOM     40  C4  SGN C   3      29.021   9.646  47.3400  0.00  0.00     0.000 C
ATOM     41  C5  SGN C   3      27.759   9.899  48.1360  0.00  0.00     0.000 C
ATOM     42  O5  SGN C   3      27.801   9.151  49.3610  0.00  0.00     0.000 O
ATOM     43   O  SGN C   3      31.432   9.781  47.4930  0.00  0.00     0.000 O
ATOM     45  HD  SGN C   3      30.814   9.975  46.9170  0.00  0.00     0.000 HD
BRANCH 38 47
ATOM     45   N  SGN C   3      31.218   9.841  50.4080  0.00  0.00     0.000 N
ATOM     47  HD  SGN C   3      30.601  10.006  49.8250  0.00  0.00     0.000 HD
ATOM     47   S  SGN C   3      31.705   8.736  51.4420  0.00  0.00     0.000 S
ATOM     48   O  SGN C   3      30.666   8.372  52.3390  0.00  0.00     0.000 OA
ATOM     49   O  SGN C   3      32.284   7.684  50.6730  0.00  0.00     0.000 OA
ATOM     50   O  SGN C   3      32.717   9.466  52.2030  0.00  0.00     0.000 OA
ENDBRANCH 38 47
BRANCH 41 51
ATOM     51   C  SGN C   3      26.492   9.520  47.4200  0.00  0.00     0.000 C
ATOM     52   O  SGN C   3      25.703   6.254  45.8100  0.00  0.00     0.000 OA
ATOM     53   O  SGN C   3      24.251   7.788  46.9380  0.00  0.00     0.000 OA
ATOM     54   O  SGN C   3      25.342   8.423  44.8950  0.00  0.00     0.000 OA
ATOM     55   O  SGN C   3      26.588   8.175  47.0060  0.00  0.00     0.000 O
ATOM     56   S  SGN C   3      25.355   7.609  46.0740  0.00  0.00     0.000 S
ENDBRANCH 41 51
BRANCH 37 57
ATOM     57  O4  IDS C   4      28.624  10.861  50.5660  0.00  0.00     0.000 O
BRANCH 57 61
ATOM     58  C1  IDS C   4      27.705  12.884  53.6540  0.00  0.00     0.000 C
ATOM     59  C2  IDS C   4      28.195  11.482  53.8330  0.00  0.00     0.000 C
ATOM     60  C3  IDS C   4      27.640  10.522  52.7780  0.00  0.00     0.000 C
ATOM     61  C4  IDS C   4      27.454  11.085  51.3760  0.00  0.00     0.000 C
ATOM     62  C5  IDS C   4      27.103  12.576  51.4310  0.00  0.00     0.000 C
ATOM     63  O5  IDS C   4      27.956  13.285  52.3180  0.00  0.00     0.000 O
ATOM     64   O  IDS C   4      26.375  10.120  53.2690  0.00  0.00     0.000 O
ATOM     66  HD  IDS C   4      25.742  10.427  52.7630  0.00  0.00     0.000 HD
BRANCH 59 66
ATOM     66   O  IDS C   4      29.665  11.404  53.7380  0.00  0.00     0.000 O
ATOM     67   S  IDS C   4      30.446  11.047  55.0770  0.00  0.00     0.000 S
ATOM     68   O  IDS C   4      30.006   9.703  55.3660  0.00  0.00     0.000 OA
ATOM     69   O  IDS C   4      31.850  11.170  54.7350  0.00  0.00     0.000 OA
ATOM     70   O  IDS C   4      30.005  11.987  56.0960  0.00  0.00     0.000 OA
ENDBRANCH 59 66
BRANCH 62 71
ATOM     71   C  IDS C   4      27.241  13.269  50.0890  0.00  0.00     0.000 C
ATOM     72   O  IDS C   4      28.069  14.146  49.9370  0.00  0.00     0.000 OA
ATOM     73   O  IDS C   4      26.421  12.992  49.1910  0.00  0.00     0.000 OA
ENDBRANCH 62 71
BRANCH 58 74
ATOM     74  O4  SGN C   5      26.488  13.144  54.2100  0.00  0.00     0.000 O
BRANCH 74 78
ATOM     75  C1  SGN C   5      23.876  16.079  55.6260  0.00  0.00     0.000 C
ATOM     76  C2  SGN C   5      23.850  15.827  54.1070  0.00  0.00     0.000 C
ATOM     77  C3  SGN C   5      24.578  14.522  53.7600  0.00  0.00     0.000 C
ATOM     78  C4  SGN C   5      25.936  14.439  54.4450  0.00  0.00     0.000 C
ATOM     79  C5  SGN C   5      25.768  14.686  55.9370  0.00  0.00     0.000 C
ATOM     80  O5  SGN C   5      25.196  16.005  56.1480  0.00  0.00     0.000 O
ATOM     81   O  SGN C   5      24.725  14.437  52.3470  0.00  0.00     0.000 O
ATOM     83  HD  SGN C   5      24.108  14.718  51.8080  0.00  0.00     0.000 HD
BRANCH 76 85
ATOM     83   N  SGN C   5      22.424  15.769  53.7610  0.00  0.00     0.000 N
ATOM     85  HD  SGN C   5      21.752  15.950  53.2460  0.00  0.00     0.000 HD
ATOM     85   S  SGN C   5      21.473  16.915  53.1480  0.00  0.00     0.000 S
ATOM     86   O  SGN C   5      20.163  16.407  52.9260  0.00  0.00     0.000 OA
ATOM     87   O  SGN C   5      21.591  18.052  53.9890  0.00  0.00     0.000 OA
ATOM     88   O  SGN C   5      22.223  17.064  51.8270  0.00  0.00     0.000 OA
ENDBRANCH 76 85
BRANCH 79 89
ATOM     89   C  SGN C   5      27.066  14.600  56.7130  0.00  0.00     0.000 C
ATOM     90   O  SGN C   5      26.792  14.660  58.1340  0.00  0.00     0.000 O
ATOM     91   S  SGN C   5      27.794  13.855  59.0960  0.00  0.00     0.000 S
ATOM     92   O  SGN C   5      27.855  12.510  58.5850  0.00  0.00     0.000 OA
ATOM     93   O  SGN C   5      29.067  14.525  59.0370  0.00  0.00     0.000 OA
ATOM     94   O  SGN C   5      27.162  13.949  60.3840  0.00  0.00     0.000 OA
ENDBRANCH 79 89
BRANCH 75 95
ATOM     95  O4  BDP C   6      23.108  15.093  56.1790  0.00  0.00     0.000 O
BRANCH 95 99
ATOM     96  C1  BDP C   6      20.417  15.568  59.4930  0.00  0.00     0.000 C
ATOM     97  C2  BDP C   6      21.005  16.797  58.8600  0.00  0.00     0.000 C
ATOM     98  C3  BDP C   6      21.630  16.560  57.4770  0.00  0.00     0.000 C
ATOM     99  C4  BDP C   6      22.558  15.354  57.4890  0.00  0.00     0.000 C
ATOM    100  C5  BDP C   6      21.797  14.172  58.1350  0.00  0.00     0.000 C
ATOM    101  O5  BDP C   6      21.493  14.649  59.4560  0.00  0.00     0.000 O
BRANCH 100 102
ATOM    102   C  BDP C   6      22.650  12.937  58.2720  0.00  0.00     0.000 C
ATOM    103   O  BDP C   6      22.286  11.950  58.9290  0.00  0.00     0.000 OA
ATOM    104   O  BDP C   6      23.738  12.941  57.6850  0.00  0.00     0.000 OA
ENDBRANCH 100 102
ENDBRANCH 95 99
ENDBRANCH 75 95
ENDBRANCH 74 78
ENDBRANCH 58 74
ENDBRANCH 57 61
ENDBRANCH 37 57
ENDBRANCH 36 40
ENDBRANCH 23 36
ENDBRANCH 22 26
ENDBRANCH 1 22
TORSDOF 20
ENDMDL
MODEL 47
REMARK VINA RESULT:      -6.3      3.969      7.132
ROOT
ATOM      1  C1  NGY C   1      15.861  12.783  47.3990  0.00  0.00     0.000 C
ATOM      2  C2  NGY C   1      16.561  13.110  48.7110  0.00  0.00     0.000 C
ATOM      3  C3  NGY C   1      17.371  14.395  48.5720  0.00  0.00     0.000 C
ATOM      4  C4  NGY C   1      18.312  14.238  47.3920  0.00  0.00     0.000 C
ATOM      5  C5  NGY C   1      17.483  13.998  46.1330  0.00  0.00     0.000 C
ATOM      6  O5  NGY C   1      16.750  12.757  46.3020  0.00  0.00     0.000 O
ATOM      7   O  NGY C   1      18.071  14.639  49.7830  0.00  0.00     0.000 O
ATOM      9  HD  NGY C   1      18.470  14.172  50.3940  0.00  0.00     0.000 HD
ATOM      9   O  NGY C   1      19.122  15.394  47.2300  0.00  0.00     0.000 O
ATOM     11  HD  NGY C   1      19.520  14.927  47.8410  0.00  0.00     0.000 HD
ENDROOT
BRANCH 2 13
ATOM     11   N  NGY C   1      15.843  12.283  49.6520  0.00  0.00     0.000 N
ATOM     13  HD  NGY C   1      15.954  12.763  50.3640  0.00  0.00     0.000 HD
ATOM     13   C  NGY C   1      15.734  12.620  50.9360  0.00  0.00     0.000 C
ATOM     14   O  NGY C   1      16.360  13.575  51.3990  0.00  0.00     0.000 OA
ATOM     15   C  NGY C   1      14.796  11.800  51.7690  0.00  0.00     0.000 C
ENDBRANCH 2 13
BRANCH 5 16
ATOM     16   C  NGY C   1      18.273  13.832  44.8750  0.00  0.00     0.000 C
ATOM     17   O  NGY C   1      18.120  10.856  42.7350  0.00  0.00     0.000 OA
ATOM     18   O  NGY C   1      18.136  12.483  44.4200  0.00  0.00     0.000 O
ATOM     19   S  NGY C   1      18.508  12.232  42.9140  0.00  0.00     0.000 S
ATOM     20   O  NGY C   1      19.929  12.421  42.7900  0.00  0.00     0.000 OA
ATOM     21   O  NGY C   1      17.725  13.209  42.1760  0.00  0.00     0.000 OA
ENDBRANCH 5 16
BRANCH 1 22
ATOM     22  O4  BDP C   2      14.843  13.651  47.2210  0.00  0.00     0.000 O
BRANCH 22 26
ATOM     23  C1  BDP C   2      10.835  14.029  46.3490  0.00  0.00     0.000 C
ATOM     24  C2  BDP C   2      11.287  12.642  46.7410  0.00  0.00     0.000 C
ATOM     25  C3  BDP C   2      12.651  12.715  47.3760  0.00  0.00     0.000 C
ATOM     26  C4  BDP C   2      13.619  13.459  46.4630  0.00  0.00     0.000 C
ATOM     27  C5  BDP C   2      12.987  14.761  45.9900  0.00  0.00     0.000 C
ATOM     28  O5  BDP C   2      11.717  14.557  45.3190  0.00  0.00     0.000 O
ATOM     29   O  BDP C   2      10.470  12.072  47.7630  0.00  0.00     0.000 O
ATOM     31  HD  BDP C   2      10.871  11.574  48.3470  0.00  0.00     0.000 HD
ATOM     31   O  BDP C   2      13.090  11.376  47.5670  0.00  0.00     0.000 O
ATOM     33  HD  BDP C   2      13.491  10.878  48.1510  0.00  0.00     0.000 HD
BRANCH 27 33
ATOM     33   C  BDP C   2      13.858  15.501  45.0030  0.00  0.00     0.000 C
ATOM     34   O  BDP C   2      13.855  16.752  44.9190  0.00  0.00     0.000 OA
ATOM     35   O  BDP C   2      14.557  14.850  44.2440  0.00  0.00     0.000 OA
ENDBRANCH 27 33
BRANCH 23 36
ATOM     36  O4  SGN C   3       9.567  14.116  45.8850  0.00  0.00     0.000 O
BRANCH 36 40
ATOM     37  C1  SGN C   3       6.014  16.257  46.3560  0.00  0.00     0.000 C
ATOM     38  C2  SGN C   3       6.836  16.510  45.0820  0.00  0.00     0.000 C
ATOM     39  C3  SGN C   3       7.826  15.376  44.8540  0.00  0.00     0.000 C
ATOM     40  C4  SGN C   3       8.696  15.233  46.0840  0.00  0.00     0.000 C
ATOM     41  C5  SGN C   3       7.806  15.011  47.2880  0.00  0.00     0.000 C
ATOM     42  O5  SGN C   3       6.915  16.126  47.4440  0.00  0.00     0.000 O
ATOM     43   O  SGN C   3       8.613  15.665  43.7050  0.00  0.00     0.000 O
ATOM     45  HD  SGN C   3       9.059  15.161  44.2490  0.00  0.00     0.000 HD
BRANCH 38 47
ATOM     45   N  SGN C   3       6.465  17.913  44.8300  0.00  0.00     0.000 N
ATOM     47  HD  SGN C   3       7.034  17.347  45.1540  0.00  0.00     0.000 HD
ATOM     47   S  SGN C   3       5.277  18.038  43.7820  0.00  0.00     0.000 S
ATOM     48   O  SGN C   3       5.675  17.598  42.4920  0.00  0.00     0.000 OA
ATOM     49   O  SGN C   3       4.150  17.383  44.3620  0.00  0.00     0.000 OA
ATOM     50   O  SGN C   3       5.085  19.486  43.7200  0.00  0.00     0.000 OA
ENDBRANCH 38 47
BRANCH 41 51
ATOM     51   C  SGN C   3       8.553  14.847  48.5830  0.00  0.00     0.000 C
ATOM     52   O  SGN C   3      11.019  17.205  50.0790  0.00  0.00     0.000 OA
ATOM     53   O  SGN C   3       9.435  15.770  51.1570  0.00  0.00     0.000 OA
ATOM     54   O  SGN C   3      11.241  14.843  49.8760  0.00  0.00     0.000 OA
ATOM     55   O  SGN C   3       9.347  15.992  48.8000  0.00  0.00     0.000 O
ATOM     56   S  SGN C   3      10.355  15.946  50.1000  0.00  0.00     0.000 S
ENDBRANCH 41 51
BRANCH 37 57
ATOM     57  O4  IDS C   4       5.235  15.148  46.3150  0.00  0.00     0.000 O
BRANCH 57 61
ATOM     58  C1  IDS C   4       2.109  13.381  47.5700  0.00  0.00     0.000 C
ATOM     59  C2  IDS C   4       2.100  14.873  47.4740  0.00  0.00     0.000 C
ATOM     60  C3  IDS C   4       3.423  15.503  47.9180  0.00  0.00     0.000 C
ATOM     61  C4  IDS C   4       4.691  14.730  47.5820  0.00  0.00     0.000 C
ATOM     62  C5  IDS C   4       4.426  13.220  47.5930  0.00  0.00     0.000 C
ATOM     63  O5  IDS C   4       3.244  12.887  46.8800  0.00  0.00     0.000 O
ATOM     64   O  IDS C   4       3.329  15.614  49.3260  0.00  0.00     0.000 O
ATOM     66  HD  IDS C   4       3.897  15.086  49.7100  0.00  0.00     0.000 HD
BRANCH 59 66
ATOM     66   O  IDS C   4       1.865  15.326  46.0900  0.00  0.00     0.000 O
ATOM     67   S  IDS C   4       0.397  15.837  45.7490  0.00  0.00     0.000 S
ATOM     68   O  IDS C   4       0.260  17.015  46.5700  0.00  0.00     0.000 OA
ATOM     69   O  IDS C   4       0.410  16.085  44.3210  0.00  0.00     0.000 OA
ATOM     70   O  IDS C   4      -0.528  14.789  46.1550  0.00  0.00     0.000 OA
ENDBRANCH 59 66
BRANCH 62 71
ATOM     71   C  IDS C   4       5.536  12.416  46.9420  0.00  0.00     0.000 C
ATOM     72   O  IDS C   4       6.470  12.014  47.6090  0.00  0.00     0.000 OA
ATOM     73   O  IDS C   4       5.517  12.273  45.7030  0.00  0.00     0.000 OA
ENDBRANCH 62 71
BRANCH 58 74
ATOM     74  O4  SGN C   5       1.810  12.882  48.8040  0.00  0.00     0.000 O
BRANCH 74 78
ATOM     75  C1  SGN C   5       0.413   9.603  50.9810  0.00  0.00     0.000 C
ATOM     76  C2  SGN C   5       1.899   9.562  50.5770  0.00  0.00     0.000 C
ATOM     77  C3  SGN C   5       2.369  10.942  50.0980  0.00  0.00     0.000 C
ATOM     78  C4  SGN C   5       1.401  11.544  49.0880  0.00  0.00     0.000 C
ATOM     79  C5  SGN C   5      -0.008  11.526  49.6620  0.00  0.00     0.000 C
ATOM     80  O5  SGN C   5      -0.396  10.157  49.9510  0.00  0.00     0.000 O
ATOM     81   O  SGN C   5       3.669  10.816  49.5300  0.00  0.00     0.000 O
ATOM     83  HD  SGN C   5       4.258  10.274  49.8600  0.00  0.00     0.000 HD
BRANCH 76 85
ATOM     83   N  SGN C   5       3.062   8.828  51.0900  0.00  0.00     0.000 N
ATOM     85  HD  SGN C   5       3.455   8.103  51.3560  0.00  0.00     0.000 HD
ATOM     85   S  SGN C   5       3.127   7.667  52.2050  0.00  0.00     0.000 S
ATOM     86   O  SGN C   5       4.462   7.203  52.3610  0.00  0.00     0.000 OA
ATOM     87   O  SGN C   5       2.476   8.161  53.3640  0.00  0.00     0.000 OA
ATOM     88   O  SGN C   5       2.291   6.649  51.4330  0.00  0.00     0.000 OA
ENDBRANCH 76 85
BRANCH 79 89
ATOM     89   C  SGN C   5      -1.045  12.130  48.7370  0.00  0.00     0.000 C
ATOM     90   O  SGN C   5      -2.248  12.437  49.4830  0.00  0.00     0.000 O
ATOM     91   S  SGN C   5      -3.107  13.696  48.9790  0.00  0.00     0.000 S
ATOM     92   O  SGN C   5      -2.192  14.804  48.8940  0.00  0.00     0.000 OA
ATOM     93   O  SGN C   5      -3.664  13.343  47.6990  0.00  0.00     0.000 OA
ATOM     94   O  SGN C   5      -4.100  13.851  50.0080  0.00  0.00     0.000 OA
ENDBRANCH 79 89
BRANCH 75 95
ATOM     95  O4  BDP C   6       0.351  10.398  52.0910  0.00  0.00     0.000 O
BRANCH 95 99
ATOM     96  C1  BDP C   6      -2.245   9.300  55.3310  0.00  0.00     0.000 C
ATOM     97  C2  BDP C   6      -2.401   8.597  54.0120  0.00  0.00     0.000 C
ATOM     98  C3  BDP C   6      -1.211   8.772  53.0560  0.00  0.00     0.000 C
ATOM     99  C4  BDP C   6      -0.801  10.233  52.9460  0.00  0.00     0.000 C
ATOM    100  C5  BDP C   6      -0.648  10.796  54.3790  0.00  0.00     0.000 C
ATOM    101  O5  BDP C   6      -1.958  10.631  54.9460  0.00  0.00     0.000 O
BRANCH 100 102
ATOM    102   C  BDP C   6      -0.317  12.266  54.3930  0.00  0.00     0.000 C
ATOM    103   O  BDP C   6       0.474  12.775  53.5860  0.00  0.00     0.000 OA
ATOM    104   O  BDP C   6      -0.885  12.959  55.2470  0.00  0.00     0.000 OA
ENDBRANCH 100 102
ENDBRANCH 95 99
ENDBRANCH 75 95
ENDBRANCH 74 78
ENDBRANCH 58 74
ENDBRANCH 57 61
ENDBRANCH 37 57
ENDBRANCH 36 40
ENDBRANCH 23 36
ENDBRANCH 22 26
ENDBRANCH 1 22
TORSDOF 20
ENDMDL
MODEL 48
REMARK VINA RESULT:      -6.3      6.311      9.736
ROOT
ATOM      1  C1  NGY C   1      16.901  12.440  47.1460  0.00  0.00     0.000 C
ATOM      2  C2  NGY C   1      17.238  12.275  48.6220  0.00  0.00     0.000 C
ATOM      3  C3  NGY C   1      18.104  13.436  49.0990  0.00  0.00     0.000 C
ATOM      4  C4  NGY C   1      19.318  13.528  48.1940  0.00  0.00     0.000 C
ATOM      5  C5  NGY C   1      18.845  13.774  46.7640  0.00  0.00     0.000 C
ATOM      6  O5  NGY C   1      18.047  12.636  46.3460  0.00  0.00     0.000 O
ATOM      7   O  NGY C   1      18.465  13.223  50.4560  0.00  0.00     0.000 O
ATOM      9  HD  NGY C   1      18.669  12.551  50.9630  0.00  0.00     0.000 HD
ATOM      9   O  NGY C   1      20.184  14.574  48.6090  0.00  0.00     0.000 O
ATOM     11  HD  NGY C   1      20.388  13.902  49.1160  0.00  0.00     0.000 HD
ENDROOT
BRANCH 2 13
ATOM     11   N  NGY C   1      16.389  12.339  49.7880  0.00  0.00     0.000 N
ATOM     13  HD  NGY C   1      16.201  11.497  49.8640  0.00  0.00     0.000 HD
ATOM     13   C  NGY C   1      15.831  11.246  50.3060  0.00  0.00     0.000 C
ATOM     14   O  NGY C   1      15.901  10.160  49.7290  0.00  0.00     0.000 OA
ATOM     15   C  NGY C   1      15.146  11.404  51.6300  0.00  0.00     0.000 C
ENDBRANCH 2 13
BRANCH 5 16
ATOM     16   C  NGY C   1      19.935  13.898  45.7470  0.00  0.00     0.000 C
ATOM     17   O  NGY C   1      21.844  16.974  45.1530  0.00  0.00     0.000 OA
ATOM     18   O  NGY C   1      20.306  15.275  45.6360  0.00  0.00     0.000 O
ATOM     19   S  NGY C   1      21.703  15.551  44.9730  0.00  0.00     0.000 S
ATOM     20   O  NGY C   1      21.596  15.182  43.5860  0.00  0.00     0.000 OA
ATOM     21   O  NGY C   1      22.634  14.725  45.7240  0.00  0.00     0.000 OA
ENDBRANCH 5 16
BRANCH 1 22
ATOM     22  O4  BDP C   2      15.999  13.436  47.0150  0.00  0.00     0.000 O
BRANCH 22 26
ATOM     23  C1  BDP C   2      12.213  13.739  45.4230  0.00  0.00     0.000 C
ATOM     24  C2  BDP C   2      12.986  12.503  45.0300  0.00  0.00     0.000 C
ATOM     25  C3  BDP C   2      14.170  12.334  45.9450  0.00  0.00     0.000 C
ATOM     26  C4  BDP C   2      15.000  13.613  45.9760  0.00  0.00     0.000 C
ATOM     27  C5  BDP C   2      14.091  14.814  46.2070  0.00  0.00     0.000 C
ATOM     28  O5  BDP C   2      13.039  14.919  45.2140  0.00  0.00     0.000 O
ATOM     29   O  BDP C   2      12.235  11.305  45.2270  0.00  0.00     0.000 O
ATOM     31  HD  BDP C   2      12.678  10.608  45.4880  0.00  0.00     0.000 HD
ATOM     31   O  BDP C   2      14.945  11.261  45.4250  0.00  0.00     0.000 O
ATOM     33  HD  BDP C   2      15.389  10.565  45.6860  0.00  0.00     0.000 HD
BRANCH 27 33
ATOM     33   C  BDP C   2      14.840  16.124  46.1520  0.00  0.00     0.000 C
ATOM     34   O  BDP C   2      15.377  16.627  47.1670  0.00  0.00     0.000 OA
ATOM     35   O  BDP C   2      14.888  16.720  45.0890  0.00  0.00     0.000 OA
ENDBRANCH 27 33
BRANCH 23 36
ATOM     36  O4  SGN C   3      11.050  13.931  44.7580  0.00  0.00     0.000 O
BRANCH 36 40
ATOM     37  C1  SGN C   3       7.192  15.516  44.9370  0.00  0.00     0.000 C
ATOM     38  C2  SGN C   3       8.367  16.504  44.8630  0.00  0.00     0.000 C
ATOM     39  C3  SGN C   3       9.623  15.801  44.3710  0.00  0.00     0.000 C
ATOM     40  C4  SGN C   3       9.913  14.626  45.2790  0.00  0.00     0.000 C
ATOM     41  C5  SGN C   3       8.700  13.722  45.3100  0.00  0.00     0.000 C
ATOM     42  O5  SGN C   3       7.564  14.452  45.7990  0.00  0.00     0.000 O
ATOM     43   O  SGN C   3      10.706  16.723  44.3690  0.00  0.00     0.000 O
ATOM     45  HD  SGN C   3      11.005  15.917  44.4760  0.00  0.00     0.000 HD
BRANCH 38 47
ATOM     45   N  SGN C   3       7.817  17.659  45.5950  0.00  0.00     0.000 N
ATOM     47  HD  SGN C   3       8.326  16.959  45.5960  0.00  0.00     0.000 HD
ATOM     47   S  SGN C   3       7.138  18.716  44.6210  0.00  0.00     0.000 S
ATOM     48   O  SGN C   3       8.098  19.329  43.7720  0.00  0.00     0.000 OA
ATOM     49   O  SGN C   3       6.054  18.044  43.9820  0.00  0.00     0.000 OA
ATOM     50   O  SGN C   3       6.665  19.728  45.5630  0.00  0.00     0.000 OA
ENDBRANCH 38 47
BRANCH 41 51
ATOM     51   C  SGN C   3       8.861  12.505  46.1800  0.00  0.00     0.000 C
ATOM     52   O  SGN C   3      10.837  12.227  49.3260  0.00  0.00     0.000 OA
ATOM     53   O  SGN C   3       8.790  11.148  48.7110  0.00  0.00     0.000 OA
ATOM     54   O  SGN C   3      10.818  10.687  47.5090  0.00  0.00     0.000 OA
ATOM     55   O  SGN C   3       9.649  12.846  47.2990  0.00  0.00     0.000 O
ATOM     56   S  SGN C   3      10.062  11.610  48.3040  0.00  0.00     0.000 S
ENDBRANCH 41 51
BRANCH 37 57
ATOM     57  O4  IDS C   4       6.822  14.987  43.7450  0.00  0.00     0.000 O
BRANCH 57 61
ATOM     58  C1  IDS C   4       4.291  14.505  40.9470  0.00  0.00     0.000 C
ATOM     59  C2  IDS C   4       4.442  15.865  41.5520  0.00  0.00     0.000 C
ATOM     60  C3  IDS C   4       4.625  15.819  43.0710  0.00  0.00     0.000 C
ATOM     61  C4  IDS C   4       5.427  14.650  43.6260  0.00  0.00     0.000 C
ATOM     62  C5  IDS C   4       5.236  13.400  42.7580  0.00  0.00     0.000 C
ATOM     63  O5  IDS C   4       5.371  13.694  41.3750  0.00  0.00     0.000 O
ATOM     64   O  IDS C   4       3.314  15.753  43.6020  0.00  0.00     0.000 O
ATOM     66  HD  IDS C   4       3.180  14.987  43.9830  0.00  0.00     0.000 HD
BRANCH 59 66
ATOM     66   O  IDS C   4       5.618  16.572  41.0100  0.00  0.00     0.000 O
ATOM     67   S  IDS C   4       5.326  17.809  40.0540  0.00  0.00     0.000 S
ATOM     68   O  IDS C   4       4.676  18.755  40.9290  0.00  0.00     0.000 OA
ATOM     69   O  IDS C   4       6.628  18.222  39.5680  0.00  0.00     0.000 OA
ATOM     70   O  IDS C   4       4.429  17.342  39.0080  0.00  0.00     0.000 OA
ENDBRANCH 59 66
BRANCH 62 71
ATOM     71   C  IDS C   4       6.256  12.315  43.0470  0.00  0.00     0.000 C
ATOM     72   O  IDS C   4       7.125  12.062  42.2340  0.00  0.00     0.000 OA
ATOM     73   O  IDS C   4       6.117  11.629  44.0790  0.00  0.00     0.000 OA
ENDBRANCH 62 71
BRANCH 58 74
ATOM     74  O4  SGN C   5       3.025  14.000  40.9770  0.00  0.00     0.000 O
BRANCH 74 78
ATOM     75  C1  SGN C   5       0.115  11.861  38.8790  0.00  0.00     0.000 C
ATOM     76  C2  SGN C   5       1.052  11.028  39.7750  0.00  0.00     0.000 C
ATOM     77  C3  SGN C   5       1.831  11.935  40.7370  0.00  0.00     0.000 C
ATOM     78  C4  SGN C   5       2.453  13.119  40.0100  0.00  0.00     0.000 C
ATOM     79  C5  SGN C   5       1.383  13.836  39.2000  0.00  0.00     0.000 C
ATOM     80  O5  SGN C   5       0.811  12.918  38.2320  0.00  0.00     0.000 O
ATOM     81   O  SGN C   5       2.835  11.163  41.3870  0.00  0.00     0.000 O
ATOM     83  HD  SGN C   5       2.697  10.341  41.6200  0.00  0.00     0.000 HD
BRANCH 76 85
ATOM     83   N  SGN C   5       1.050   9.566  39.9160  0.00  0.00     0.000 N
ATOM     85  HD  SGN C   5       0.714   8.782  39.7670  0.00  0.00     0.000 HD
ATOM     85   S  SGN C   5      -0.186   8.565  40.1690  0.00  0.00     0.000 S
ATOM     86   O  SGN C   5       0.265   7.216  40.1940  0.00  0.00     0.000 OA
ATOM     87   O  SGN C   5      -0.879   9.036  41.3140  0.00  0.00     0.000 OA
ATOM     88   O  SGN C   5      -0.913   8.864  38.8600  0.00  0.00     0.000 OA
ENDBRANCH 76 85
BRANCH 79 89
ATOM     89   C  SGN C   5       1.901  15.050  38.4560  0.00  0.00     0.000 C
ATOM     90   O  SGN C   5       0.920  15.485  37.4830  0.00  0.00     0.000 O
ATOM     91   S  SGN C   5       0.866  17.057  37.1670  0.00  0.00     0.000 S
ATOM     92   O  SGN C   5       0.740  17.723  38.4370  0.00  0.00     0.000 OA
ATOM     93   O  SGN C   5       2.090  17.395  36.4860  0.00  0.00     0.000 OA
ATOM     94   O  SGN C   5      -0.300  17.187  36.3350  0.00  0.00     0.000 OA
ENDBRANCH 79 89
BRANCH 75 95
ATOM     95  O4  BDP C   6      -0.834  12.380  39.7150  0.00  0.00     0.000 O
BRANCH 95 99
ATOM     96  C1  BDP C   6      -4.911  12.907  38.4720  0.00  0.00     0.000 C
ATOM     97  C2  BDP C   6      -3.906  12.424  37.4650  0.00  0.00     0.000 C
ATOM     98  C3  BDP C   6      -2.595  11.906  38.0750  0.00  0.00     0.000 C
ATOM     99  C4  BDP C   6      -2.038  12.885  39.0990  0.00  0.00     0.000 C
ATOM    100  C5  BDP C   6      -3.178  13.253  40.0770  0.00  0.00     0.000 C
ATOM    101  O5  BDP C   6      -4.171  13.849  39.2260  0.00  0.00     0.000 O
BRANCH 100 102
ATOM    102   C  BDP C   6      -2.760  14.283  41.0950  0.00  0.00     0.000 C
ATOM    103   O  BDP C   6      -3.004  15.490  40.9550  0.00  0.00     0.000 OA
ATOM    104   O  BDP C   6      -2.166  13.869  42.0980  0.00  0.00     0.000 OA
ENDBRANCH 100 102
ENDBRANCH 95 99
ENDBRANCH 75 95
ENDBRANCH 74 78
ENDBRANCH 58 74
ENDBRANCH 57 61
ENDBRANCH 37 57
ENDBRANCH 36 40
ENDBRANCH 23 36
ENDBRANCH 22 26
ENDBRANCH 1 22
TORSDOF 20
ENDMDL
MODEL 49
REMARK VINA RESULT:      -6.0     15.348     22.530
ROOT
ATOM      1  C1  NGY C   1      34.692   3.544  32.6500  0.00  0.00     0.000 C
ATOM      2  C2  NGY C   1      36.105   2.978  32.6350  0.00  0.00     0.000 C
ATOM      3  C3  NGY C   1      37.084   4.015  32.0950  0.00  0.00     0.000 C
ATOM      4  C4  NGY C   1      36.589   4.477  30.7380  0.00  0.00     0.000 C
ATOM      5  C5  NGY C   1      35.204   5.096  30.9070  0.00  0.00     0.000 C
ATOM      6  O5  NGY C   1      34.304   4.069  31.3980  0.00  0.00     0.000 O
ATOM      7   O  NGY C   1      38.381   3.439  32.0220  0.00  0.00     0.000 O
ATOM      9  HD  NGY C   1      38.726   2.667  31.8340  0.00  0.00     0.000 HD
ATOM      9   O  NGY C   1      37.480   5.423  30.1660  0.00  0.00     0.000 O
ATOM     11  HD  NGY C   1      37.825   4.651  29.9780  0.00  0.00     0.000 HD
ENDROOT
BRANCH 2 13
ATOM     11   N  NGY C   1      37.205   2.237  33.2050  0.00  0.00     0.000 N
ATOM     13  HD  NGY C   1      36.769   1.787  33.8020  0.00  0.00     0.000 HD
ATOM     13   C  NGY C   1      37.023   1.375  34.2040  0.00  0.00     0.000 C
ATOM     14   O  NGY C   1      35.936   1.284  34.7760  0.00  0.00     0.000 OA
ATOM     15   C  NGY C   1      38.193   0.515  34.5720  0.00  0.00     0.000 C
ENDBRANCH 2 13
BRANCH 5 16
ATOM     16   C  NGY C   1      34.581   5.611  29.6490  0.00  0.00     0.000 C
ATOM     17   O  NGY C   1      34.919   9.065  28.4610  0.00  0.00     0.000 OA
ATOM     18   O  NGY C   1      34.733   7.033  29.6100  0.00  0.00     0.000 O
ATOM     19   S  NGY C   1      34.554   7.697  28.1970  0.00  0.00     0.000 S
ATOM     20   O  NGY C   1      33.168   7.559  27.8350  0.00  0.00     0.000 OA
ATOM     21   O  NGY C   1      35.457   6.959  27.3280  0.00  0.00     0.000 OA
ENDBRANCH 5 16
BRANCH 1 22
ATOM     22  O4  BDP C   2      34.599   4.452  33.6450  0.00  0.00     0.000 O
BRANCH 22 26
ATOM     23  C1  BDP C   2      32.453   6.444  36.5410  0.00  0.00     0.000 C
ATOM     24  C2  BDP C   2      32.605   4.956  36.7530  0.00  0.00     0.000 C
ATOM     25  C3  BDP C   2      33.690   4.426  35.8530  0.00  0.00     0.000 C
ATOM     26  C4  BDP C   2      33.424   4.833  34.4080  0.00  0.00     0.000 C
ATOM     27  C5  BDP C   2      33.111   6.322  34.3390  0.00  0.00     0.000 C
ATOM     28  O5  BDP C   2      31.994   6.700  35.1840  0.00  0.00     0.000 O
ATOM     29   O  BDP C   2      33.069   4.638  38.0650  0.00  0.00     0.000 O
ATOM     31  HD  BDP C   2      33.607   3.963  38.1320  0.00  0.00     0.000 HD
ATOM     31   O  BDP C   2      33.671   3.009  35.9740  0.00  0.00     0.000 O
ATOM     33  HD  BDP C   2      34.208   2.333  36.0410  0.00  0.00     0.000 HD
BRANCH 27 33
ATOM     33   C  BDP C   2      32.742   6.771  32.9460  0.00  0.00     0.000 C
ATOM     34   O  BDP C   2      31.889   6.163  32.2550  0.00  0.00     0.000 OA
ATOM     35   O  BDP C   2      33.322   7.735  32.4730  0.00  0.00     0.000 OA
ENDBRANCH 27 33
BRANCH 23 36
ATOM     36  O4  SGN C   3      31.597   7.065  37.3860  0.00  0.00     0.000 O
BRANCH 36 40
ATOM     37  C1  SGN C   3      30.920  10.539  39.6010  0.00  0.00     0.000 C
ATOM     38  C2  SGN C   3      30.366  10.486  38.1680  0.00  0.00     0.000 C
ATOM     39  C3  SGN C   3      30.306   9.049  37.6730  0.00  0.00     0.000 C
ATOM     40  C4  SGN C   3      31.686   8.437  37.7810  0.00  0.00     0.000 C
ATOM     41  C5  SGN C   3      32.160   8.553  39.2130  0.00  0.00     0.000 C
ATOM     42  O5  SGN C   3      32.204   9.936  39.5990  0.00  0.00     0.000 O
ATOM     43   O  SGN C   3      29.847   9.035  36.3270  0.00  0.00     0.000 O
ATOM     45  HD  SGN C   3      30.348   8.344  36.4740  0.00  0.00     0.000 HD
BRANCH 38 47
ATOM     45   N  SGN C   3      30.420  11.942  38.3880  0.00  0.00     0.000 N
ATOM     47  HD  SGN C   3      30.845  11.194  38.2910  0.00  0.00     0.000 HD
ATOM     47   S  SGN C   3      29.029  12.646  38.0760  0.00  0.00     0.000 S
ATOM     48   O  SGN C   3      28.706  12.564  36.6950  0.00  0.00     0.000 OA
ATOM     49   O  SGN C   3      28.080  12.098  38.9890  0.00  0.00     0.000 OA
ATOM     50   O  SGN C   3      29.327  14.044  38.3820  0.00  0.00     0.000 OA
ENDBRANCH 38 47
BRANCH 41 51
ATOM     51   C  SGN C   3      33.527   7.974  39.4570  0.00  0.00     0.000 C
ATOM     52   O  SGN C   3      34.386   5.043  41.5900  0.00  0.00     0.000 OA
ATOM     53   O  SGN C   3      35.398   5.795  39.5550  0.00  0.00     0.000 OA
ATOM     54   O  SGN C   3      35.500   7.147  41.5370  0.00  0.00     0.000 OA
ATOM     55   O  SGN C   3      33.400   6.840  40.2850  0.00  0.00     0.000 O
ATOM     56   S  SGN C   3      34.804   6.143  40.7890  0.00  0.00     0.000 S
ENDBRANCH 41 51
BRANCH 37 57
ATOM     57  O4  IDS C   4      30.157   9.908  40.5260  0.00  0.00     0.000 O
BRANCH 57 61
ATOM     58  C1  IDS C   4      28.072   9.681  43.7000  0.00  0.00     0.000 C
ATOM     59  C2  IDS C   4      27.700  10.697  42.6670  0.00  0.00     0.000 C
ATOM     60  C3  IDS C   4      28.919  11.376  42.0380  0.00  0.00     0.000 C
ATOM     61  C4  IDS C   4      30.153  10.508  41.8360  0.00  0.00     0.000 C
ATOM     62  C5  IDS C   4      30.250   9.438  42.9290  0.00  0.00     0.000 C
ATOM     63  O5  IDS C   4      29.009   8.780  43.1340  0.00  0.00     0.000 O
ATOM     64   O  IDS C   4      29.255  12.430  42.9220  0.00  0.00     0.000 O
ATOM     66  HD  IDS C   4      30.019  12.276  43.3000  0.00  0.00     0.000 HD
BRANCH 59 66
ATOM     66   O  IDS C   4      26.941  10.089  41.5570  0.00  0.00     0.000 O
ATOM     67   S  IDS C   4      25.356  10.212  41.6290  0.00  0.00     0.000 S
ATOM     68   O  IDS C   4      25.131  11.633  41.5190  0.00  0.00     0.000 OA
ATOM     69   O  IDS C   4      24.870   9.428  40.5110  0.00  0.00     0.000 OA
ATOM     70   O  IDS C   4      24.943   9.703  42.9280  0.00  0.00     0.000 OA
ENDBRANCH 59 66
BRANCH 62 71
ATOM     71   C  IDS C   4      31.245   8.341  42.6010  0.00  0.00     0.000 C
ATOM     72   O  IDS C   4      30.864   7.302  42.0970  0.00  0.00     0.000 OA
ATOM     73   O  IDS C   4      32.432   8.491  42.9540  0.00  0.00     0.000 OA
ENDBRANCH 62 71
BRANCH 58 74
ATOM     74  O4  SGN C   5      28.302  10.185  44.9460  0.00  0.00     0.000 O
BRANCH 74 78
ATOM     75  C1  SGN C   5      28.082   9.464  49.0540  0.00  0.00     0.000 C
ATOM     76  C2  SGN C   5      29.403   9.067  48.3680  0.00  0.00     0.000 C
ATOM     77  C3  SGN C   5      29.493   9.684  46.9650  0.00  0.00     0.000 C
ATOM     78  C4  SGN C   5      28.214   9.458  46.1710  0.00  0.00     0.000 C
ATOM     79  C5  SGN C   5      27.019   9.928  46.9880  0.00  0.00     0.000 C
ATOM     80  O5  SGN C   5      26.958   9.180  48.2310  0.00  0.00     0.000 O
ATOM     81   O  SGN C   5      30.610   9.123  46.2850  0.00  0.00     0.000 O
ATOM     83  HD  SGN C   5      31.347   8.935  46.6990  0.00  0.00     0.000 HD
BRANCH 76 85
ATOM     83   N  SGN C   5      30.777   8.920  48.8640  0.00  0.00     0.000 N
ATOM     85  HD  SGN C   5      31.368   8.576  49.3960  0.00  0.00     0.000 HD
ATOM     85   S  SGN C   5      31.309   8.793  50.3790  0.00  0.00     0.000 S
ATOM     86   O  SGN C   5      32.720   8.622  50.3980  0.00  0.00     0.000 OA
ATOM     87   O  SGN C   5      30.783   9.896  51.1020  0.00  0.00     0.000 OA
ATOM     88   O  SGN C   5      30.603   7.477  50.6930  0.00  0.00     0.000 OA
ENDBRANCH 76 85
BRANCH 79 89
ATOM     89   C  SGN C   5      25.695   9.766  46.2690  0.00  0.00     0.000 C
ATOM     90   O  SGN C   5      24.655  10.466  46.9950  0.00  0.00     0.000 O
ATOM     91   S  SGN C   5      23.455  11.079  46.1220  0.00  0.00     0.000 S
ATOM     92   O  SGN C   5      24.068  11.878  45.0940  0.00  0.00     0.000 OA
ATOM     93   O  SGN C   5      22.711   9.968  45.5870  0.00  0.00     0.000 OA
ATOM     94   O  SGN C   5      22.711  11.851  47.0800  0.00  0.00     0.000 OA
ENDBRANCH 79 89
BRANCH 75 95
ATOM     95  O4  BDP C   6      28.165  10.810  49.2700  0.00  0.00     0.000 O
BRANCH 95 99
ATOM     96  C1  BDP C   6      26.749  12.563  52.9260  0.00  0.00     0.000 C
ATOM     97  C2  BDP C   6      26.482  11.106  52.6740  0.00  0.00     0.000 C
ATOM     98  C3  BDP C   6      27.337  10.490  51.5560  0.00  0.00     0.000 C
ATOM     99  C4  BDP C   6      27.321  11.357  50.3060  0.00  0.00     0.000 C
ATOM    100  C5  BDP C   6      27.646  12.809  50.7280  0.00  0.00     0.000 C
ATOM    101  O5  BDP C   6      26.588  13.138  51.6430  0.00  0.00     0.000 O
BRANCH 100 102
ATOM    102   C  BDP C   6      27.581  13.778  49.5750  0.00  0.00     0.000 C
ATOM    103   O  BDP C   6      28.587  14.357  49.1390  0.00  0.00     0.000 OA
ATOM    104   O  BDP C   6      26.471  13.966  49.0640  0.00  0.00     0.000 OA
ENDBRANCH 100 102
ENDBRANCH 95 99
ENDBRANCH 75 95
ENDBRANCH 74 78
ENDBRANCH 58 74
ENDBRANCH 57 61
ENDBRANCH 37 57
ENDBRANCH 36 40
ENDBRANCH 23 36
ENDBRANCH 22 26
ENDBRANCH 1 22
TORSDOF 20
ENDMDL
MODEL 50
REMARK VINA RESULT:      -6.0      5.307     15.370
ROOT
ATOM      1  C1  NGY C   1       0.955  10.809  39.8430  0.00  0.00     0.000 C
ATOM      2  C2  NGY C   1      -0.341  11.539  39.5210  0.00  0.00     0.000 C
ATOM      3  C3  NGY C   1      -1.350  11.348  40.6490  0.00  0.00     0.000 C
ATOM      4  C4  NGY C   1      -1.520   9.860  40.8880  0.00  0.00     0.000 C
ATOM      5  C5  NGY C   1      -0.169   9.269  41.2810  0.00  0.00     0.000 C
ATOM      6  O5  NGY C   1       0.747   9.452  40.1710  0.00  0.00     0.000 O
ATOM      7   O  NGY C   1      -2.573  11.976  40.2940  0.00  0.00     0.000 O
ATOM      9  HD  NGY C   1      -3.042  12.097  39.5750  0.00  0.00     0.000 HD
ATOM      9   O  NGY C   1      -2.476   9.615  41.9090  0.00  0.00     0.000 O
ATOM     11  HD  NGY C   1      -2.945   9.737  41.1910  0.00  0.00     0.000 HD
ENDROOT
BRANCH 2 13
ATOM     11   N  NGY C   1      -0.869  12.312  38.4210  0.00  0.00     0.000 N
ATOM     13  HD  NGY C   1      -0.485  13.069  38.5930  0.00  0.00     0.000 HD
ATOM     13   C  NGY C   1      -0.552  13.595  38.2540  0.00  0.00     0.000 C
ATOM     14   O  NGY C   1       0.088  14.210  39.1090  0.00  0.00     0.000 OA
ATOM     15   C  NGY C   1      -0.988  14.234  36.9710  0.00  0.00     0.000 C
ENDBRANCH 2 13
BRANCH 5 16
ATOM     16   C  NGY C   1      -0.176   7.800  41.5600  0.00  0.00     0.000 C
ATOM     17   O  NGY C   1      -3.160   5.918  42.5670  0.00  0.00     0.000 OA
ATOM     18   O  NGY C   1      -1.439   7.446  42.1300  0.00  0.00     0.000 O
ATOM     19   S  NGY C   1      -1.805   5.919  42.0770  0.00  0.00     0.000 S
ATOM     20   O  NGY C   1      -0.901   5.234  42.9640  0.00  0.00     0.000 OA
ATOM     21   O  NGY C   1      -1.638   5.551  40.6810  0.00  0.00     0.000 OA
ENDBRANCH 5 16
BRANCH 1 22
ATOM     22  O4  BDP C   2       1.604  11.485  40.8140  0.00  0.00     0.000 O
BRANCH 22 26
ATOM     23  C1  BDP C   2       5.052  12.576  42.7870  0.00  0.00     0.000 C
ATOM     24  C2  BDP C   2       4.910  13.112  41.3820  0.00  0.00     0.000 C
ATOM     25  C3  BDP C   2       3.484  12.955  40.9220  0.00  0.00     0.000 C
ATOM     26  C4  BDP C   2       3.029  11.510  41.0950  0.00  0.00     0.000 C
ATOM     27  C5  BDP C   2       3.380  11.020  42.4940  0.00  0.00     0.000 C
ATOM     28  O5  BDP C   2       4.795  11.143  42.7920  0.00  0.00     0.000 O
ATOM     29   O  BDP C   2       5.133  14.520  41.3110  0.00  0.00     0.000 O
ATOM     31  HD  BDP C   2       4.649  14.961  40.7450  0.00  0.00     0.000 HD
ATOM     31   O  BDP C   2       3.450  13.317  39.5480  0.00  0.00     0.000 O
ATOM     33  HD  BDP C   2       2.966  13.759  38.9810  0.00  0.00     0.000 HD
BRANCH 27 33
ATOM     33   C  BDP C   2       3.044   9.562  42.6970  0.00  0.00     0.000 C
ATOM     34   O  BDP C   2       2.397   9.161  43.6940  0.00  0.00     0.000 OA
ATOM     35   O  BDP C   2       3.448   8.754  41.8780  0.00  0.00     0.000 OA
ENDBRANCH 27 33
BRANCH 23 36
ATOM     36  O4  SGN C   3       6.259  12.777  43.3650  0.00  0.00     0.000 O
BRANCH 36 40
ATOM     37  C1  SGN C   3       8.265  13.756  46.8930  0.00  0.00     0.000 C
ATOM     38  C2  SGN C   3       7.290  12.568  46.9320  0.00  0.00     0.000 C
ATOM     39  C3  SGN C   3       6.992  12.078  45.5220  0.00  0.00     0.000 C
ATOM     40  C4  SGN C   3       6.460  13.235  44.7050  0.00  0.00     0.000 C
ATOM     41  C5  SGN C   3       7.468  14.362  44.7400  0.00  0.00     0.000 C
ATOM     42  O5  SGN C   3       7.683  14.778  46.0980  0.00  0.00     0.000 O
ATOM     43   O  SGN C   3       6.044  11.020  45.5850  0.00  0.00     0.000 O
ATOM     45  HD  SGN C   3       5.978  11.429  44.8250  0.00  0.00     0.000 HD
BRANCH 38 47
ATOM     45   N  SGN C   3       7.466  12.938  48.3470  0.00  0.00     0.000 N
ATOM     47  HD  SGN C   3       7.218  13.167  47.5490  0.00  0.00     0.000 HD
ATOM     47   S  SGN C   3       7.703  11.667  49.2720  0.00  0.00     0.000 S
ATOM     48   O  SGN C   3       6.549  10.841  49.3210  0.00  0.00     0.000 OA
ATOM     49   O  SGN C   3       8.911  11.055  48.8240  0.00  0.00     0.000 OA
ATOM     50   O  SGN C   3       7.866  12.283  50.5870  0.00  0.00     0.000 OA
ENDBRANCH 38 47
BRANCH 41 51
ATOM     51   C  SGN C   3       7.059  15.579  43.9560  0.00  0.00     0.000 C
ATOM     52   O  SGN C   3       6.823  19.085  45.1950  0.00  0.00     0.000 OA
ATOM     53   O  SGN C   3       7.449  18.271  43.0320  0.00  0.00     0.000 OA
ATOM     54   O  SGN C   3       5.223  17.928  43.8630  0.00  0.00     0.000 OA
ATOM     55   O  SGN C   3       7.154  16.712  44.7910  0.00  0.00     0.000 O
ATOM     56   S  SGN C   3       6.610  18.131  44.1600  0.00  0.00     0.000 S
ENDBRANCH 41 51
BRANCH 37 57
ATOM     57  O4  IDS C   4       9.488  13.468  46.3830  0.00  0.00     0.000 O
BRANCH 57 61
ATOM     58  C1  IDS C   4      13.266  13.082  46.5970  0.00  0.00     0.000 C
ATOM     59  C2  IDS C   4      12.418  12.439  47.6470  0.00  0.00     0.000 C
ATOM     60  C3  IDS C   4      11.242  13.318  48.0790  0.00  0.00     0.000 C
ATOM     61  C4  IDS C   4      10.590  14.164  46.9940  0.00  0.00     0.000 C
ATOM     62  C5  IDS C   4      11.622  14.588  45.9420  0.00  0.00     0.000 C
ATOM     63  O5  IDS C   4      12.431  13.496  45.5290  0.00  0.00     0.000 O
ATOM     64   O  IDS C   4      11.768  14.186  49.0660  0.00  0.00     0.000 O
ATOM     66  HD  IDS C   4      11.773  15.003  48.7790  0.00  0.00     0.000 HD
BRANCH 59 66
ATOM     66   O  IDS C   4      11.838  11.168  47.1730  0.00  0.00     0.000 O
ATOM     67   S  IDS C   4      12.803  10.211  46.3450  0.00  0.00     0.000 S
ATOM     68   O  IDS C   4      13.808   9.841  47.3130  0.00  0.00     0.000 OA
ATOM     69   O  IDS C   4      11.957   9.124  45.8960  0.00  0.00     0.000 OA
ATOM     70   O  IDS C   4      13.368  11.002  45.2620  0.00  0.00     0.000 OA
ENDBRANCH 59 66
BRANCH 62 71
ATOM     71   C  IDS C   4      10.990  15.131  44.6750  0.00  0.00     0.000 C
ATOM     72   O  IDS C   4      10.411  16.200  44.6920  0.00  0.00     0.000 OA
ATOM     73   O  IDS C   4      10.991  14.413  43.6550  0.00  0.00     0.000 OA
ENDBRANCH 62 71
BRANCH 58 74
ATOM     74  O4  SGN C   5      14.216  13.938  47.0690  0.00  0.00     0.000 O
BRANCH 74 78
ATOM     75  C1  SGN C   5      17.989  15.626  46.4670  0.00  0.00     0.000 C
ATOM     76  C2  SGN C   5      16.924  15.954  45.4030  0.00  0.00     0.000 C
ATOM     77  C3  SGN C   5      15.524  15.574  45.9020  0.00  0.00     0.000 C
ATOM     78  C4  SGN C   5      15.498  14.168  46.4850  0.00  0.00     0.000 C
ATOM     79  C5  SGN C   5      16.595  14.033  47.5310  0.00  0.00     0.000 C
ATOM     80  O5  SGN C   5      17.886  14.281  46.9150  0.00  0.00     0.000 O
ATOM     81   O  SGN C   5      14.603  15.684  44.8220  0.00  0.00     0.000 O
ATOM     83  HD  SGN C   5      14.671  16.311  44.2280  0.00  0.00     0.000 HD
BRANCH 76 85
ATOM     83   N  SGN C   5      16.876  17.368  45.0120  0.00  0.00     0.000 N
ATOM     85  HD  SGN C   5      16.935  18.005  44.4270  0.00  0.00     0.000 HD
ATOM     85   S  SGN C   5      17.835  18.185  44.0090  0.00  0.00     0.000 S
ATOM     86   O  SGN C   5      17.394  19.531  43.8850  0.00  0.00     0.000 OA
ATOM     87   O  SGN C   5      19.170  17.980  44.4450  0.00  0.00     0.000 OA
ATOM     88   O  SGN C   5      17.483  17.387  42.7560  0.00  0.00     0.000 OA
ENDBRANCH 76 85
BRANCH 79 89
ATOM     89   C  SGN C   5      16.636  12.669  48.1900  0.00  0.00     0.000 C
ATOM     90   O  SGN C   5      16.906  11.652  47.1940  0.00  0.00     0.000 O
ATOM     91   S  SGN C   5      17.725  10.362  47.6850  0.00  0.00     0.000 S
ATOM     92   O  SGN C   5      18.914  10.856  48.3290  0.00  0.00     0.000 OA
ATOM     93   O  SGN C   5      16.870   9.636  48.5890  0.00  0.00     0.000 OA
ATOM     94   O  SGN C   5      17.988   9.653  46.4620  0.00  0.00     0.000 OA
ENDBRANCH 79 89
BRANCH 75 95
ATOM     95  O4  BDP C   6      17.748  16.476  47.5090  0.00  0.00     0.000 O
BRANCH 95 99
ATOM     96  C1  BDP C   6      20.553  18.124  50.3130  0.00  0.00     0.000 C
ATOM     97  C2  BDP C   6      21.061  17.642  48.9830  0.00  0.00     0.000 C
ATOM     98  C3  BDP C   6      19.967  17.435  47.9250  0.00  0.00     0.000 C
ATOM     99  C4  BDP C   6      18.803  16.629  48.4830  0.00  0.00     0.000 C
ATOM    100  C5  BDP C   6      18.378  17.270  49.8250  0.00  0.00     0.000 C
ATOM    101  O5  BDP C   6      19.560  17.168  50.6350  0.00  0.00     0.000 O
BRANCH 100 102
ATOM    102   C  BDP C   6      17.276  16.505  50.5120  0.00  0.00     0.000 C
ATOM    103   O  BDP C   6      17.329  15.278  50.6840  0.00  0.00     0.000 OA
ATOM    104   O  BDP C   6      16.308  17.160  50.9150  0.00  0.00     0.000 OA
ENDBRANCH 100 102
ENDBRANCH 95 99
ENDBRANCH 75 95
ENDBRANCH 74 78
ENDBRANCH 58 74
ENDBRANCH 57 61
ENDBRANCH 37 57
ENDBRANCH 36 40
ENDBRANCH 23 36
ENDBRANCH 22 26
ENDBRANCH 1 22
TORSDOF 20
ENDMDL
MODEL 51
REMARK VINA RESULT:      -6.0      5.465     18.118
ROOT
ATOM      1  C1  NGY C   1      11.864  10.890  46.1200  0.00  0.00     0.000 C
ATOM      2  C2  NGY C   1      11.610   9.523  45.5020  0.00  0.00     0.000 C
ATOM      3  C3  NGY C   1      10.967   9.675  44.1270  0.00  0.00     0.000 C
ATOM      4  C4  NGY C   1       9.722  10.527  44.2760  0.00  0.00     0.000 C
ATOM      5  C5  NGY C   1      10.125  11.893  44.8240  0.00  0.00     0.000 C
ATOM      6  O5  NGY C   1      10.707  11.700  46.1390  0.00  0.00     0.000 O
ATOM      7   O  NGY C   1      10.674   8.388  43.6030  0.00  0.00     0.000 O
ATOM      9  HD  NGY C   1      10.406   7.622  43.9060  0.00  0.00     0.000 HD
ATOM      9   O  NGY C   1       9.057  10.678  43.0290  0.00  0.00     0.000 O
ATOM     11  HD  NGY C   1       8.789   9.913  43.3330  0.00  0.00     0.000 HD
ENDROOT
BRANCH 2 13
ATOM     11   N  NGY C   1      12.872   8.859  45.7260  0.00  0.00     0.000 N
ATOM     13  HD  NGY C   1      12.593   8.039  45.7360  0.00  0.00     0.000 HD
ATOM     13   C  NGY C   1      12.957   7.533  45.8230  0.00  0.00     0.000 C
ATOM     14   O  NGY C   1      11.944   6.832  45.8690  0.00  0.00     0.000 OA
ATOM     15   C  NGY C   1      14.335   6.946  45.8440  0.00  0.00     0.000 C
ENDBRANCH 2 13
BRANCH 5 16
ATOM     16   C  NGY C   1       8.999  12.857  45.0190  0.00  0.00     0.000 C
ATOM     17   O  NGY C   1       9.057  16.338  43.8610  0.00  0.00     0.000 OA
ATOM     18   O  NGY C   1       9.442  14.164  44.6440  0.00  0.00     0.000 O
ATOM     19   S  NGY C   1       8.307  15.210  44.3520  0.00  0.00     0.000 S
ATOM     20   O  NGY C   1       7.654  15.489  45.6050  0.00  0.00     0.000 OA
ATOM     21   O  NGY C   1       7.445  14.554  43.3820  0.00  0.00     0.000 OA
ENDBRANCH 5 16
BRANCH 1 22
ATOM     22  O4  BDP C   2      12.896  11.474  45.4750  0.00  0.00     0.000 O
BRANCH 22 26
ATOM     23  C1  BDP C   2      16.457  13.487  45.9510  0.00  0.00     0.000 C
ATOM     24  C2  BDP C   2      15.924  12.809  47.1900  0.00  0.00     0.000 C
ATOM     25  C3  BDP C   2      14.847  11.828  46.8060  0.00  0.00     0.000 C
ATOM     26  C4  BDP C   2      13.783  12.517  45.9570  0.00  0.00     0.000 C
ATOM     27  C5  BDP C   2      14.448  13.312  44.8410  0.00  0.00     0.000 C
ATOM     28  O5  BDP C   2      15.405  14.283  45.3380  0.00  0.00     0.000 O
ATOM     29   O  BDP C   2      16.906  11.996  47.8320  0.00  0.00     0.000 O
ATOM     31  HD  BDP C   2      16.624  11.263  48.1980  0.00  0.00     0.000 HD
ATOM     31   O  BDP C   2      14.272  11.351  48.0160  0.00  0.00     0.000 O
ATOM     33  HD  BDP C   2      13.990  10.618  48.3820  0.00  0.00     0.000 HD
BRANCH 27 33
ATOM     33   C  BDP C   2      13.454  14.099  44.0210  0.00  0.00     0.000 C
ATOM     34   O  BDP C   2      12.850  15.096  44.4830  0.00  0.00     0.000 OA
ATOM     35   O  BDP C   2      13.212  13.723  42.8860  0.00  0.00     0.000 OA
ENDBRANCH 27 33
BRANCH 23 36
ATOM     36  O4  SGN C   3      17.522  14.298  46.1470  0.00  0.00     0.000 O
BRANCH 36 40
ATOM     37  C1  SGN C   3      21.251  15.267  44.5380  0.00  0.00     0.000 C
ATOM     38  C2  SGN C   3      20.131  16.314  44.4260  0.00  0.00     0.000 C
ATOM     39  C3  SGN C   3      19.014  16.007  45.4130  0.00  0.00     0.000 C
ATOM     40  C4  SGN C   3      18.516  14.599  45.1640  0.00  0.00     0.000 C
ATOM     41  C5  SGN C   3      19.683  13.643  45.2710  0.00  0.00     0.000 C
ATOM     42  O5  SGN C   3      20.684  13.988  44.3010  0.00  0.00     0.000 O
ATOM     43   O  SGN C   3      17.967  16.954  45.2460  0.00  0.00     0.000 O
ATOM     45  HD  SGN C   3      17.646  16.211  45.5520  0.00  0.00     0.000 HD
BRANCH 38 47
ATOM     45   N  SGN C   3      21.132  16.726  43.4260  0.00  0.00     0.000 N
ATOM     47  HD  SGN C   3      20.590  16.119  43.7220  0.00  0.00     0.000 HD
ATOM     47   S  SGN C   3      21.400  18.293  43.4600  0.00  0.00     0.000 S
ATOM     48   O  SGN C   3      20.252  19.023  43.0510  0.00  0.00     0.000 OA
ATOM     49   O  SGN C   3      21.922  18.591  44.7530  0.00  0.00     0.000 OA
ATOM     50   O  SGN C   3      22.417  18.443  42.4210  0.00  0.00     0.000 OA
ENDBRANCH 38 47
BRANCH 41 51
ATOM     51   C  SGN C   3      19.319  12.200  45.0470  0.00  0.00     0.000 C
ATOM     52   O  SGN C   3      19.100   9.506  47.6110  0.00  0.00     0.000 OA
ATOM     53   O  SGN C   3      17.802   9.830  45.6260  0.00  0.00     0.000 OA
ATOM     54   O  SGN C   3      20.154   9.369  45.4800  0.00  0.00     0.000 OA
ATOM     55   O  SGN C   3      19.307  11.535  46.2910  0.00  0.00     0.000 O
ATOM     56   S  SGN C   3      19.069   9.908  46.2460  0.00  0.00     0.000 S
ENDBRANCH 41 51
BRANCH 37 57
ATOM     57  O4  IDS C   4      21.878  15.236  45.7400  0.00  0.00     0.000 O
BRANCH 57 61
ATOM     58  C1  IDS C   4      24.924  15.454  48.0080  0.00  0.00     0.000 C
ATOM     59  C2  IDS C   4      24.694  16.543  47.0090  0.00  0.00     0.000 C
ATOM     60  C3  IDS C   4      24.194  16.014  45.6620  0.00  0.00     0.000 C
ATOM     61  C4  IDS C   4      23.255  14.816  45.7060  0.00  0.00     0.000 C
ATOM     62  C5  IDS C   4      23.582  13.913  46.9020  0.00  0.00     0.000 C
ATOM     63  O5  IDS C   4      23.752  14.662  48.0970  0.00  0.00     0.000 O
ATOM     64   O  IDS C   4      25.361  15.640  44.9530  0.00  0.00     0.000 O
ATOM     66  HD  IDS C   4      25.386  14.781  44.8430  0.00  0.00     0.000 HD
BRANCH 59 66
ATOM     66   O  IDS C   4      23.681  17.507  47.4810  0.00  0.00     0.000 O
ATOM     67   S  IDS C   4      24.157  18.557  48.5780  0.00  0.00     0.000 S
ATOM     68   O  IDS C   4      25.142  19.343  47.8750  0.00  0.00     0.000 OA
ATOM     69   O  IDS C   4      22.955  19.275  48.9530  0.00  0.00     0.000 OA
ATOM     70   O  IDS C   4      24.754  17.800  49.6680  0.00  0.00     0.000 OA
ENDBRANCH 59 66
BRANCH 62 71
ATOM     71   C  IDS C   4      22.489  12.905  47.2020  0.00  0.00     0.000 C
ATOM     72   O  IDS C   4      21.612  13.176  47.9980  0.00  0.00     0.000 OA
ATOM     73   O  IDS C   4      22.575  11.768  46.6970  0.00  0.00     0.000 OA
ENDBRANCH 62 71
BRANCH 58 74
ATOM     74  O4  SGN C   5      26.138  14.839  47.9190  0.00  0.00     0.000 O
BRANCH 74 78
ATOM     75  C1  SGN C   5      28.756  12.048  49.5920  0.00  0.00     0.000 C
ATOM     76  C2  SGN C   5      27.589  11.471  48.7680  0.00  0.00     0.000 C
ATOM     77  C3  SGN C   5      26.915  12.571  47.9380  0.00  0.00     0.000 C
ATOM     78  C4  SGN C   5      26.616  13.804  48.7790  0.00  0.00     0.000 C
ATOM     79  C5  SGN C   5      27.881  14.248  49.4980  0.00  0.00     0.000 C
ATOM     80  O5  SGN C   5      28.351  13.175  50.3570  0.00  0.00     0.000 O
ATOM     81   O  SGN C   5      25.718  12.052  47.3680  0.00  0.00     0.000 O
ATOM     83  HD  SGN C   5      25.667  11.234  47.0860  0.00  0.00     0.000 HD
BRANCH 76 85
ATOM     83   N  SGN C   5      28.034  10.414  47.8510  0.00  0.00     0.000 N
ATOM     85  HD  SGN C   5      27.997   9.609  47.5330  0.00  0.00     0.000 HD
ATOM     85   S  SGN C   5      28.267   8.846  48.1350  0.00  0.00     0.000 S
ATOM     86   O  SGN C   5      28.659   8.178  46.9420  0.00  0.00     0.000 OA
ATOM     87   O  SGN C   5      29.143   8.747  49.2470  0.00  0.00     0.000 OA
ATOM     88   O  SGN C   5      26.816   8.522  48.4810  0.00  0.00     0.000 OA
ENDBRANCH 76 85
BRANCH 79 89
ATOM     89   C  SGN C   5      27.690  15.488  50.3460  0.00  0.00     0.000 C
ATOM     90   O  SGN C   5      26.769  15.205  51.4290  0.00  0.00     0.000 O
ATOM     91   S  SGN C   5      26.998  16.009  52.7990  0.00  0.00     0.000 S
ATOM     92   O  SGN C   5      28.378  15.813  53.1600  0.00  0.00     0.000 OA
ATOM     93   O  SGN C   5      26.690  17.391  52.5350  0.00  0.00     0.000 OA
ATOM     94   O  SGN C   5      26.075  15.385  53.7060  0.00  0.00     0.000 OA
ENDBRANCH 79 89
BRANCH 75 95
ATOM     95  O4  BDP C   6      29.702  12.427  48.6820  0.00  0.00     0.000 O
BRANCH 95 99
ATOM     96  C1  BDP C   6      33.927  11.893  49.2430  0.00  0.00     0.000 C
ATOM     97  C2  BDP C   6      32.987  11.363  50.2900  0.00  0.00     0.000 C
ATOM     98  C3  BDP C   6      31.525  11.256  49.8320  0.00  0.00     0.000 C
ATOM     99  C4  BDP C   6      31.059  12.540  49.1610  0.00  0.00     0.000 C
ATOM    100  C5  BDP C   6      32.109  12.929  48.0940  0.00  0.00     0.000 C
ATOM    101  O5  BDP C   6      33.314  13.109  48.8570  0.00  0.00     0.000 O
BRANCH 100 102
ATOM    102   C  BDP C   6      31.790  14.236  47.4140  0.00  0.00     0.000 C
ATOM    103   O  BDP C   6      30.974  15.043  47.8810  0.00  0.00     0.000 OA
ATOM    104   O  BDP C   6      32.394  14.481  46.3630  0.00  0.00     0.000 OA
ENDBRANCH 100 102
ENDBRANCH 95 99
ENDBRANCH 75 95
ENDBRANCH 74 78
ENDBRANCH 58 74
ENDBRANCH 57 61
ENDBRANCH 37 57
ENDBRANCH 36 40
ENDBRANCH 23 36
ENDBRANCH 22 26
ENDBRANCH 1 22
TORSDOF 20
ENDMDL
MODEL 52
REMARK VINA RESULT:      -5.9     15.892     20.908
ROOT
ATOM      1  C1  NGY C   1      33.170   7.273  36.3290  0.00  0.00     0.000 C
ATOM      2  C2  NGY C   1      34.689   7.329  36.2320  0.00  0.00     0.000 C
ATOM      3  C3  NGY C   1      35.129   8.630  35.5700  0.00  0.00     0.000 C
ATOM      4  C4  NGY C   1      34.420   8.748  34.2350  0.00  0.00     0.000 C
ATOM      5  C5  NGY C   1      32.914   8.764  34.4790  0.00  0.00     0.000 C
ATOM      6  O5  NGY C   1      32.539   7.500  35.0870  0.00  0.00     0.000 O
ATOM      7   O  NGY C   1      36.542   8.626  35.4260  0.00  0.00     0.000 O
ATOM      9  HD  NGY C   1      37.163   8.049  35.2500  0.00  0.00     0.000 HD
ATOM      9   O  NGY C   1      34.816   9.929  33.5520  0.00  0.00     0.000 O
ATOM     11  HD  NGY C   1      35.436   9.352  33.3750  0.00  0.00     0.000 HD
ENDROOT
BRANCH 2 13
ATOM     11   N  NGY C   1      35.109   6.989  37.5710  0.00  0.00     0.000 N
ATOM     13  HD  NGY C   1      35.864   6.608  37.3820  0.00  0.00     0.000 HD
ATOM     13   C  NGY C   1      36.260   6.359  37.8020  0.00  0.00     0.000 C
ATOM     14   O  NGY C   1      36.941   5.915  36.8760  0.00  0.00     0.000 OA
ATOM     15   C  NGY C   1      36.690   6.246  39.2330  0.00  0.00     0.000 C
ENDBRANCH 2 13
BRANCH 5 16
ATOM     16   C  NGY C   1      32.071   8.886  33.2500  0.00  0.00     0.000 C
ATOM     17   O  NGY C   1      32.635   6.961  30.1790  0.00  0.00     0.000 OA
ATOM     18   O  NGY C   1      32.699   8.162  32.1880  0.00  0.00     0.000 O
ATOM     19   S  NGY C   1      31.773   7.799  30.9720  0.00  0.00     0.000 S
ATOM     20   O  NGY C   1      31.442   9.032  30.3070  0.00  0.00     0.000 OA
ATOM     21   O  NGY C   1      30.625   7.137  31.5710  0.00  0.00     0.000 OA
ENDBRANCH 5 16
BRANCH 1 22
ATOM     22  O4  BDP C   2      32.764   8.137  37.2830  0.00  0.00     0.000 O
BRANCH 22 26
ATOM     23  C1  BDP C   2      30.185   9.220  40.3070  0.00  0.00     0.000 C
ATOM     24  C2  BDP C   2      30.831   7.863  40.4580  0.00  0.00     0.000 C
ATOM     25  C3  BDP C   2      31.996   7.749  39.5110  0.00  0.00     0.000 C
ATOM     26  C4  BDP C   2      31.557   8.083  38.0900  0.00  0.00     0.000 C
ATOM     27  C5  BDP C   2      30.766   9.384  38.0860  0.00  0.00     0.000 C
ATOM     28  O5  BDP C   2      29.618   9.345  38.9720  0.00  0.00     0.000 O
ATOM     29   O  BDP C   2      31.422   7.682  41.7450  0.00  0.00     0.000 O
ATOM     31  HD  BDP C   2      32.156   7.223  41.7720  0.00  0.00     0.000 HD
ATOM     31   O  BDP C   2      32.454   6.404  39.5780  0.00  0.00     0.000 O
ATOM     33  HD  BDP C   2      33.187   5.945  39.6060  0.00  0.00     0.000 HD
BRANCH 27 33
ATOM     33   C  BDP C   2      30.217   9.722  36.7200  0.00  0.00     0.000 C
ATOM     34   O  BDP C   2      29.550   8.900  36.0490  0.00  0.00     0.000 OA
ATOM     35   O  BDP C   2      30.466  10.820  36.2500  0.00  0.00     0.000 OA
ENDBRANCH 27 33
BRANCH 23 36
ATOM     36  O4  SGN C   3      29.203   9.497  41.1960  0.00  0.00     0.000 O
BRANCH 36 40
ATOM     37  C1  SGN C   3      27.545  12.549  43.5120  0.00  0.00     0.000 C
ATOM     38  C2  SGN C   3      26.828  12.175  42.2040  0.00  0.00     0.000 C
ATOM     39  C3  SGN C   3      27.281  10.805  41.7220  0.00  0.00     0.000 C
ATOM     40  C4  SGN C   3      28.787  10.812  41.5740  0.00  0.00     0.000 C
ATOM     41  C5  SGN C   3      29.406  11.212  42.8950  0.00  0.00     0.000 C
ATOM     42  O5  SGN C   3      28.943  12.518  43.2720  0.00  0.00     0.000 O
ATOM     43   O  SGN C   3      26.648  10.511  40.4830  0.00  0.00     0.000 O
ATOM     45  HD  SGN C   3      27.406  10.094  40.5330  0.00  0.00     0.000 HD
BRANCH 38 47
ATOM     45   N  SGN C   3      26.132  13.355  41.6610  0.00  0.00     0.000 N
ATOM     47  HD  SGN C   3      26.764  12.769  41.5810  0.00  0.00     0.000 HD
ATOM     47   S  SGN C   3      24.728  13.598  42.3670  0.00  0.00     0.000 S
ATOM     48   O  SGN C   3      23.814  12.551  42.0760  0.00  0.00     0.000 OA
ATOM     49   O  SGN C   3      25.002  13.844  43.7450  0.00  0.00     0.000 OA
ATOM     50   O  SGN C   3      24.258  14.803  41.6870  0.00  0.00     0.000 OA
ENDBRANCH 38 47
BRANCH 41 51
ATOM     51   C  SGN C   3      30.910  11.253  42.8830  0.00  0.00     0.000 C
ATOM     52   O  SGN C   3      33.244   8.956  44.6590  0.00  0.00     0.000 OA
ATOM     53   O  SGN C   3      33.495  10.047  42.5430  0.00  0.00     0.000 OA
ATOM     54   O  SGN C   3      33.370  11.332  44.5680  0.00  0.00     0.000 OA
ATOM     55   O  SGN C   3      31.401  10.174  43.6460  0.00  0.00     0.000 O
ATOM     56   S  SGN C   3      33.030  10.125  43.8750  0.00  0.00     0.000 S
ENDBRANCH 41 51
BRANCH 37 57
ATOM     57  O4  IDS C   4      27.275  11.731  44.5590  0.00  0.00     0.000 O
BRANCH 57 61
ATOM     58  C1  IDS C   4      26.913  11.738  48.3450  0.00  0.00     0.000 C
ATOM     59  C2  IDS C   4      26.788  13.035  47.6090  0.00  0.00     0.000 C
ATOM     60  C3  IDS C   4      27.798  13.166  46.4670  0.00  0.00     0.000 C
ATOM     61  C4  IDS C   4      28.134  11.892  45.7040  0.00  0.00     0.000 C
ATOM     62  C5  IDS C   4      28.053  10.670  46.6260  0.00  0.00     0.000 C
ATOM     63  O5  IDS C   4      26.867  10.677  47.4070  0.00  0.00     0.000 O
ATOM     64   O  IDS C   4      28.983  13.649  47.0720  0.00  0.00     0.000 O
ATOM     66  HD  IDS C   4      29.607  13.049  47.0380  0.00  0.00     0.000 HD
BRANCH 59 66
ATOM     66   O  IDS C   4      25.451  13.188  47.0050  0.00  0.00     0.000 O
ATOM     67   S  IDS C   4      24.657  14.520  47.3650  0.00  0.00     0.000 S
ATOM     68   O  IDS C   4      25.469  15.556  46.7750  0.00  0.00     0.000 OA
ATOM     69   O  IDS C   4      23.350  14.350  46.7610  0.00  0.00     0.000 OA
ATOM     70   O  IDS C   4      24.625  14.623  48.8160  0.00  0.00     0.000 OA
ENDBRANCH 59 66
BRANCH 62 71
ATOM     71   C  IDS C   4      28.037   9.355  45.8700  0.00  0.00     0.000 C
ATOM     72   O  IDS C   4      29.054   8.936  45.3540  0.00  0.00     0.000 OA
ATOM     73   O  IDS C   4      26.943   8.778  45.7050  0.00  0.00     0.000 OA
ENDBRANCH 62 71
BRANCH 58 74
ATOM     74  O4  SGN C   5      27.862  11.722  49.3240  0.00  0.00     0.000 O
BRANCH 74 78
ATOM     75  C1  SGN C   5      28.895  10.406  53.1510  0.00  0.00     0.000 C
ATOM     76  C2  SGN C   5      28.955   9.348  52.0330  0.00  0.00     0.000 C
ATOM     77  C3  SGN C   5      28.894  10.013  50.6520  0.00  0.00     0.000 C
ATOM     78  C4  SGN C   5      27.766  11.032  50.5700  0.00  0.00     0.000 C
ATOM     79  C5  SGN C   5      27.878  12.008  51.7320  0.00  0.00     0.000 C
ATOM     80  O5  SGN C   5      27.787  11.282  52.9860  0.00  0.00     0.000 O
ATOM     81   O  SGN C   5      28.729   9.005  49.6600  0.00  0.00     0.000 O
ATOM     83  HD  SGN C   5      29.118   8.233  49.7280  0.00  0.00     0.000 HD
BRANCH 76 85
ATOM     83   N  SGN C   5      29.764   8.133  51.8740  0.00  0.00     0.000 N
ATOM     85  HD  SGN C   5      30.015   7.341  52.1180  0.00  0.00     0.000 HD
ATOM     85   S  SGN C   5      30.508   7.246  52.9930  0.00  0.00     0.000 S
ATOM     86   O  SGN C   5      31.145   6.123  52.3950  0.00  0.00     0.000 OA
ATOM     87   O  SGN C   5      31.326   8.125  53.7500  0.00  0.00     0.000 OA
ATOM     88   O  SGN C   5      29.243   6.816  53.7320  0.00  0.00     0.000 OA
ENDBRANCH 76 85
BRANCH 79 89
ATOM     89   C  SGN C   5      26.808  13.081  51.7250  0.00  0.00     0.000 C
ATOM     90   O  SGN C   5      27.052  14.023  52.7990  0.00  0.00     0.000 O
ATOM     91   S  SGN C   5      26.598  15.541  52.5440  0.00  0.00     0.000 S
ATOM     92   O  SGN C   5      27.193  15.938  51.2940  0.00  0.00     0.000 OA
ATOM     93   O  SGN C   5      25.158  15.550  52.4950  0.00  0.00     0.000 OA
ATOM     94   O  SGN C   5      27.132  16.241  53.6800  0.00  0.00     0.000 OA
ENDBRANCH 79 89
BRANCH 75 95
ATOM     95  O4  BDP C   6      30.059  11.115  53.0540  0.00  0.00     0.000 O
BRANCH 95 99
ATOM     96  C1  BDP C   6      32.175  12.740  56.4200  0.00  0.00     0.000 C
ATOM     97  C2  BDP C   6      30.947  11.910  56.6710  0.00  0.00     0.000 C
ATOM     98  C3  BDP C   6      30.492  11.071  55.4680  0.00  0.00     0.000 C
ATOM     99  C4  BDP C   6      30.435  11.910  54.1990  0.00  0.00     0.000 C
ATOM    100  C5  BDP C   6      31.776  12.670  54.0680  0.00  0.00     0.000 C
ATOM    101  O5  BDP C   6      31.827  13.471  55.2590  0.00  0.00     0.000 O
BRANCH 100 102
ATOM    102   C  BDP C   6      31.804  13.599  52.8810  0.00  0.00     0.000 C
ATOM    103   O  BDP C   6      31.785  13.182  51.7130  0.00  0.00     0.000 OA
ATOM    104   O  BDP C   6      31.833  14.811  53.1210  0.00  0.00     0.000 OA
ENDBRANCH 100 102
ENDBRANCH 95 99
ENDBRANCH 75 95
ENDBRANCH 74 78
ENDBRANCH 58 74
ENDBRANCH 57 61
ENDBRANCH 37 57
ENDBRANCH 36 40
ENDBRANCH 23 36
ENDBRANCH 22 26
ENDBRANCH 1 22
TORSDOF 20
ENDMDL
MODEL 53
REMARK VINA RESULT:      -5.8      9.616     16.272
ROOT
ATOM      1  C1  NGY C   1       0.183  13.734  56.3420  0.00  0.00     0.000 C
ATOM      2  C2  NGY C   1      -1.164  13.036  56.2180  0.00  0.00     0.000 C
ATOM      3  C3  NGY C   1      -2.284  14.064  56.1010  0.00  0.00     0.000 C
ATOM      4  C4  NGY C   1      -2.186  15.011  57.2810  0.00  0.00     0.000 C
ATOM      5  C5  NGY C   1      -0.826  15.704  57.2420  0.00  0.00     0.000 C
ATOM      6  O5  NGY C   1       0.204  14.691  57.3800  0.00  0.00     0.000 O
ATOM      7   O  NGY C   1      -3.534  13.391  56.0590  0.00  0.00     0.000 O
ATOM      9  HD  NGY C   1      -3.893  12.690  56.4200  0.00  0.00     0.000 HD
ATOM      9   O  NGY C   1      -3.227  15.977  57.2470  0.00  0.00     0.000 O
ATOM     11  HD  NGY C   1      -3.585  15.276  57.6080  0.00  0.00     0.000 HD
ENDROOT
BRANCH 2 13
ATOM     11   N  NGY C   1      -1.954  11.845  56.0080  0.00  0.00     0.000 N
ATOM     13  HD  NGY C   1      -1.454  11.454  55.4190  0.00  0.00     0.000 HD
ATOM     13   C  NGY C   1      -1.577  10.900  55.1490  0.00  0.00     0.000 C
ATOM     14   O  NGY C   1      -0.616  11.069  54.3960  0.00  0.00     0.000 OA
ATOM     15   C  NGY C   1      -2.360   9.622  55.1680  0.00  0.00     0.000 C
ENDBRANCH 2 13
BRANCH 5 16
ATOM     16   C  NGY C   1      -0.580  16.684  58.3440  0.00  0.00     0.000 C
ATOM     17   O  NGY C   1       0.071  15.730  61.8260  0.00  0.00     0.000 OA
ATOM     18   O  NGY C   1      -0.581  15.983  59.5910  0.00  0.00     0.000 O
ATOM     19   S  NGY C   1       0.091  16.736  60.7950  0.00  0.00     0.000 S
ATOM     20   O  NGY C   1      -0.746  17.863  61.1120  0.00  0.00     0.000 OA
ATOM     21   O  NGY C   1       1.407  17.110  60.3030  0.00  0.00     0.000 OA
ENDBRANCH 5 16
BRANCH 1 22
ATOM     22  O4  BDP C   2       0.512  14.260  55.1440  0.00  0.00     0.000 O
BRANCH 22 26
ATOM     23  C1  BDP C   2       3.338  15.226  52.3080  0.00  0.00     0.000 C
ATOM     24  C2  BDP C   2       3.456  13.841  52.8970  0.00  0.00     0.000 C
ATOM     25  C3  BDP C   2       2.184  13.489  53.6220  0.00  0.00     0.000 C
ATOM     26  C4  BDP C   2       1.834  14.577  54.6330  0.00  0.00     0.000 C
ATOM     27  C5  BDP C   2       1.916  15.945  53.9690  0.00  0.00     0.000 C
ATOM     28  O5  BDP C   2       3.216  16.204  53.3790  0.00  0.00     0.000 O
ATOM     29   O  BDP C   2       3.563  12.830  51.8950  0.00  0.00     0.000 O
ATOM     31  HD  BDP C   2       3.175  12.074  52.0640  0.00  0.00     0.000 HD
ATOM     31   O  BDP C   2       2.416  12.256  54.2910  0.00  0.00     0.000 O
ATOM     33  HD  BDP C   2       2.028  11.501  54.4610  0.00  0.00     0.000 HD
BRANCH 27 33
ATOM     33   C  BDP C   2       1.676  17.074  54.9420  0.00  0.00     0.000 C
ATOM     34   O  BDP C   2       2.162  17.071  56.0990  0.00  0.00     0.000 OA
ATOM     35   O  BDP C   2       0.957  17.997  54.5950  0.00  0.00     0.000 OA
ENDBRANCH 27 33
BRANCH 23 36
ATOM     36  O4  SGN C   3       4.369  15.610  51.5190  0.00  0.00     0.000 O
BRANCH 36 40
ATOM     37  C1  SGN C   3       4.705  17.376  47.7510  0.00  0.00     0.000 C
ATOM     38  C2  SGN C   3       5.626  17.894  48.8670  0.00  0.00     0.000 C
ATOM     39  C3  SGN C   3       5.696  16.890  50.0080  0.00  0.00     0.000 C
ATOM     40  C4  SGN C   3       4.292  16.612  50.5010  0.00  0.00     0.000 C
ATOM     41  C5  SGN C   3       3.454  16.131  49.3370  0.00  0.00     0.000 C
ATOM     42  O5  SGN C   3       3.424  17.136  48.3120  0.00  0.00     0.000 O
ATOM     43   O  SGN C   3       6.506  17.421  51.0510  0.00  0.00     0.000 O
ATOM     45  HD  SGN C   3       5.925  16.869  51.3800  0.00  0.00     0.000 HD
BRANCH 38 47
ATOM     45   N  SGN C   3       6.461  18.050  47.6630  0.00  0.00     0.000 N
ATOM     47  HD  SGN C   3       5.859  17.598  48.0900  0.00  0.00     0.000 HD
ATOM     47   S  SGN C   3       7.118  19.495  47.5740  0.00  0.00     0.000 S
ATOM     48   O  SGN C   3       6.133  20.501  47.3860  0.00  0.00     0.000 OA
ATOM     49   O  SGN C   3       7.963  19.631  48.7150  0.00  0.00     0.000 OA
ATOM     50   O  SGN C   3       7.892  19.394  46.3380  0.00  0.00     0.000 OA
ENDBRANCH 38 47
BRANCH 41 51
ATOM     51   C  SGN C   3       2.028  15.813  49.6960  0.00  0.00     0.000 C
ATOM     52   O  SGN C   3      -0.394  13.779  47.7270  0.00  0.00     0.000 OA
ATOM     53   O  SGN C   3      -0.159  13.993  50.1000  0.00  0.00     0.000 OA
ATOM     54   O  SGN C   3      -0.805  15.882  48.7650  0.00  0.00     0.000 OA
ATOM     55   O  SGN C   3       1.484  14.974  48.7020  0.00  0.00     0.000 O
ATOM     56   S  SGN C   3      -0.119  14.626  48.8370  0.00  0.00     0.000 S
ENDBRANCH 41 51
BRANCH 37 57
ATOM     57  O4  IDS C   4       5.127  16.234  47.1540  0.00  0.00     0.000 O
BRANCH 57 61
ATOM     58  C1  IDS C   4       5.072  14.316  43.8700  0.00  0.00     0.000 C
ATOM     59  C2  IDS C   4       4.851  15.795  43.8410  0.00  0.00     0.000 C
ATOM     60  C3  IDS C   4       3.976  16.285  44.9980  0.00  0.00     0.000 C
ATOM     61  C4  IDS C   4       4.148  15.570  46.3310  0.00  0.00     0.000 C
ATOM     62  C5  IDS C   4       4.520  14.099  46.1160  0.00  0.00     0.000 C
ATOM     63  O5  IDS C   4       5.553  13.952  45.1520  0.00  0.00     0.000 O
ATOM     64   O  IDS C   4       2.643  16.098  44.5610  0.00  0.00     0.000 O
ATOM     66  HD  IDS C   4       2.252  15.487  45.0340  0.00  0.00     0.000 HD
BRANCH 59 66
ATOM     66   O  IDS C   4       6.123  16.535  43.9360  0.00  0.00     0.000 O
ATOM     67   S  IDS C   4       6.542  17.396  42.6650  0.00  0.00     0.000 S
ATOM     68   O  IDS C   4       5.511  18.404  42.5970  0.00  0.00     0.000 OA
ATOM     69   O  IDS C   4       7.867  17.897  42.9720  0.00  0.00     0.000 OA
ATOM     70   O  IDS C   4       6.501  16.509  41.5130  0.00  0.00     0.000 OA
ENDBRANCH 59 66
BRANCH 62 71
ATOM     71   C  IDS C   4       5.035  13.425  47.3730  0.00  0.00     0.000 C
ATOM     72   O  IDS C   4       6.232  13.311  47.5580  0.00  0.00     0.000 OA
ATOM     73   O  IDS C   4       4.209  12.906  48.1500  0.00  0.00     0.000 OA
ENDBRANCH 62 71
BRANCH 58 74
ATOM     74  O4  SGN C   5       4.082  13.575  43.2950  0.00  0.00     0.000 O
BRANCH 74 78
ATOM     75  C1  SGN C   5       3.144  10.240  40.9630  0.00  0.00     0.000 C
ATOM     76  C2  SGN C   5       3.884   9.954  42.2830  0.00  0.00     0.000 C
ATOM     77  C3  SGN C   5       3.866  11.189  43.1940  0.00  0.00     0.000 C
ATOM     78  C4  SGN C   5       4.271  12.448  42.4390  0.00  0.00     0.000 C
ATOM     79  C5  SGN C   5       3.423  12.582  41.1830  0.00  0.00     0.000 C
ATOM     80  O5  SGN C   5       3.626  11.420  40.3350  0.00  0.00     0.000 O
ATOM     81   O  SGN C   5       4.738  10.964  44.2960  0.00  0.00     0.000 O
ATOM     83  HD  SGN C   5       4.813  10.184  44.6640  0.00  0.00     0.000 HD
BRANCH 76 85
ATOM     83   N  SGN C   5       3.168   8.677  42.1840  0.00  0.00     0.000 N
ATOM     85  HD  SGN C   5       2.860   7.942  42.5230  0.00  0.00     0.000 HD
ATOM     85   S  SGN C   5       3.522   7.251  42.8460  0.00  0.00     0.000 S
ATOM     86   O  SGN C   5       2.524   6.292  42.5220  0.00  0.00     0.000 OA
ATOM     87   O  SGN C   5       4.858   6.942  42.4830  0.00  0.00     0.000 OA
ATOM     88   O  SGN C   5       3.382   7.703  44.2970  0.00  0.00     0.000 OA
ENDBRANCH 76 85
BRANCH 79 89
ATOM     89   C  SGN C   5       3.737  13.823  40.3720  0.00  0.00     0.000 C
ATOM     90   O  SGN C   5       3.115  13.727  39.0680  0.00  0.00     0.000 O
ATOM     91   S  SGN C   5       2.651  15.104  38.3870  0.00  0.00     0.000 S
ATOM     92   O  SGN C   5       1.833  15.783  39.3580  0.00  0.00     0.000 OA
ATOM     93   O  SGN C   5       3.846  15.840  38.0630  0.00  0.00     0.000 OA
ATOM     94   O  SGN C   5       1.921  14.670  37.2270  0.00  0.00     0.000 OA
ENDBRANCH 79 89
BRANCH 75 95
ATOM     95  O4  BDP C   6       1.830  10.403  41.3020  0.00  0.00     0.000 O
BRANCH 95 99
ATOM     96  C1  BDP C   6      -1.299   9.653  38.4570  0.00  0.00     0.000 C
ATOM     97  C2  BDP C   6       0.127   9.626  37.9850  0.00  0.00     0.000 C
ATOM     98  C3  BDP C   6       1.166   9.521  39.1110  0.00  0.00     0.000 C
ATOM     99  C4  BDP C   6       0.888  10.532  40.2150  0.00  0.00     0.000 C
ATOM    100  C5  BDP C   6      -0.602  10.409  40.6110  0.00  0.00     0.000 C
ATOM    101  O5  BDP C   6      -1.300  10.715  39.3930  0.00  0.00     0.000 O
BRANCH 100 102
ATOM    102   C  BDP C   6      -1.013  11.423  41.6480  0.00  0.00     0.000 C
ATOM    103   O  BDP C   6      -1.289  12.595  41.3560  0.00  0.00     0.000 OA
ATOM    104   O  BDP C   6      -1.076  11.029  42.8190  0.00  0.00     0.000 OA
ENDBRANCH 100 102
ENDBRANCH 95 99
ENDBRANCH 75 95
ENDBRANCH 74 78
ENDBRANCH 58 74
ENDBRANCH 57 61
ENDBRANCH 37 57
ENDBRANCH 36 40
ENDBRANCH 23 36
ENDBRANCH 22 26
ENDBRANCH 1 22
TORSDOF 20
ENDMDL
MODEL 54
REMARK VINA RESULT:      -5.8     15.886     20.530
ROOT
ATOM      1  C1  NGY C   1      30.328   7.485  56.1720  0.00  0.00     0.000 C
ATOM      2  C2  NGY C   1      30.775   6.094  56.6010  0.00  0.00     0.000 C
ATOM      3  C3  NGY C   1      29.562   5.201  56.8430  0.00  0.00     0.000 C
ATOM      4  C4  NGY C   1      28.653   5.893  57.8400  0.00  0.00     0.000 C
ATOM      5  C5  NGY C   1      28.214   7.232  57.2550  0.00  0.00     0.000 C
ATOM      6  O5  NGY C   1      29.395   8.054  57.0650  0.00  0.00     0.000 O
ATOM      7   O  NGY C   1      30.001   3.934  57.3110  0.00  0.00     0.000 O
ATOM      9  HD  NGY C   1      30.628   3.626  57.8230  0.00  0.00     0.000 HD
ATOM      9   O  NGY C   1      27.517   5.092  58.1330  0.00  0.00     0.000 O
ATOM     11  HD  NGY C   1      28.144   4.785  58.6450  0.00  0.00     0.000 HD
ENDROOT
BRANCH 2 13
ATOM     11   N  NGY C   1      31.788   5.781  55.6210  0.00  0.00     0.000 N
ATOM     13  HD  NGY C   1      32.274   5.244  56.0970  0.00  0.00     0.000 HD
ATOM     13   C  NGY C   1      32.798   4.959  55.9000  0.00  0.00     0.000 C
ATOM     14   O  NGY C   1      32.987   4.547  57.0450  0.00  0.00     0.000 OA
ATOM     15   C  NGY C   1      33.666   4.545  54.7500  0.00  0.00     0.000 C
ENDBRANCH 2 13
BRANCH 5 16
ATOM     16   C  NGY C   1      27.298   8.035  58.1230  0.00  0.00     0.000 C
ATOM     17   O  NGY C   1      27.905  11.529  59.0620  0.00  0.00     0.000 OA
ATOM     18   O  NGY C   1      27.944   9.267  58.4570  0.00  0.00     0.000 O
ATOM     19   S  NGY C   1      26.999  10.412  58.9710  0.00  0.00     0.000 S
ATOM     20   O  NGY C   1      26.499  10.005  60.2580  0.00  0.00     0.000 OA
ATOM     21   O  NGY C   1      25.966  10.519  57.9540  0.00  0.00     0.000 OA
ENDBRANCH 5 16
BRANCH 1 22
ATOM     22  O4  BDP C   2      29.865   7.421  54.9060  0.00  0.00     0.000 O
BRANCH 22 26
ATOM     23  C1  BDP C   2      29.773   9.088  51.1410  0.00  0.00     0.000 C
ATOM     24  C2  BDP C   2      31.019   9.371  51.9470  0.00  0.00     0.000 C
ATOM     25  C3  BDP C   2      31.088   8.428  53.1190  0.00  0.00     0.000 C
ATOM     26  C4  BDP C   2      29.792   8.485  53.9210  0.00  0.00     0.000 C
ATOM     27  C5  BDP C   2      28.598   8.363  52.9830  0.00  0.00     0.000 C
ATOM     28  O5  BDP C   2      28.595   9.377  51.9450  0.00  0.00     0.000 O
ATOM     29   O  BDP C   2      32.214   9.091  51.2180  0.00  0.00     0.000 O
ATOM     31  HD  BDP C   2      32.878   8.769  51.6720  0.00  0.00     0.000 HD
ATOM     31   O  BDP C   2      32.181   8.850  53.9260  0.00  0.00     0.000 O
ATOM     33  HD  BDP C   2      32.844   8.528  54.3790  0.00  0.00     0.000 HD
BRANCH 27 33
ATOM     33   C  BDP C   2      27.280   8.511  53.7040  0.00  0.00     0.000 C
ATOM     34   O  BDP C   2      26.716   7.541  54.2660  0.00  0.00     0.000 OA
ATOM     35   O  BDP C   2      26.738   9.604  53.7050  0.00  0.00     0.000 OA
ENDBRANCH 27 33
BRANCH 23 36
ATOM     36  O4  SGN C   3      29.660   9.783  49.9850  0.00  0.00     0.000 O
BRANCH 36 40
ATOM     37  C1  SGN C   3      28.195   9.594  46.0800  0.00  0.00     0.000 C
ATOM     38  C2  SGN C   3      27.387   8.889  47.1810  0.00  0.00     0.000 C
ATOM     39  C3  SGN C   3      27.792   9.407  48.5540  0.00  0.00     0.000 C
ATOM     40  C4  SGN C   3      29.284   9.221  48.7250  0.00  0.00     0.000 C
ATOM     41  C5  SGN C   3      29.996   9.925  47.5910  0.00  0.00     0.000 C
ATOM     42  O5  SGN C   3      29.573   9.371  46.3350  0.00  0.00     0.000 O
ATOM     43   O  SGN C   3      27.072   8.697  49.5540  0.00  0.00     0.000 O
ATOM     45  HD  SGN C   3      27.827   8.974  49.8750  0.00  0.00     0.000 HD
BRANCH 38 47
ATOM     45   N  SGN C   3      26.008   9.263  46.8190  0.00  0.00     0.000 N
ATOM     47  HD  SGN C   3      26.776   9.498  47.1420  0.00  0.00     0.000 HD
ATOM     47   S  SGN C   3      25.317   8.172  45.8920  0.00  0.00     0.000 S
ATOM     48   O  SGN C   3      25.949   8.096  44.6220  0.00  0.00     0.000 OA
ATOM     49   O  SGN C   3      25.260   6.966  46.6520  0.00  0.00     0.000 OA
ATOM     50   O  SGN C   3      23.988   8.748  45.6950  0.00  0.00     0.000 OA
ENDBRANCH 38 47
BRANCH 41 51
ATOM     51   C  SGN C   3      31.496   9.820  47.6460  0.00  0.00     0.000 C
ATOM     52   O  SGN C   3      33.887  12.360  48.9540  0.00  0.00     0.000 OA
ATOM     53   O  SGN C   3      34.017   9.970  49.0160  0.00  0.00     0.000 OA
ATOM     54   O  SGN C   3      34.071  11.138  46.9180  0.00  0.00     0.000 OA
ATOM     55   O  SGN C   3      32.011  10.980  48.2600  0.00  0.00     0.000 O
ATOM     56   S  SGN C   3      33.650  11.125  48.2880  0.00  0.00     0.000 S
ENDBRANCH 41 51
BRANCH 37 57
ATOM     57  O4  IDS C   4      27.991  10.932  45.9970  0.00  0.00     0.000 O
BRANCH 57 61
ATOM     58  C1  IDS C   4      26.913  13.693  43.6130  0.00  0.00     0.000 C
ATOM     59  C2  IDS C   4      26.499  12.286  43.3160  0.00  0.00     0.000 C
ATOM     60  C3  IDS C   4      27.607  11.270  43.6060  0.00  0.00     0.000 C
ATOM     61  C4  IDS C   4      28.500  11.560  44.8050  0.00  0.00     0.000 C
ATOM     62  C5  IDS C   4      28.663  13.071  45.0090  0.00  0.00     0.000 C
ATOM     63  O5  IDS C   4      27.417  13.749  44.9360  0.00  0.00     0.000 O
ATOM     64   O  IDS C   4      28.413  11.255  42.4430  0.00  0.00     0.000 O
ATOM     66  HD  IDS C   4      29.198  11.580  42.6140  0.00  0.00     0.000 HD
BRANCH 59 66
ATOM     66   O  IDS C   4      25.336  11.880  44.1280  0.00  0.00     0.000 O
ATOM     67   S  IDS C   4      23.996  11.553  43.3350  0.00  0.00     0.000 S
ATOM     68   O  IDS C   4      24.349  10.390  42.5570  0.00  0.00     0.000 OA
ATOM     69   O  IDS C   4      23.001  11.321  44.3640  0.00  0.00     0.000 OA
ATOM     70   O  IDS C   4      23.707  12.699  42.4870  0.00  0.00     0.000 OA
ENDBRANCH 59 66
BRANCH 62 71
ATOM     71   C  IDS C   4      29.245  13.429  46.3630  0.00  0.00     0.000 C
ATOM     72   O  IDS C   4      30.448  13.406  46.5350  0.00  0.00     0.000 OA
ATOM     73   O  IDS C   4      28.460  13.642  47.3090  0.00  0.00     0.000 OA
ENDBRANCH 62 71
BRANCH 58 74
ATOM     74  O4  SGN C   5      27.599  14.314  42.6110  0.00  0.00     0.000 O
BRANCH 74 78
ATOM     75  C1  SGN C   5      28.498  17.983  40.8310  0.00  0.00     0.000 C
ATOM     76  C2  SGN C   5      29.516  17.466  41.8650  0.00  0.00     0.000 C
ATOM     77  C3  SGN C   5      29.262  15.987  42.1840  0.00  0.00     0.000 C
ATOM     78  C4  SGN C   5      27.792  15.722  42.4790  0.00  0.00     0.000 C
ATOM     79  C5  SGN C   5      26.940  16.274  41.3460  0.00  0.00     0.000 C
ATOM     80  O5  SGN C   5      27.161  17.705  41.2260  0.00  0.00     0.000 O
ATOM     81   O  SGN C   5      30.071  15.609  43.2930  0.00  0.00     0.000 O
ATOM     83  HD  SGN C   5      30.872  15.919  43.3980  0.00  0.00     0.000 HD
BRANCH 76 85
ATOM     83   N  SGN C   5      30.638  17.934  41.0410  0.00  0.00     0.000 N
ATOM     85  HD  SGN C   5      31.475  18.116  40.9180  0.00  0.00     0.000 HD
ATOM     85   S  SGN C   5      31.881  18.875  41.4450  0.00  0.00     0.000 S
ATOM     86   O  SGN C   5      32.761  19.038  40.3400  0.00  0.00     0.000 OA
ATOM     87   O  SGN C   5      31.343  20.055  42.0220  0.00  0.00     0.000 OA
ATOM     88   O  SGN C   5      32.482  17.922  42.4750  0.00  0.00     0.000 OA
ENDBRANCH 76 85
BRANCH 79 89
ATOM     89   C  SGN C   5      25.455  16.037  41.5360  0.00  0.00     0.000 C
ATOM     90   O  SGN C   5      24.922  16.998  42.4800  0.00  0.00     0.000 O
ATOM     91   S  SGN C   5      23.397  17.449  42.2660  0.00  0.00     0.000 S
ATOM     92   O  SGN C   5      23.288  17.878  40.8960  0.00  0.00     0.000 OA
ATOM     93   O  SGN C   5      22.573  16.303  42.5510  0.00  0.00     0.000 OA
ATOM     94   O  SGN C   5      23.232  18.517  43.2150  0.00  0.00     0.000 OA
ENDBRANCH 79 89
BRANCH 75 95
ATOM     95  O4  BDP C   6      28.780  17.322  39.6690  0.00  0.00     0.000 O
BRANCH 95 99
ATOM     96  C1  BDP C   6      28.655  19.328  35.8730  0.00  0.00     0.000 C
ATOM     97  C2  BDP C   6      28.189  20.067  37.0950  0.00  0.00     0.000 C
ATOM     98  C3  BDP C   6      28.622  19.430  38.4250  0.00  0.00     0.000 C
ATOM     99  C4  BDP C   6      28.328  17.937  38.4430  0.00  0.00     0.000 C
ATOM    100  C5  BDP C   6      28.898  17.322  37.1430  0.00  0.00     0.000 C
ATOM    101  O5  BDP C   6      28.186  18.013  36.1040  0.00  0.00     0.000 O
BRANCH 100 102
ATOM    102   C  BDP C   6      28.596  15.851  37.0150  0.00  0.00     0.000 C
ATOM    103   O  BDP C   6      27.436  15.414  36.9780  0.00  0.00     0.000 OA
ATOM    104   O  BDP C   6      29.564  15.086  36.9340  0.00  0.00     0.000 OA
ENDBRANCH 100 102
ENDBRANCH 95 99
ENDBRANCH 75 95
ENDBRANCH 74 78
ENDBRANCH 58 74
ENDBRANCH 57 61
ENDBRANCH 37 57
ENDBRANCH 36 40
ENDBRANCH 23 36
ENDBRANCH 22 26
ENDBRANCH 1 22
TORSDOF 20
ENDMDL
MODEL 55
REMARK VINA RESULT:      -5.8     10.448     17.082
ROOT
ATOM      1  C1  NGY C   1       4.846  12.552  50.3920  0.00  0.00     0.000 C
ATOM      2  C2  NGY C   1       4.128  11.822  51.5190  0.00  0.00     0.000 C
ATOM      3  C3  NGY C   1       3.190  12.775  52.2520  0.00  0.00     0.000 C
ATOM      4  C4  NGY C   1       3.994  13.978  52.7080  0.00  0.00     0.000 C
ATOM      5  C5  NGY C   1       4.589  14.663  51.4810  0.00  0.00     0.000 C
ATOM      6  O5  NGY C   1       5.490  13.729  50.8310  0.00  0.00     0.000 O
ATOM      7   O  NGY C   1       2.588  12.091  53.3420  0.00  0.00     0.000 O
ATOM      9  HD  NGY C   1       2.818  11.491  53.9220  0.00  0.00     0.000 HD
ATOM      9   O  NGY C   1       3.180  14.890  53.4300  0.00  0.00     0.000 O
ATOM     11  HD  NGY C   1       3.410  14.290  54.0100  0.00  0.00     0.000 HD
ENDROOT
BRANCH 2 13
ATOM     11   N  NGY C   1       3.473  10.682  52.1160  0.00  0.00     0.000 N
ATOM     13  HD  NGY C   1       3.657  10.090  51.5120  0.00  0.00     0.000 HD
ATOM     13   C  NGY C   1       3.479   9.487  51.5280  0.00  0.00     0.000 C
ATOM     14   O  NGY C   1       3.919   9.340  50.3870  0.00  0.00     0.000 OA
ATOM     15   C  NGY C   1       2.953   8.339  52.3340  0.00  0.00     0.000 C
ENDBRANCH 2 13
BRANCH 5 16
ATOM     16   C  NGY C   1       5.408  15.881  51.7680  0.00  0.00     0.000 C
ATOM     17   O  NGY C   1       7.105  16.505  54.9590  0.00  0.00     0.000 OA
ATOM     18   O  NGY C   1       5.734  15.898  53.1600  0.00  0.00     0.000 O
ATOM     19   S  NGY C   1       6.935  16.827  53.5650  0.00  0.00     0.000 S
ATOM     20   O  NGY C   1       6.506  18.187  53.3660  0.00  0.00     0.000 OA
ATOM     21   O  NGY C   1       8.021  16.426  52.6870  0.00  0.00     0.000 OA
ENDBRANCH 5 16
BRANCH 1 22
ATOM     22  O4  BDP C   2       3.966  12.783  49.3940  0.00  0.00     0.000 O
BRANCH 22 26
ATOM     23  C1  BDP C   2       3.078  13.306  45.4060  0.00  0.00     0.000 C
ATOM     24  C2  BDP C   2       3.742  11.996  45.7580  0.00  0.00     0.000 C
ATOM     25  C3  BDP C   2       3.675  11.778  47.2470  0.00  0.00     0.000 C
ATOM     26  C4  BDP C   2       4.240  12.989  47.9830  0.00  0.00     0.000 C
ATOM     27  C5  BDP C   2       3.626  14.266  47.4250  0.00  0.00     0.000 C
ATOM     28  O5  BDP C   2       3.827  14.406  45.9950  0.00  0.00     0.000 O
ATOM     29   O  BDP C   2       3.044  10.871  45.2220  0.00  0.00     0.000 O
ATOM     31  HD  BDP C   2       3.031  10.155  45.7090  0.00  0.00     0.000 HD
ATOM     31   O  BDP C   2       4.456  10.625  47.5320  0.00  0.00     0.000 O
ATOM     33  HD  BDP C   2       4.444   9.909  48.0190  0.00  0.00     0.000 HD
BRANCH 27 33
ATOM     33   C  BDP C   2       4.217  15.509  48.0460  0.00  0.00     0.000 C
ATOM     34   O  BDP C   2       3.500  16.407  48.5500  0.00  0.00     0.000 OA
ATOM     35   O  BDP C   2       5.428  15.652  48.0200  0.00  0.00     0.000 OA
ENDBRANCH 27 33
BRANCH 23 36
ATOM     36  O4  SGN C   3       2.956  13.557  44.0820  0.00  0.00     0.000 O
BRANCH 36 40
ATOM     37  C1  SGN C   3       1.070  15.943  41.2220  0.00  0.00     0.000 C
ATOM     38  C2  SGN C   3       2.407  16.438  41.7960  0.00  0.00     0.000 C
ATOM     39  C3  SGN C   3       3.157  15.294  42.4620  0.00  0.00     0.000 C
ATOM     40  C4  SGN C   3       2.268  14.678  43.5200  0.00  0.00     0.000 C
ATOM     41  C5  SGN C   3       0.971  14.242  42.8740  0.00  0.00     0.000 C
ATOM     42  O5  SGN C   3       0.318  15.376  42.2840  0.00  0.00     0.000 O
ATOM     43   O  SGN C   3       4.360  15.792  43.0350  0.00  0.00     0.000 O
ATOM     45  HD  SGN C   3       4.092  15.094  43.4720  0.00  0.00     0.000 HD
BRANCH 38 47
ATOM     45   N  SGN C   3       3.050  17.764  41.7510  0.00  0.00     0.000 N
ATOM     47  HD  SGN C   3       2.963  16.999  42.1470  0.00  0.00     0.000 HD
ATOM     47   S  SGN C   3       2.839  18.482  40.3490  0.00  0.00     0.000 S
ATOM     48   O  SGN C   3       3.509  17.789  39.3060  0.00  0.00     0.000 OA
ATOM     49   O  SGN C   3       1.434  18.670  40.1930  0.00  0.00     0.000 OA
ATOM     50   O  SGN C   3       3.532  19.752  40.5580  0.00  0.00     0.000 OA
ENDBRANCH 38 47
BRANCH 41 51
ATOM     51   C  SGN C   3      -0.006  13.604  43.8240  0.00  0.00     0.000 C
ATOM     52   O  SGN C   3      -3.349  14.905  44.8300  0.00  0.00     0.000 OA
ATOM     53   O  SGN C   3      -2.618  12.644  44.5370  0.00  0.00     0.000 OA
ATOM     54   O  SGN C   3      -1.670  14.015  46.2660  0.00  0.00     0.000 OA
ATOM     55   O  SGN C   3      -1.168  14.401  43.8850  0.00  0.00     0.000 O
ATOM     56   S  SGN C   3      -2.307  13.948  44.9840  0.00  0.00     0.000 S
ENDBRANCH 41 51
BRANCH 37 57
ATOM     57  O4  IDS C   4       1.185  15.014  40.2410  0.00  0.00     0.000 O
BRANCH 57 61
ATOM     58  C1  IDS C   4      -0.379  14.825  36.7790  0.00  0.00     0.000 C
ATOM     59  C2  IDS C   4      -0.603  16.053  37.6010  0.00  0.00     0.000 C
ATOM     60  C3  IDS C   4      -0.841  15.740  39.0810  0.00  0.00     0.000 C
ATOM     61  C4  IDS C   4      -0.058  14.571  39.6630  0.00  0.00     0.000 C
ATOM     62  C5  IDS C   4       0.185  13.495  38.5980  0.00  0.00     0.000 C
ATOM     63  O5  IDS C   4       0.650  14.057  37.3790  0.00  0.00     0.000 O
ATOM     64   O  IDS C   4      -2.222  15.446  39.1820  0.00  0.00     0.000 O
ATOM     66  HD  IDS C   4      -2.340  14.612  39.3850  0.00  0.00     0.000 HD
BRANCH 59 66
ATOM     66   O  IDS C   4       0.558  16.962  37.5480  0.00  0.00     0.000 O
ATOM     67   S  IDS C   4       0.325  18.373  36.8500  0.00  0.00     0.000 S
ATOM     68   O  IDS C   4      -0.629  19.016  37.7210  0.00  0.00     0.000 OA
ATOM     69   O  IDS C   4       1.635  18.993  36.8160  0.00  0.00     0.000 OA
ATOM     70   O  IDS C   4      -0.239  18.115  35.5350  0.00  0.00     0.000 OA
ENDBRANCH 59 66
BRANCH 62 71
ATOM     71   C  IDS C   4       1.236  12.481  39.0080  0.00  0.00     0.000 C
ATOM     72   O  IDS C   4       2.186  12.259  38.2820  0.00  0.00     0.000 OA
ATOM     73   O  IDS C   4       1.045  11.814  40.0440  0.00  0.00     0.000 OA
ENDBRANCH 62 71
BRANCH 58 74
ATOM     74  O4  SGN C   5      -1.515  14.201  36.3550  0.00  0.00     0.000 O
BRANCH 74 78
ATOM     75  C1  SGN C   5      -3.294  11.862  33.3870  0.00  0.00     0.000 C
ATOM     76  C2  SGN C   5      -2.453  11.104  34.4320  0.00  0.00     0.000 C
ATOM     77  C3  SGN C   5      -2.147  12.002  35.6370  0.00  0.00     0.000 C
ATOM     78  C4  SGN C   5      -1.630  13.367  35.2020  0.00  0.00     0.000 C
ATOM     79  C5  SGN C   5      -2.593  13.977  34.1940  0.00  0.00     0.000 C
ATOM     80  O5  SGN C   5      -2.700  13.105  33.0370  0.00  0.00     0.000 O
ATOM     81   O  SGN C   5      -1.194  11.349  36.4700  0.00  0.00     0.000 O
ATOM     83  HD  SGN C   5      -1.208  10.491  36.5900  0.00  0.00     0.000 HD
BRANCH 76 85
ATOM     83   N  SGN C   5      -2.661   9.837  33.7190  0.00  0.00     0.000 N
ATOM     85  HD  SGN C   5      -3.112   9.117  33.5500  0.00  0.00     0.000 HD
ATOM     85   S  SGN C   5      -3.199   8.425  34.2790  0.00  0.00     0.000 S
ATOM     86   O  SGN C   5      -3.286   7.474  33.2260  0.00  0.00     0.000 OA
ATOM     87   O  SGN C   5      -2.392   8.082  35.3940  0.00  0.00     0.000 OA
ATOM     88   O  SGN C   5      -4.588   8.922  34.6720  0.00  0.00     0.000 OA
ENDBRANCH 76 85
BRANCH 79 89
ATOM     89   C  SGN C   5      -2.176  15.353  33.7170  0.00  0.00     0.000 C
ATOM     90   O  SGN C   5      -2.102  15.368  32.2700  0.00  0.00     0.000 O
ATOM     91   S  SGN C   5      -2.445  16.759  31.5460  0.00  0.00     0.000 S
ATOM     92   O  SGN C   5      -3.725  17.177  32.0550  0.00  0.00     0.000 OA
ATOM     93   O  SGN C   5      -1.392  17.682  31.8810  0.00  0.00     0.000 OA
ATOM     94   O  SGN C   5      -2.470  16.408  30.1520  0.00  0.00     0.000 OA
ENDBRANCH 79 89
BRANCH 75 95
ATOM     95  O4  BDP C   6      -4.507  12.083  33.9750  0.00  0.00     0.000 O
BRANCH 95 99
ATOM     96  C1  BDP C   6      -8.364  12.147  32.0860  0.00  0.00     0.000 C
ATOM     97  C2  BDP C   6      -7.222  11.483  31.3710  0.00  0.00     0.000 C
ATOM     98  C3  BDP C   6      -6.010  11.173  32.2630  0.00  0.00     0.000 C
ATOM     99  C4  BDP C   6      -5.612  12.383  33.0950  0.00  0.00     0.000 C
ATOM    100  C5  BDP C   6      -6.884  12.924  33.7900  0.00  0.00     0.000 C
ATOM    101  O5  BDP C   6      -7.746  13.267  32.6930  0.00  0.00     0.000 O
BRANCH 100 102
ATOM    102   C  BDP C   6      -6.623  14.178  34.5850  0.00  0.00     0.000 C
ATOM    103   O  BDP C   6      -5.897  15.090  34.1640  0.00  0.00     0.000 OA
ATOM    104   O  BDP C   6      -7.181  14.268  35.6850  0.00  0.00     0.000 OA
ENDBRANCH 100 102
ENDBRANCH 95 99
ENDBRANCH 75 95
ENDBRANCH 74 78
ENDBRANCH 58 74
ENDBRANCH 57 61
ENDBRANCH 37 57
ENDBRANCH 36 40
ENDBRANCH 23 36
ENDBRANCH 22 26
ENDBRANCH 1 22
TORSDOF 20
ENDMDL
MODEL 56
REMARK VINA RESULT:      -5.6     16.545     22.854
ROOT
ATOM      1  C1  NGY C   1      29.540  12.147  53.0590  0.00  0.00     0.000 C
ATOM      2  C2  NGY C   1      29.180  10.987  53.9760  0.00  0.00     0.000 C
ATOM      3  C3  NGY C   1      27.792  11.195  54.5720  0.00  0.00     0.000 C
ATOM      4  C4  NGY C   1      27.764  12.551  55.2500  0.00  0.00     0.000 C
ATOM      5  C5  NGY C   1      28.058  13.626  54.2080  0.00  0.00     0.000 C
ATOM      6  O5  NGY C   1      29.394  13.402  53.6880  0.00  0.00     0.000 O
ATOM      7   O  NGY C   1      27.509  10.139  55.4790  0.00  0.00     0.000 O
ATOM      9  HD  NGY C   1      27.944   9.659  56.0540  0.00  0.00     0.000 HD
ATOM      9   O  NGY C   1      26.502  12.791  55.8560  0.00  0.00     0.000 O
ATOM     11  HD  NGY C   1      26.937  12.311  56.4310  0.00  0.00     0.000 HD
ENDROOT
BRANCH 2 13
ATOM     11   N  NGY C   1      29.508   9.837  53.1660  0.00  0.00     0.000 N
ATOM     13  HD  NGY C   1      29.697   9.277  53.7980  0.00  0.00     0.000 HD
ATOM     13   C  NGY C   1      29.880   8.681  53.7130  0.00  0.00     0.000 C
ATOM     14   O  NGY C   1      30.098   8.589  54.9220  0.00  0.00     0.000 OA
ATOM     15   C  NGY C   1      29.991   7.505  52.7900  0.00  0.00     0.000 C
ENDBRANCH 2 13
BRANCH 5 16
ATOM     16   C  NGY C   1      28.056  15.030  54.7250  0.00  0.00     0.000 C
ATOM     17   O  NGY C   1      25.019  16.875  55.6350  0.00  0.00     0.000 OA
ATOM     18   O  NGY C   1      26.707  15.502  54.7680  0.00  0.00     0.000 O
ATOM     19   S  NGY C   1      26.454  16.755  55.6810  0.00  0.00     0.000 S
ATOM     20   O  NGY C   1      27.118  17.873  55.0640  0.00  0.00     0.000 OA
ATOM     21   O  NGY C   1      27.016  16.387  56.9710  0.00  0.00     0.000 OA
ENDBRANCH 5 16
BRANCH 1 22
ATOM     22  O4  BDP C   2      28.814  12.046  51.9260  0.00  0.00     0.000 O
BRANCH 22 26
ATOM     23  C1  BDP C   2      28.776  12.161  47.8090  0.00  0.00     0.000 C
ATOM     24  C2  BDP C   2      30.103  11.806  48.4370  0.00  0.00     0.000 C
ATOM     25  C3  BDP C   2      29.897  11.443  49.8840  0.00  0.00     0.000 C
ATOM     26  C4  BDP C   2      29.136  12.552  50.6030  0.00  0.00     0.000 C
ATOM     27  C5  BDP C   2      27.910  12.949  49.7900  0.00  0.00     0.000 C
ATOM     28  O5  BDP C   2      28.243  13.359  48.4390  0.00  0.00     0.000 O
ATOM     29   O  BDP C   2      30.674  10.625  47.8720  0.00  0.00     0.000 O
ATOM     31  HD  BDP C   2      31.109  10.108  48.4140  0.00  0.00     0.000 HD
ATOM     31   O  BDP C   2      31.188  11.284  50.4590  0.00  0.00     0.000 O
ATOM     33  HD  BDP C   2      31.622  10.767  51.0010  0.00  0.00     0.000 HD
BRANCH 27 33
ATOM     33   C  BDP C   2      27.165  14.112  50.4000  0.00  0.00     0.000 C
ATOM     34   O  BDP C   2      25.912  14.179  50.3910  0.00  0.00     0.000 OA
ATOM     35   O  BDP C   2      27.812  15.027  50.8840  0.00  0.00     0.000 OA
ENDBRANCH 27 33
BRANCH 23 36
ATOM     36  O4  SGN C   3      28.807  12.380  46.4740  0.00  0.00     0.000 O
BRANCH 36 40
ATOM     37  C1  SGN C   3      26.830  11.666  42.8670  0.00  0.00     0.000 C
ATOM     38  C2  SGN C   3      26.491  12.961  43.6230  0.00  0.00     0.000 C
ATOM     39  C3  SGN C   3      27.574  13.280  44.6430  0.00  0.00     0.000 C
ATOM     40  C4  SGN C   3      27.735  12.095  45.5710  0.00  0.00     0.000 C
ATOM     41  C5  SGN C   3      28.043  10.866  44.7440  0.00  0.00     0.000 C
ATOM     42  O5  SGN C   3      26.971  10.624  43.8200  0.00  0.00     0.000 O
ATOM     43   O  SGN C   3      27.206  14.448  45.3670  0.00  0.00     0.000 O
ATOM     45  HD  SGN C   3      27.715  13.946  45.8560  0.00  0.00     0.000 HD
BRANCH 38 47
ATOM     45   N  SGN C   3      25.523  14.057  43.4400  0.00  0.00     0.000 N
ATOM     47  HD  SGN C   3      26.139  13.688  43.9250  0.00  0.00     0.000 HD
ATOM     47   S  SGN C   3      24.972  14.125  41.9510  0.00  0.00     0.000 S
ATOM     48   O  SGN C   3      25.998  14.478  41.0350  0.00  0.00     0.000 OA
ATOM     49   O  SGN C   3      24.293  12.894  41.7090  0.00  0.00     0.000 OA
ATOM     50   O  SGN C   3      24.039  15.248  42.0300  0.00  0.00     0.000 OA
ENDBRANCH 38 47
BRANCH 41 51
ATOM     51   C  SGN C   3      28.232   9.612  45.5530  0.00  0.00     0.000 C
ATOM     52   O  SGN C   3      26.749   8.828  48.8790  0.00  0.00     0.000 OA
ATOM     53   O  SGN C   3      27.248   7.366  47.0500  0.00  0.00     0.000 OA
ATOM     54   O  SGN C   3      29.012   8.508  48.2120  0.00  0.00     0.000 OA
ATOM     55   O  SGN C   3      27.454   9.704  46.7260  0.00  0.00     0.000 O
ATOM     56   S  SGN C   3      27.634   8.487  47.8190  0.00  0.00     0.000 S
ENDBRANCH 41 51
BRANCH 37 57
ATOM     57  O4  IDS C   4      27.967  11.722  42.1290  0.00  0.00     0.000 O
BRANCH 57 61
ATOM     58  C1  IDS C   4      29.876  11.507  38.8460  0.00  0.00     0.000 C
ATOM     59  C2  IDS C   4      28.592  12.274  38.8820  0.00  0.00     0.000 C
ATOM     60  C3  IDS C   4      27.517  11.590  39.7300  0.00  0.00     0.000 C
ATOM     61  C4  IDS C   4      27.997  10.859  40.9760  0.00  0.00     0.000 C
ATOM     62  C5  IDS C   4      29.400  10.281  40.7610  0.00  0.00     0.000 C
ATOM     63  O5  IDS C   4      30.278  11.232  40.1770  0.00  0.00     0.000 O
ATOM     64   O  IDS C   4      26.906  10.649  38.8680  0.00  0.00     0.000 O
ATOM     66  HD  IDS C   4      27.078   9.842  39.1300  0.00  0.00     0.000 HD
BRANCH 59 66
ATOM     66   O  IDS C   4      28.781  13.622  39.4520  0.00  0.00     0.000 O
ATOM     67   S  IDS C   4      28.821  14.832  38.4200  0.00  0.00     0.000 S
ATOM     68   O  IDS C   4      27.491  14.832  37.8610  0.00  0.00     0.000 OA
ATOM     69   O  IDS C   4      29.147  15.995  39.2210  0.00  0.00     0.000 OA
ATOM     70   O  IDS C   4      29.825  14.508  37.4170  0.00  0.00     0.000 OA
ENDBRANCH 59 66
BRANCH 62 71
ATOM     71   C  IDS C   4      30.068   9.846  42.0510  0.00  0.00     0.000 C
ATOM     72   O  IDS C   4      29.749   8.799  42.5810  0.00  0.00     0.000 OA
ATOM     73   O  IDS C   4      30.867  10.631  42.6010  0.00  0.00     0.000 OA
ENDBRANCH 62 71
BRANCH 58 74
ATOM     74  O4  SGN C   5      29.925  10.512  37.9160  0.00  0.00     0.000 O
BRANCH 74 78
ATOM     75  C1  SGN C   5      32.362   8.352  35.3000  0.00  0.00     0.000 C
ATOM     76  C2  SGN C   5      32.217   7.775  36.7210  0.00  0.00     0.000 C
ATOM     77  C3  SGN C   5      31.053   8.445  37.4630  0.00  0.00     0.000 C
ATOM     78  C4  SGN C   5      31.111   9.962  37.3430  0.00  0.00     0.000 C
ATOM     79  C5  SGN C   5      31.227  10.351  35.8770  0.00  0.00     0.000 C
ATOM     80  O5  SGN C   5      32.435   9.772  35.3150  0.00  0.00     0.000 O
ATOM     81   O  SGN C   5      31.089   8.050  38.8310  0.00  0.00     0.000 O
ATOM     83  HD  SGN C   5      31.319   7.249  39.0660  0.00  0.00     0.000 HD
BRANCH 76 85
ATOM     83   N  SGN C   5      33.186   6.708  36.4360  0.00  0.00     0.000 N
ATOM     85  HD  SGN C   5      33.398   5.927  36.1290  0.00  0.00     0.000 HD
ATOM     85   S  SGN C   5      33.028   5.114  36.5990  0.00  0.00     0.000 S
ATOM     86   O  SGN C   5      34.208   4.451  36.1600  0.00  0.00     0.000 OA
ATOM     87   O  SGN C   5      32.607   4.868  37.9310  0.00  0.00     0.000 OA
ATOM     88   O  SGN C   5      31.908   4.952  35.5740  0.00  0.00     0.000 OA
ENDBRANCH 76 85
BRANCH 79 89
ATOM     89   C  SGN C   5      31.268  11.848  35.6510  0.00  0.00     0.000 C
ATOM     90   O  SGN C   5      32.308  12.172  34.6950  0.00  0.00     0.000 O
ATOM     91   S  SGN C   5      32.055  13.450  33.7590  0.00  0.00     0.000 S
ATOM     92   O  SGN C   5      30.764  13.259  33.1510  0.00  0.00     0.000 OA
ATOM     93   O  SGN C   5      32.096  14.612  34.6090  0.00  0.00     0.000 OA
ATOM     94   O  SGN C   5      33.143  13.394  32.8210  0.00  0.00     0.000 OA
ENDBRANCH 79 89
BRANCH 75 95
ATOM     95  O4  BDP C   6      31.243   7.958  34.6230  0.00  0.00     0.000 O
BRANCH 95 99
ATOM     96  C1  BDP C   6      30.569   8.136  30.3850  0.00  0.00     0.000 C
ATOM     97  C2  BDP C   6      31.977   8.251  30.8970  0.00  0.00     0.000 C
ATOM     98  C3  BDP C   6      32.161   7.799  32.3540  0.00  0.00     0.000 C
ATOM     99  C4  BDP C   6      31.108   8.420  33.2610  0.00  0.00     0.000 C
ATOM    100  C5  BDP C   6      29.723   8.186  32.6160  0.00  0.00     0.000 C
ATOM    101  O5  BDP C   6      29.824   8.856  31.3490  0.00  0.00     0.000 O
BRANCH 100 102
ATOM    102   C  BDP C   6      28.603   8.830  33.3930  0.00  0.00     0.000 C
ATOM    103   O  BDP C   6      27.880   8.187  34.1680  0.00  0.00     0.000 OA
ATOM    104   O  BDP C   6      28.439  10.045  33.2340  0.00  0.00     0.000 OA
ENDBRANCH 100 102
ENDBRANCH 95 99
ENDBRANCH 75 95
ENDBRANCH 74 78
ENDBRANCH 58 74
ENDBRANCH 57 61
ENDBRANCH 37 57
ENDBRANCH 36 40
ENDBRANCH 23 36
ENDBRANCH 22 26
ENDBRANCH 1 22
TORSDOF 20
ENDMDL
MODEL 57
REMARK VINA RESULT:      -5.6     15.941     20.231
ROOT
ATOM      1  C1  NGY C   1      33.143   7.983  36.7860  0.00  0.00     0.000 C
ATOM      2  C2  NGY C   1      34.585   8.252  36.3760  0.00  0.00     0.000 C
ATOM      3  C3  NGY C   1      34.727   9.677  35.8510  0.00  0.00     0.000 C
ATOM      4  C4  NGY C   1      33.719   9.876  34.7350  0.00  0.00     0.000 C
ATOM      5  C5  NGY C   1      32.317   9.657  35.2970  0.00  0.00     0.000 C
ATOM      6  O5  NGY C   1      32.222   8.286  35.7610  0.00  0.00     0.000 O
ATOM      7   O  NGY C   1      36.061   9.881  35.4080  0.00  0.00     0.000 O
ATOM      9  HD  NGY C   1      36.678   9.419  35.0120  0.00  0.00     0.000 HD
ATOM      9   O  NGY C   1      33.825  11.178  34.1790  0.00  0.00     0.000 O
ATOM     11  HD  NGY C   1      34.443  10.717  33.7840  0.00  0.00     0.000 HD
ENDROOT
BRANCH 2 13
ATOM     11   N  NGY C   1      35.995   7.942  36.3790  0.00  0.00     0.000 N
ATOM     13  HD  NGY C   1      36.043   7.541  37.1450  0.00  0.00     0.000 HD
ATOM     13   C  NGY C   1      36.567   7.301  37.3970  0.00  0.00     0.000 C
ATOM     14   O  NGY C   1      35.946   7.077  38.4380  0.00  0.00     0.000 OA
ATOM     15   C  NGY C   1      37.982   6.850  37.1990  0.00  0.00     0.000 C
ENDBRANCH 2 13
BRANCH 5 16
ATOM     16   C  NGY C   1      31.204   9.829  34.3120  0.00  0.00     0.000 C
ATOM     17   O  NGY C   1      28.210   7.712  34.2140  0.00  0.00     0.000 OA
ATOM     18   O  NGY C   1      30.318   8.712  34.4210  0.00  0.00     0.000 O
ATOM     19   S  NGY C   1      28.885   8.919  33.8100  0.00  0.00     0.000 S
ATOM     20   O  NGY C   1      29.041   9.008  32.3820  0.00  0.00     0.000 OA
ATOM     21   O  NGY C   1      28.401  10.147  34.4190  0.00  0.00     0.000 OA
ENDBRANCH 5 16
BRANCH 1 22
ATOM     22  O4  BDP C   2      32.885   8.650  37.9310  0.00  0.00     0.000 O
BRANCH 22 26
ATOM     23  C1  BDP C   2      30.795   9.144  41.4450  0.00  0.00     0.000 C
ATOM     24  C2  BDP C   2      31.752   7.976  41.4170  0.00  0.00     0.000 C
ATOM     25  C3  BDP C   2      32.696   8.124  40.2530  0.00  0.00     0.000 C
ATOM     26  C4  BDP C   2      31.913   8.328  38.9600  0.00  0.00     0.000 C
ATOM     27  C5  BDP C   2      30.859   9.410  39.1590  0.00  0.00     0.000 C
ATOM     28  O5  BDP C   2      29.956   9.116  40.2560  0.00  0.00     0.000 O
ATOM     29   O  BDP C   2      32.618   7.955  42.5520  0.00  0.00     0.000 O
ATOM     31  HD  BDP C   2      33.428   7.679  42.4160  0.00  0.00     0.000 HD
ATOM     31   O  BDP C   2      33.455   6.923  40.1800  0.00  0.00     0.000 O
ATOM     33  HD  BDP C   2      34.264   6.648  40.0450  0.00  0.00     0.000 HD
BRANCH 27 33
ATOM     33   C  BDP C   2      29.982   9.592  37.9440  0.00  0.00     0.000 C
ATOM     34   O  BDP C   2      29.362   8.636  37.4200  0.00  0.00     0.000 OA
ATOM     35   O  BDP C   2      29.909  10.702  37.4430  0.00  0.00     0.000 OA
ENDBRANCH 27 33
BRANCH 23 36
ATOM     36  O4  SGN C   3      29.977   9.197  42.5220  0.00  0.00     0.000 O
BRANCH 36 40
ATOM     37  C1  SGN C   3      27.788  11.669  45.0760  0.00  0.00     0.000 C
ATOM     38  C2  SGN C   3      27.253  11.463  43.6500  0.00  0.00     0.000 C
ATOM     39  C3  SGN C   3      27.889  10.235  43.0150  0.00  0.00     0.000 C
ATOM     40  C4  SGN C   3      29.394  10.391  43.0500  0.00  0.00     0.000 C
ATOM     41  C5  SGN C   3      29.828  10.611  44.4820  0.00  0.00     0.000 C
ATOM     42  O5  SGN C   3      29.200  11.793  45.0030  0.00  0.00     0.000 O
ATOM     43   O  SGN C   3      27.421  10.104  41.6790  0.00  0.00     0.000 O
ATOM     45  HD  SGN C   3      28.207   9.748  41.7520  0.00  0.00     0.000 HD
BRANCH 38 47
ATOM     45   N  SGN C   3      25.946  11.645  42.9930  0.00  0.00     0.000 N
ATOM     47  HD  SGN C   3      26.678  11.188  43.0670  0.00  0.00     0.000 HD
ATOM     47   S  SGN C   3      25.016  12.662  43.7840  0.00  0.00     0.000 S
ATOM     48   O  SGN C   3      24.643  12.143  45.0530  0.00  0.00     0.000 OA
ATOM     49   O  SGN C   3      25.689  13.920  43.7790  0.00  0.00     0.000 OA
ATOM     50   O  SGN C   3      23.820  12.687  42.9440  0.00  0.00     0.000 OA
ENDBRANCH 38 47
BRANCH 41 51
ATOM     51   C  SGN C   3      31.313  10.777  44.6560  0.00  0.00     0.000 C
ATOM     52   O  SGN C   3      33.170  13.945  45.2840  0.00  0.00     0.000 OA
ATOM     53   O  SGN C   3      33.629  11.730  46.0660  0.00  0.00     0.000 OA
ATOM     54   O  SGN C   3      33.740  12.240  43.7220  0.00  0.00     0.000 OA
ATOM     55   O  SGN C   3      31.592  12.134  44.9250  0.00  0.00     0.000 O
ATOM     56   S  SGN C   3      33.182  12.550  45.0060  0.00  0.00     0.000 S
ENDBRANCH 41 51
BRANCH 37 57
ATOM     57  O4  IDS C   4      27.495  10.667  45.9410  0.00  0.00     0.000 O
BRANCH 57 61
ATOM     58  C1  IDS C   4      26.717  11.431  49.5850  0.00  0.00     0.000 C
ATOM     59  C2  IDS C   4      27.174  12.546  48.7000  0.00  0.00     0.000 C
ATOM     60  C3  IDS C   4      28.287  12.121  47.7400  0.00  0.00     0.000 C
ATOM     61  C4  IDS C   4      28.209  10.703  47.1910  0.00  0.00     0.000 C
ATOM     62  C5  IDS C   4      27.568   9.759  48.2160  0.00  0.00     0.000 C
ATOM     63  O5  IDS C   4      26.388  10.314  48.7770  0.00  0.00     0.000 O
ATOM     64   O  IDS C   4      29.486  12.247  48.4810  0.00  0.00     0.000 O
ATOM     66  HD  IDS C   4      29.839  11.468  48.6210  0.00  0.00     0.000 HD
BRANCH 59 66
ATOM     66   O  IDS C   4      26.073  13.060  47.8630  0.00  0.00     0.000 O
ATOM     67   S  IDS C   4      25.623  14.564  48.1250  0.00  0.00     0.000 S
ATOM     68   O  IDS C   4      26.788  15.326  47.7430  0.00  0.00     0.000 OA
ATOM     69   O  IDS C   4      24.462  14.759  47.2790  0.00  0.00     0.000 OA
ATOM     70   O  IDS C   4      25.343  14.688  49.5470  0.00  0.00     0.000 OA
ENDBRANCH 59 66
BRANCH 62 71
ATOM     71   C  IDS C   4      27.151   8.429  47.6180  0.00  0.00     0.000 C
ATOM     72   O  IDS C   4      27.988   7.678  47.1560  0.00  0.00     0.000 OA
ATOM     73   O  IDS C   4      25.933   8.178  47.5210  0.00  0.00     0.000 OA
ENDBRANCH 62 71
BRANCH 58 74
ATOM     74  O4  SGN C   5      27.468  11.243  50.7080  0.00  0.00     0.000 O
BRANCH 74 78
ATOM     75  C1  SGN C   5      27.455  10.292  54.7750  0.00  0.00     0.000 C
ATOM     76  C2  SGN C   5      27.413   9.099  53.8020  0.00  0.00     0.000 C
ATOM     77  C3  SGN C   5      27.765   9.548  52.3770  0.00  0.00     0.000 C
ATOM     78  C4  SGN C   5      26.983  10.789  51.9710  0.00  0.00     0.000 C
ATOM     79  C5  SGN C   5      27.158  11.868  53.0300  0.00  0.00     0.000 C
ATOM     80  O5  SGN C   5      26.667  11.379  54.3060  0.00  0.00     0.000 O
ATOM     81   O  SGN C   5      27.503   8.476  51.4770  0.00  0.00     0.000 O
ATOM     83  HD  SGN C   5      27.653   7.651  51.6970  0.00  0.00     0.000 HD
BRANCH 76 85
ATOM     83   N  SGN C   5      27.932   8.418  54.9950  0.00  0.00     0.000 N
ATOM     85  HD  SGN C   5      28.415   7.813  55.3830  0.00  0.00     0.000 HD
ATOM     85   S  SGN C   5      28.162   6.845  55.2550  0.00  0.00     0.000 S
ATOM     86   O  SGN C   5      28.728   6.632  56.5420  0.00  0.00     0.000 OA
ATOM     87   O  SGN C   5      26.935   6.190  54.9730  0.00  0.00     0.000 OA
ATOM     88   O  SGN C   5      29.213   6.648  54.1660  0.00  0.00     0.000 OA
ENDBRANCH 76 85
BRANCH 79 89
ATOM     89   C  SGN C   5      26.433  13.158  52.7040  0.00  0.00     0.000 C
ATOM     90   O  SGN C   5      25.231  13.261  53.5050  0.00  0.00     0.000 O
ATOM     91   S  SGN C   5      24.760  14.740  53.9120  0.00  0.00     0.000 S
ATOM     92   O  SGN C   5      25.901  15.378  54.5150  0.00  0.00     0.000 OA
ATOM     93   O  SGN C   5      24.337  15.398  52.7030  0.00  0.00     0.000 OA
ATOM     94   O  SGN C   5      23.684  14.502  54.8350  0.00  0.00     0.000 OA
ENDBRANCH 79 89
BRANCH 75 95
ATOM     95  O4  BDP C   6      28.766  10.672  54.8420  0.00  0.00     0.000 O
BRANCH 95 99
ATOM     96  C1  BDP C   6      30.991  12.615  57.9600  0.00  0.00     0.000 C
ATOM     97  C2  BDP C   6      29.972  11.578  58.3400  0.00  0.00     0.000 C
ATOM     98  C3  BDP C   6      29.516  10.683  57.1780  0.00  0.00     0.000 C
ATOM     99  C4  BDP C   6      29.145  11.510  55.9550  0.00  0.00     0.000 C
ATOM    100  C5  BDP C   6      30.303  12.497  55.6770  0.00  0.00     0.000 C
ATOM    101  O5  BDP C   6      30.370  13.284  56.8780  0.00  0.00     0.000 O
BRANCH 100 102
ATOM    102   C  BDP C   6      30.010  13.427  54.5280  0.00  0.00     0.000 C
ATOM    103   O  BDP C   6      29.201  14.361  54.6210  0.00  0.00     0.000 OA
ATOM    104   O  BDP C   6      30.629  13.227  53.4760  0.00  0.00     0.000 OA
ENDBRANCH 100 102
ENDBRANCH 95 99
ENDBRANCH 75 95
ENDBRANCH 74 78
ENDBRANCH 58 74
ENDBRANCH 57 61
ENDBRANCH 37 57
ENDBRANCH 36 40
ENDBRANCH 23 36
ENDBRANCH 22 26
ENDBRANCH 1 22
TORSDOF 20
ENDMDL
MODEL 58
REMARK VINA RESULT:      -5.6     16.135     22.979
ROOT
ATOM      1  C1  NGY C   1      28.143  13.452  52.7460  0.00  0.00     0.000 C
ATOM      2  C2  NGY C   1      27.272  12.928  53.8790  0.00  0.00     0.000 C
ATOM      3  C3  NGY C   1      25.968  13.716  53.9510  0.00  0.00     0.000 C
ATOM      4  C4  NGY C   1      26.309  15.190  54.0650  0.00  0.00     0.000 C
ATOM      5  C5  NGY C   1      27.109  15.604  52.8330  0.00  0.00     0.000 C
ATOM      6  O5  NGY C   1      28.347  14.847  52.8200  0.00  0.00     0.000 O
ATOM      7   O  NGY C   1      25.206  13.258  55.0590  0.00  0.00     0.000 O
ATOM      9  HD  NGY C   1      25.358  12.976  55.8630  0.00  0.00     0.000 HD
ATOM      9   O  NGY C   1      25.132  15.978  54.1700  0.00  0.00     0.000 O
ATOM     11  HD  NGY C   1      25.284  15.696  54.9750  0.00  0.00     0.000 HD
ENDROOT
BRANCH 2 13
ATOM     11   N  NGY C   1      27.405  11.504  53.6790  0.00  0.00     0.000 N
ATOM     13  HD  NGY C   1      27.184  11.236  54.4720  0.00  0.00     0.000 HD
ATOM     13   C  NGY C   1      27.163  10.636  54.6600  0.00  0.00     0.000 C
ATOM     14   O  NGY C   1      26.956  11.018  55.8130  0.00  0.00     0.000 OA
ATOM     15   C  NGY C   1      27.130   9.186  54.2820  0.00  0.00     0.000 C
ENDBRANCH 2 13
BRANCH 5 16
ATOM     16   C  NGY C   1      27.515  17.043  52.7930  0.00  0.00     0.000 C
ATOM     17   O  NGY C   1      29.619  18.651  55.3320  0.00  0.00     0.000 OA
ATOM     18   O  NGY C   1      28.141  17.379  54.0350  0.00  0.00     0.000 O
ATOM     19   S  NGY C   1      29.019  18.681  54.0220  0.00  0.00     0.000 S
ATOM     20   O  NGY C   1      28.125  19.796  53.8540  0.00  0.00     0.000 OA
ATOM     21   O  NGY C   1      29.933  18.496  52.9060  0.00  0.00     0.000 OA
ENDBRANCH 5 16
BRANCH 1 22
ATOM     22  O4  BDP C   2      27.605  13.067  51.5700  0.00  0.00     0.000 O
BRANCH 22 26
ATOM     23  C1  BDP C   2      27.956  11.973  47.6150  0.00  0.00     0.000 C
ATOM     24  C2  BDP C   2      28.669  11.079  48.6020  0.00  0.00     0.000 C
ATOM     25  C3  BDP C   2      28.169  11.363  49.9940  0.00  0.00     0.000 C
ATOM     26  C4  BDP C   2      28.277  12.853  50.3010  0.00  0.00     0.000 C
ATOM     27  C5  BDP C   2      27.681  13.661  49.1550  0.00  0.00     0.000 C
ATOM     28  O5  BDP C   2      28.300  13.363  47.8770  0.00  0.00     0.000 O
ATOM     29   O  BDP C   2      28.360   9.699  48.4080  0.00  0.00     0.000 O
ATOM     31  HD  BDP C   2      28.305   9.211  49.1220  0.00  0.00     0.000 HD
ATOM     31   O  BDP C   2      28.988  10.620  50.8880  0.00  0.00     0.000 O
ATOM     33  HD  BDP C   2      28.933  10.132  51.6010  0.00  0.00     0.000 HD
BRANCH 27 33
ATOM     33   C  BDP C   2      27.845  15.150  49.3520  0.00  0.00     0.000 C
ATOM     34   O  BDP C   2      28.956  15.668  49.6160  0.00  0.00     0.000 OA
ATOM     35   O  BDP C   2      26.853  15.857  49.2830  0.00  0.00     0.000 OA
ENDBRANCH 27 33
BRANCH 23 36
ATOM     36  O4  SGN C   3      28.223  11.725  46.3110  0.00  0.00     0.000 O
BRANCH 36 40
ATOM     37  C1  SGN C   3      26.660  11.617  42.4420  0.00  0.00     0.000 C
ATOM     38  C2  SGN C   3      26.499  12.920  43.2410  0.00  0.00     0.000 C
ATOM     39  C3  SGN C   3      27.472  12.951  44.4100  0.00  0.00     0.000 C
ATOM     40  C4  SGN C   3      27.250  11.720  45.2630  0.00  0.00     0.000 C
ATOM     41  C5  SGN C   3      27.405  10.491  44.3940  0.00  0.00     0.000 C
ATOM     42  O5  SGN C   3      26.445  10.528  43.3260  0.00  0.00     0.000 O
ATOM     43   O  SGN C   3      27.260  14.138  45.1650  0.00  0.00     0.000 O
ATOM     45  HD  SGN C   3      27.579  13.516  45.6760  0.00  0.00     0.000 HD
BRANCH 38 47
ATOM     45   N  SGN C   3      26.719  13.534  41.9190  0.00  0.00     0.000 N
ATOM     47  HD  SGN C   3      26.948  12.937  42.5040  0.00  0.00     0.000 HD
ATOM     47   S  SGN C   3      25.504  14.459  41.4800  0.00  0.00     0.000 S
ATOM     48   O  SGN C   3      24.325  13.698  41.2630  0.00  0.00     0.000 OA
ATOM     49   O  SGN C   3      25.421  15.508  42.4430  0.00  0.00     0.000 OA
ATOM     50   O  SGN C   3      25.961  14.954  40.1830  0.00  0.00     0.000 OA
ENDBRANCH 38 47
BRANCH 41 51
ATOM     51   C  SGN C   3      27.213   9.191  45.1270  0.00  0.00     0.000 C
ATOM     52   O  SGN C   3      24.145   8.031  46.8930  0.00  0.00     0.000 OA
ATOM     53   O  SGN C   3      25.782   6.764  45.6900  0.00  0.00     0.000 OA
ATOM     54   O  SGN C   3      26.383   7.931  47.7000  0.00  0.00     0.000 OA
ATOM     55   O  SGN C   3      25.888   9.130  45.6060  0.00  0.00     0.000 O
ATOM     56   S  SGN C   3      25.516   7.843  46.5630  0.00  0.00     0.000 S
ENDBRANCH 41 51
BRANCH 37 57
ATOM     57  O4  IDS C   4      27.873  11.456  41.8590  0.00  0.00     0.000 O
BRANCH 57 61
ATOM     58  C1  IDS C   4      30.024  10.955  38.7620  0.00  0.00     0.000 C
ATOM     59  C2  IDS C   4      28.847  11.874  38.6780  0.00  0.00     0.000 C
ATOM     60  C3  IDS C   4      27.625  11.341  39.4300  0.00  0.00     0.000 C
ATOM     61  C4  IDS C   4      27.899  10.577  40.7190  0.00  0.00     0.000 C
ATOM     62  C5  IDS C   4      29.234   9.828  40.6340  0.00  0.00     0.000 C
ATOM     63  O5  IDS C   4      30.270  10.656  40.1260  0.00  0.00     0.000 O
ATOM     64   O  IDS C   4      26.981  10.466  38.5220  0.00  0.00     0.000 O
ATOM     66  HD  IDS C   4      27.029   9.649  38.8040  0.00  0.00     0.000 HD
BRANCH 59 66
ATOM     66   O  IDS C   4      29.149  13.197  39.2550  0.00  0.00     0.000 O
ATOM     67   S  IDS C   4      29.219  14.418  38.2370  0.00  0.00     0.000 S
ATOM     68   O  IDS C   4      27.866  14.511  37.7430  0.00  0.00     0.000 OA
ATOM     69   O  IDS C   4      29.656  15.546  39.0360  0.00  0.00     0.000 OA
ATOM     70   O  IDS C   4      30.150  14.047  37.1830  0.00  0.00     0.000 OA
ENDBRANCH 59 66
BRANCH 62 71
ATOM     71   C  IDS C   4      29.727   9.336  41.9810  0.00  0.00     0.000 C
ATOM     72   O  IDS C   4      30.619   9.927  42.5570  0.00  0.00     0.000 OA
ATOM     73   O  IDS C   4      29.269   8.264  42.4260  0.00  0.00     0.000 OA
ENDBRANCH 62 71
BRANCH 58 74
ATOM     74  O4  SGN C   5      30.033   9.945  37.8460  0.00  0.00     0.000 O
BRANCH 74 78
ATOM     75  C1  SGN C   5      32.500   8.255  34.9310  0.00  0.00     0.000 C
ATOM     76  C2  SGN C   5      32.019   7.304  36.0430  0.00  0.00     0.000 C
ATOM     77  C3  SGN C   5      30.869   7.937  36.8380  0.00  0.00     0.000 C
ATOM     78  C4  SGN C   5      31.194   9.366  37.2530  0.00  0.00     0.000 C
ATOM     79  C5  SGN C   5      31.625  10.163  36.0300  0.00  0.00     0.000 C
ATOM     80  O5  SGN C   5      32.801   9.548  35.4400  0.00  0.00     0.000 O
ATOM     81   O  SGN C   5      30.602   7.133  37.9830  0.00  0.00     0.000 O
ATOM     83  HD  SGN C   5      30.653   6.269  37.9530  0.00  0.00     0.000 HD
BRANCH 76 85
ATOM     83   N  SGN C   5      32.688   6.288  35.2210  0.00  0.00     0.000 N
ATOM     85  HD  SGN C   5      32.681   5.590  34.7080  0.00  0.00     0.000 HD
ATOM     85   S  SGN C   5      32.393   4.709  35.1060  0.00  0.00     0.000 S
ATOM     86   O  SGN C   5      33.258   4.110  34.1490  0.00  0.00     0.000 OA
ATOM     87   O  SGN C   5      32.422   4.180  36.4220  0.00  0.00     0.000 OA
ATOM     88   O  SGN C   5      30.980   4.845  34.5430  0.00  0.00     0.000 OA
ENDBRANCH 76 85
BRANCH 79 89
ATOM     89   C  SGN C   5      31.949  11.611  36.3370  0.00  0.00     0.000 C
ATOM     90   O  SGN C   5      33.321  11.895  35.9700  0.00  0.00     0.000 O
ATOM     91   S  SGN C   5      33.642  13.389  35.4790  0.00  0.00     0.000 S
ATOM     92   O  SGN C   5      32.700  13.682  34.4300  0.00  0.00     0.000 OA
ATOM     93   O  SGN C   5      33.482  14.253  36.6200  0.00  0.00     0.000 OA
ATOM     94   O  SGN C   5      35.001  13.301  35.0190  0.00  0.00     0.000 OA
ENDBRANCH 79 89
BRANCH 75 95
ATOM     95  O4  BDP C   6      31.467   8.341  34.0420  0.00  0.00     0.000 O
BRANCH 95 99
ATOM     96  C1  BDP C   6      31.591   8.683  29.7620  0.00  0.00     0.000 C
ATOM     97  C2  BDP C   6      32.742   8.022  30.4670  0.00  0.00     0.000 C
ATOM     98  C3  BDP C   6      32.444   7.606  31.9150  0.00  0.00     0.000 C
ATOM     99  C4  BDP C   6      31.798   8.742  32.6950  0.00  0.00     0.000 C
ATOM    100  C5  BDP C   6      30.617   9.286  31.8560  0.00  0.00     0.000 C
ATOM    101  O5  BDP C   6      31.245   9.734  30.6440  0.00  0.00     0.000 O
BRANCH 100 102
ATOM    102   C  BDP C   6      29.947  10.474  32.4990  0.00  0.00     0.000 C
ATOM    103   O  BDP C   6      30.300  11.639  32.2680  0.00  0.00     0.000 OA
ATOM    104   O  BDP C   6      29.007  10.237  33.2670  0.00  0.00     0.000 OA
ENDBRANCH 100 102
ENDBRANCH 95 99
ENDBRANCH 75 95
ENDBRANCH 74 78
ENDBRANCH 58 74
ENDBRANCH 57 61
ENDBRANCH 37 57
ENDBRANCH 36 40
ENDBRANCH 23 36
ENDBRANCH 22 26
ENDBRANCH 1 22
TORSDOF 20
ENDMDL
MODEL 59
REMARK VINA RESULT:      -5.4     17.623     22.485
ROOT
ATOM      1  C1  NGY C   1      36.734   7.035  36.3780  0.00  0.00     0.000 C
ATOM      2  C2  NGY C   1      37.675   7.884  35.5350  0.00  0.00     0.000 C
ATOM      3  C3  NGY C   1      36.918   8.513  34.3700  0.00  0.00     0.000 C
ATOM      4  C4  NGY C   1      36.225   7.406  33.5990  0.00  0.00     0.000 C
ATOM      5  C5  NGY C   1      35.254   6.691  34.5350  0.00  0.00     0.000 C
ATOM      6  O5  NGY C   1      36.020   6.090  35.6110  0.00  0.00     0.000 O
ATOM      7   O  NGY C   1      37.830   9.239  33.5580  0.00  0.00     0.000 O
ATOM      9  HD  NGY C   1      38.649   9.158  33.2910  0.00  0.00     0.000 HD
ATOM      9   O  NGY C   1      35.527   7.927  32.4770  0.00  0.00     0.000 O
ATOM     11  HD  NGY C   1      36.347   7.846  32.2110  0.00  0.00     0.000 HD
ENDROOT
BRANCH 2 13
ATOM     11   N  NGY C   1      39.074   7.990  35.8770  0.00  0.00     0.000 N
ATOM     13  HD  NGY C   1      39.087   8.817  36.1340  0.00  0.00     0.000 HD
ATOM     13   C  NGY C   1      39.595   9.126  36.3390  0.00  0.00     0.000 C
ATOM     14   O  NGY C   1      38.938  10.168  36.3560  0.00  0.00     0.000 OA
ATOM     15   C  NGY C   1      41.000   9.060  36.8560  0.00  0.00     0.000 C
ENDBRANCH 2 13
BRANCH 5 16
ATOM     16   C  NGY C   1      34.482   5.571  33.9140  0.00  0.00     0.000 C
ATOM     17   O  NGY C   1      31.130   5.945  32.4720  0.00  0.00     0.000 OA
ATOM     18   O  NGY C   1      33.148   6.019  33.6580  0.00  0.00     0.000 O
ATOM     19   S  NGY C   1      32.331   5.163  32.6240  0.00  0.00     0.000 S
ATOM     20   O  NGY C   1      32.079   3.884  33.2340  0.00  0.00     0.000 OA
ATOM     21   O  NGY C   1      33.188   5.089  31.4520  0.00  0.00     0.000 OA
ENDBRANCH 5 16
BRANCH 1 22
ATOM     22  O4  BDP C   2      35.922   7.854  37.0800  0.00  0.00     0.000 O
BRANCH 22 26
ATOM     23  C1  BDP C   2      33.801   8.768  40.4900  0.00  0.00     0.000 C
ATOM     24  C2  BDP C   2      35.255   8.419  40.7030  0.00  0.00     0.000 C
ATOM     25  C3  BDP C   2      35.985   8.469  39.3870  0.00  0.00     0.000 C
ATOM     26  C4  BDP C   2      35.274   7.601  38.3540  0.00  0.00     0.000 C
ATOM     27  C5  BDP C   2      33.784   7.919  38.3510  0.00  0.00     0.000 C
ATOM     28  O5  BDP C   2      33.172   7.754  39.6560  0.00  0.00     0.000 O
ATOM     29   O  BDP C   2      35.935   9.386  41.5030  0.00  0.00     0.000 O
ATOM     31  HD  BDP C   2      36.761   9.547  41.2980  0.00  0.00     0.000 HD
ATOM     31   O  BDP C   2      37.297   7.972  39.6220  0.00  0.00     0.000 O
ATOM     33  HD  BDP C   2      38.123   8.133  39.4170  0.00  0.00     0.000 HD
BRANCH 27 33
ATOM     33   C  BDP C   2      33.005   7.023  37.4170  0.00  0.00     0.000 C
ATOM     34   O  BDP C   2      32.155   7.477  36.6140  0.00  0.00     0.000 OA
ATOM     35   O  BDP C   2      33.191   5.819  37.4790  0.00  0.00     0.000 OA
ENDBRANCH 27 33
BRANCH 23 36
ATOM     36  O4  SGN C   3      33.062   8.885  41.6180  0.00  0.00     0.000 O
BRANCH 36 40
ATOM     37  C1  SGN C   3      29.997  11.003  43.5010  0.00  0.00     0.000 C
ATOM     38  C2  SGN C   3      29.598   9.842  42.5750  0.00  0.00     0.000 C
ATOM     39  C3  SGN C   3      30.787   8.925  42.3300  0.00  0.00     0.000 C
ATOM     40  C4  SGN C   3      31.929   9.745  41.7690  0.00  0.00     0.000 C
ATOM     41  C5  SGN C   3      32.237  10.873  42.7300  0.00  0.00     0.000 C
ATOM     42  O5  SGN C   3      31.075  11.699  42.8960  0.00  0.00     0.000 O
ATOM     43   O  SGN C   3      30.407   7.896  41.4250  0.00  0.00     0.000 O
ATOM     45  HD  SGN C   3      31.257   8.046  41.3600  0.00  0.00     0.000 HD
BRANCH 38 47
ATOM     45   N  SGN C   3      28.393  10.638  42.8710  0.00  0.00     0.000 N
ATOM     47  HD  SGN C   3      29.222  10.618  42.6190  0.00  0.00     0.000 HD
ATOM     47   S  SGN C   3      27.090   9.733  42.9720  0.00  0.00     0.000 S
ATOM     48   O  SGN C   3      26.765   9.153  41.7170  0.00  0.00     0.000 OA
ATOM     49   O  SGN C   3      27.300   8.834  44.0580  0.00  0.00     0.000 OA
ATOM     50   O  SGN C   3      26.063  10.725  43.2840  0.00  0.00     0.000 OA
ENDBRANCH 38 47
BRANCH 41 51
ATOM     51   C  SGN C   3      33.365  11.766  42.2890  0.00  0.00     0.000 C
ATOM     52   O  SGN C   3      36.575  12.393  44.0730  0.00  0.00     0.000 OA
ATOM     53   O  SGN C   3      36.131  12.296  41.7220  0.00  0.00     0.000 OA
ATOM     54   O  SGN C   3      35.152  14.022  43.0740  0.00  0.00     0.000 OA
ATOM     55   O  SGN C   3      34.411  11.677  43.2300  0.00  0.00     0.000 O
ATOM     56   S  SGN C   3      35.686  12.694  43.0030  0.00  0.00     0.000 S
ENDBRANCH 41 51
BRANCH 37 57
ATOM     57  O4  IDS C   4      30.380  10.628  44.7460  0.00  0.00     0.000 O
BRANCH 57 61
ATOM     58  C1  IDS C   4      29.704  10.726  48.4880  0.00  0.00     0.000 C
ATOM     59  C2  IDS C   4      28.542  10.766  47.5470  0.00  0.00     0.000 C
ATOM     60  C3  IDS C   4      28.805  11.640  46.3180  0.00  0.00     0.000 C
ATOM     61  C4  IDS C   4      30.225  11.631  45.7680  0.00  0.00     0.000 C
ATOM     62  C5  IDS C   4      31.244  11.427  46.8960  0.00  0.00     0.000 C
ATOM     63  O5  IDS C   4      30.866  10.366  47.7610  0.00  0.00     0.000 O
ATOM     64   O  IDS C   4      28.494  12.959  46.7250  0.00  0.00     0.000 O
ATOM     66  HD  IDS C   4      29.209  13.447  46.7460  0.00  0.00     0.000 HD
BRANCH 59 66
ATOM     66   O  IDS C   4      28.208   9.421  47.0410  0.00  0.00     0.000 O
ATOM     67   S  IDS C   4      26.908   8.735  47.6500  0.00  0.00     0.000 S
ATOM     68   O  IDS C   4      25.840   9.595  47.1980  0.00  0.00     0.000 OA
ATOM     69   O  IDS C   4      26.894   7.398  47.0900  0.00  0.00     0.000 OA
ATOM     70   O  IDS C   4      27.044   8.765  49.0980  0.00  0.00     0.000 OA
ENDBRANCH 59 66
BRANCH 62 71
ATOM     71   C  IDS C   4      32.628  11.068  46.3890  0.00  0.00     0.000 C
ATOM     72   O  IDS C   4      32.971   9.904  46.3240  0.00  0.00     0.000 OA
ATOM     73   O  IDS C   4      33.428  11.993  46.1450  0.00  0.00     0.000 OA
ENDBRANCH 62 71
BRANCH 58 74
ATOM     74  O4  SGN C   5      29.766  11.764  49.3710  0.00  0.00     0.000 O
BRANCH 74 78
ATOM     75  C1  SGN C   5      31.594  13.028  52.9070  0.00  0.00     0.000 C
ATOM     76  C2  SGN C   5      32.002  13.783  51.6280  0.00  0.00     0.000 C
ATOM     77  C3  SGN C   5      31.032  13.471  50.4800  0.00  0.00     0.000 C
ATOM     78  C4  SGN C   5      30.789  11.974  50.3440  0.00  0.00     0.000 C
ATOM     79  C5  SGN C   5      30.371  11.403  51.6910  0.00  0.00     0.000 C
ATOM     80  O5  SGN C   5      31.423  11.638  52.6640  0.00  0.00     0.000 O
ATOM     81   O  SGN C   5      31.561  14.004  49.2700  0.00  0.00     0.000 O
ATOM     83  HD  SGN C   5      31.987  14.757  49.2540  0.00  0.00     0.000 HD
BRANCH 76 85
ATOM     83   N  SGN C   5      32.270  14.852  52.5980  0.00  0.00     0.000 N
ATOM     85  HD  SGN C   5      32.378  15.684  52.8120  0.00  0.00     0.000 HD
ATOM     85   S  SGN C   5      33.179  16.172  52.4400  0.00  0.00     0.000 S
ATOM     86   O  SGN C   5      33.120  16.960  53.6220  0.00  0.00     0.000 OA
ATOM     87   O  SGN C   5      34.463  15.749  52.0100  0.00  0.00     0.000 OA
ATOM     88   O  SGN C   5      32.351  16.810  51.3270  0.00  0.00     0.000 OA
ENDBRANCH 76 85
BRANCH 79 89
ATOM     89   C  SGN C   5      30.082   9.916  51.6520  0.00  0.00     0.000 C
ATOM     90   O  SGN C   5      31.273   9.175  52.0150  0.00  0.00     0.000 O
ATOM     91   S  SGN C   5      31.050   7.776  52.7680  0.00  0.00     0.000 S
ATOM     92   O  SGN C   5      30.189   8.050  53.8880  0.00  0.00     0.000 OA
ATOM     93   O  SGN C   5      30.448   6.875  51.8190  0.00  0.00     0.000 OA
ATOM     94   O  SGN C   5      32.381   7.391  53.1500  0.00  0.00     0.000 OA
ENDBRANCH 79 89
BRANCH 75 95
ATOM     95  O4  BDP C   6      30.404  13.575  53.2970  0.00  0.00     0.000 O
BRANCH 95 99
ATOM     96  C1  BDP C   6      28.583  13.974  57.1670  0.00  0.00     0.000 C
ATOM     97  C2  BDP C   6      30.054  14.250  57.0290  0.00  0.00     0.000 C
ATOM     98  C3  BDP C   6      30.528  14.456  55.5830  0.00  0.00     0.000 C
ATOM     99  C4  BDP C   6      30.006  13.358  54.6680  0.00  0.00     0.000 C
ATOM    100  C5  BDP C   6      28.483  13.223  54.9030  0.00  0.00     0.000 C
ATOM    101  O5  BDP C   6      28.387  12.877  56.2940  0.00  0.00     0.000 O
BRANCH 100 102
ATOM    102   C  BDP C   6      27.868  12.104  54.1020  0.00  0.00     0.000 C
ATOM    103   O  BDP C   6      27.146  12.315  53.1170  0.00  0.00     0.000 OA
ATOM    104   O  BDP C   6      28.126  10.950  54.4640  0.00  0.00     0.000 OA
ENDBRANCH 100 102
ENDBRANCH 95 99
ENDBRANCH 75 95
ENDBRANCH 74 78
ENDBRANCH 58 74
ENDBRANCH 57 61
ENDBRANCH 37 57
ENDBRANCH 36 40
ENDBRANCH 23 36
ENDBRANCH 22 26
ENDBRANCH 1 22
TORSDOF 20
ENDMDL
MODEL 60
REMARK VINA RESULT:      -5.4      3.632     15.700
ROOT
ATOM      1  C1  NGY C   1       2.584  13.699  52.0220  0.00  0.00     0.000 C
ATOM      2  C2  NGY C   1       1.686  12.481  51.8570  0.00  0.00     0.000 C
ATOM      3  C3  NGY C   1       0.491  12.822  50.9730  0.00  0.00     0.000 C
ATOM      4  C4  NGY C   1      -0.209  14.031  51.5640  0.00  0.00     0.000 C
ATOM      5  C5  NGY C   1       0.774  15.198  51.5970  0.00  0.00     0.000 C
ATOM      6  O5  NGY C   1       1.878  14.838  52.4660  0.00  0.00     0.000 O
ATOM      7   O  NGY C   1      -0.368  11.694  50.8940  0.00  0.00     0.000 O
ATOM      9  HD  NGY C   1      -0.635  11.058  51.4180  0.00  0.00     0.000 HD
ATOM      9   O  NGY C   1      -1.355  14.378  50.8010  0.00  0.00     0.000 O
ATOM     11  HD  NGY C   1      -1.622  13.743  51.3250  0.00  0.00     0.000 HD
ENDROOT
BRANCH 2 13
ATOM     11   N  NGY C   1       2.088  11.258  52.5110  0.00  0.00     0.000 N
ATOM     13  HD  NGY C   1       2.219  10.767  51.8090  0.00  0.00     0.000 HD
ATOM     13   C  NGY C   1       2.404  10.166  51.8150  0.00  0.00     0.000 C
ATOM     14   O  NGY C   1       2.227  10.114  50.5970  0.00  0.00     0.000 OA
ATOM     15   C  NGY C   1       3.004   9.029  52.5840  0.00  0.00     0.000 C
ENDBRANCH 2 13
BRANCH 5 16
ATOM     16   C  NGY C   1       0.225  16.475  52.1480  0.00  0.00     0.000 C
ATOM     17   O  NGY C   1       2.301  19.299  53.2320  0.00  0.00     0.000 OA
ATOM     18   O  NGY C   1       1.307  17.256  52.6640  0.00  0.00     0.000 O
ATOM     19   S  NGY C   1       1.005  18.784  52.8700  0.00  0.00     0.000 S
ATOM     20   O  NGY C   1       0.054  18.888  53.9450  0.00  0.00     0.000 OA
ATOM     21   O  NGY C   1       0.483  19.230  51.5880  0.00  0.00     0.000 OA
ENDBRANCH 5 16
BRANCH 1 22
ATOM     22  O4  BDP C   2       3.241  13.914  50.8630  0.00  0.00     0.000 O
BRANCH 22 26
ATOM     23  C1  BDP C   2       6.675  15.071  48.9050  0.00  0.00     0.000 C
ATOM     24  C2  BDP C   2       6.886  14.319  50.1980  0.00  0.00     0.000 C
ATOM     25  C3  BDP C   2       5.601  13.650  50.6090  0.00  0.00     0.000 C
ATOM     26  C4  BDP C   2       4.465  14.666  50.6490  0.00  0.00     0.000 C
ATOM     27  C5  BDP C   2       4.458  15.485  49.3650  0.00  0.00     0.000 C
ATOM     28  O5  BDP C   2       5.723  16.151  49.1180  0.00  0.00     0.000 O
ATOM     29   O  BDP C   2       7.801  13.233  50.0520  0.00  0.00     0.000 O
ATOM     31  HD  BDP C   2       7.634  12.521  50.5170  0.00  0.00     0.000 HD
ATOM     31   O  BDP C   2       5.816  13.104  51.9050  0.00  0.00     0.000 O
ATOM     33  HD  BDP C   2       5.649  12.393  52.3700  0.00  0.00     0.000 HD
BRANCH 27 33
ATOM     33   C  BDP C   2       3.416  16.577  49.3820  0.00  0.00     0.000 C
ATOM     34   O  BDP C   2       3.498  17.563  50.1530  0.00  0.00     0.000 OA
ATOM     35   O  BDP C   2       2.451  16.470  48.6440  0.00  0.00     0.000 OA
ENDBRANCH 27 33
BRANCH 23 36
ATOM     36  O4  SGN C   3       7.790  15.611  48.3600  0.00  0.00     0.000 O
BRANCH 36 40
ATOM     37  C1  SGN C   3       9.838  16.457  44.8220  0.00  0.00     0.000 C
ATOM     38  C2  SGN C   3       8.620  17.329  45.1680  0.00  0.00     0.000 C
ATOM     39  C3  SGN C   3       8.270  17.193  46.6420  0.00  0.00     0.000 C
ATOM     40  C4  SGN C   3       8.041  15.730  46.9570  0.00  0.00     0.000 C
ATOM     41  C5  SGN C   3       9.275  14.948  46.5650  0.00  0.00     0.000 C
ATOM     42  O5  SGN C   3       9.529  15.114  45.1610  0.00  0.00     0.000 O
ATOM     43   O  SGN C   3       7.107  17.962  46.9210  0.00  0.00     0.000 O
ATOM     45  HD  SGN C   3       7.163  17.300  47.4760  0.00  0.00     0.000 HD
BRANCH 38 47
ATOM     45   N  SGN C   3       8.715  18.774  44.8960  0.00  0.00     0.000 N
ATOM     47  HD  SGN C   3       8.784  18.124  45.4630  0.00  0.00     0.000 HD
ATOM     47   S  SGN C   3       8.737  19.088  43.3380  0.00  0.00     0.000 S
ATOM     48   O  SGN C   3       9.918  18.592  42.7260  0.00  0.00     0.000 OA
ATOM     49   O  SGN C   3       7.497  18.622  42.8090  0.00  0.00     0.000 OA
ATOM     50   O  SGN C   3       8.810  20.548  43.3300  0.00  0.00     0.000 OA
ENDBRANCH 38 47
BRANCH 41 51
ATOM     51   C  SGN C   3       9.178  13.470  46.8320  0.00  0.00     0.000 C
ATOM     52   O  SGN C   3      11.081  11.507  49.3630  0.00  0.00     0.000 OA
ATOM     53   O  SGN C   3       8.842  11.206  48.5690  0.00  0.00     0.000 OA
ATOM     54   O  SGN C   3      10.708  10.922  47.0850  0.00  0.00     0.000 OA
ATOM     55   O  SGN C   3      10.033  13.144  47.9050  0.00  0.00     0.000 O
ATOM     56   S  SGN C   3      10.180  11.544  48.2620  0.00  0.00     0.000 S
ENDBRANCH 41 51
BRANCH 37 57
ATOM     57  O4  IDS C   4      10.982  16.803  45.4610  0.00  0.00     0.000 O
BRANCH 57 61
ATOM     58  C1  IDS C   4      14.776  16.831  45.1770  0.00  0.00     0.000 C
ATOM     59  C2  IDS C   4      13.962  16.794  43.9220  0.00  0.00     0.000 C
ATOM     60  C3  IDS C   4      12.740  15.879  44.0360  0.00  0.00     0.000 C
ATOM     61  C4  IDS C   4      12.046  15.834  45.3900  0.00  0.00     0.000 C
ATOM     62  C5  IDS C   4      13.055  16.044  46.5250  0.00  0.00     0.000 C
ATOM     63  O5  IDS C   4      13.921  17.139  46.2650  0.00  0.00     0.000 O
ATOM     64   O  IDS C   4      13.219  14.581  43.7380  0.00  0.00     0.000 O
ATOM     66  HD  IDS C   4      13.180  14.075  44.4390  0.00  0.00     0.000 HD
BRANCH 59 66
ATOM     66   O  IDS C   4      13.450  18.132  43.5680  0.00  0.00     0.000 O
ATOM     67   S  IDS C   4      14.066  18.806  42.2650  0.00  0.00     0.000 S
ATOM     68   O  IDS C   4      13.627  17.932  41.2040  0.00  0.00     0.000 OA
ATOM     69   O  IDS C   4      13.498  20.140  42.2310  0.00  0.00     0.000 OA
ATOM     70   O  IDS C   4      15.513  18.787  42.4130  0.00  0.00     0.000 OA
ENDBRANCH 59 66
BRANCH 62 71
ATOM     71   C  IDS C   4      12.397  16.351  47.8570  0.00  0.00     0.000 C
ATOM     72   O  IDS C   4      12.394  15.518  48.7430  0.00  0.00     0.000 OA
ATOM     73   O  IDS C   4      11.775  17.426  47.9780  0.00  0.00     0.000 OA
ENDBRANCH 62 71
BRANCH 58 74
ATOM     74  O4  SGN C   5      15.679  15.818  45.3060  0.00  0.00     0.000 O
BRANCH 74 78
ATOM     75  C1  SGN C   5      19.279  14.623  47.0530  0.00  0.00     0.000 C
ATOM     76  C2  SGN C   5      18.265  15.303  47.9920  0.00  0.00     0.000 C
ATOM     77  C3  SGN C   5      16.882  15.380  47.3330  0.00  0.00     0.000 C
ATOM     78  C4  SGN C   5      16.967  15.919  45.9120  0.00  0.00     0.000 C
ATOM     79  C5  SGN C   5      17.993  15.117  45.1250  0.00  0.00     0.000 C
ATOM     80  O5  SGN C   5      19.291  15.228  45.7670  0.00  0.00     0.000 O
ATOM     81   O  SGN C   5      16.036  16.202  48.1300  0.00  0.00     0.000 O
ATOM     83  HD  SGN C   5      16.078  16.194  48.9950  0.00  0.00     0.000 HD
BRANCH 76 85
ATOM     83   N  SGN C   5      18.305  14.435  49.1760  0.00  0.00     0.000 N
ATOM     85  HD  SGN C   5      18.278  14.304  50.0320  0.00  0.00     0.000 HD
ATOM     85   S  SGN C   5      19.028  14.675  50.5960  0.00  0.00     0.000 S
ATOM     86   O  SGN C   5      18.768  13.588  51.4750  0.00  0.00     0.000 OA
ATOM     87   O  SGN C   5      20.388  14.978  50.3280  0.00  0.00     0.000 OA
ATOM     88   O  SGN C   5      18.206  15.898  50.9960  0.00  0.00     0.000 OA
ENDBRANCH 76 85
BRANCH 79 89
ATOM     89   C  SGN C   5      18.134  15.564  43.6850  0.00  0.00     0.000 C
ATOM     90   O  SGN C   5      18.292  17.003  43.6320  0.00  0.00     0.000 O
ATOM     91   S  SGN C   5      19.183  17.587  42.4310  0.00  0.00     0.000 S
ATOM     92   O  SGN C   5      20.436  16.879  42.4740  0.00  0.00     0.000 OA
ATOM     93   O  SGN C   5      18.457  17.349  41.2110  0.00  0.00     0.000 OA
ATOM     94   O  SGN C   5      19.303  18.982  42.7580  0.00  0.00     0.000 OA
ENDBRANCH 79 89
BRANCH 75 95
ATOM     95  O4  BDP C   6      18.872  13.323  46.9450  0.00  0.00     0.000 O
BRANCH 95 99
ATOM     96  C1  BDP C   6      21.181   9.768  46.2520  0.00  0.00     0.000 C
ATOM     97  C2  BDP C   6      21.823  10.915  46.9790  0.00  0.00     0.000 C
ATOM     98  C3  BDP C   6      20.833  11.963  47.5110  0.00  0.00     0.000 C
ATOM     99  C4  BDP C   6      19.838  12.378  46.4370  0.00  0.00     0.000 C
ATOM    100  C5  BDP C   6      19.244  11.093  45.8140  0.00  0.00     0.000 C
ATOM    101  O5  BDP C   6      20.392  10.419  45.2730  0.00  0.00     0.000 O
BRANCH 100 102
ATOM    102   C  BDP C   6      18.297  11.382  44.6770  0.00  0.00     0.000 C
ATOM    103   O  BDP C   6      17.074  11.493  44.8470  0.00  0.00     0.000 OA
ATOM    104   O  BDP C   6      18.797  11.517  43.5540  0.00  0.00     0.000 OA
ENDBRANCH 100 102
ENDBRANCH 95 99
ENDBRANCH 75 95
ENDBRANCH 74 78
ENDBRANCH 58 74
ENDBRANCH 57 61
ENDBRANCH 37 57
ENDBRANCH 36 40
ENDBRANCH 23 36
ENDBRANCH 22 26
ENDBRANCH 1 22
TORSDOF 20
ENDMDL
MODEL 61
REMARK VINA RESULT:      -5.4     14.005     21.087
ROOT
ATOM      1  C1  NGY C   1      26.790  15.928  55.6110  0.00  0.00     0.000 C
ATOM      2  C2  NGY C   1      26.926  14.985  56.7980  0.00  0.00     0.000 C
ATOM      3  C3  NGY C   1      25.551  14.641  57.3610  0.00  0.00     0.000 C
ATOM      4  C4  NGY C   1      24.830  15.937  57.6790  0.00  0.00     0.000 C
ATOM      5  C5  NGY C   1      24.687  16.747  56.3940  0.00  0.00     0.000 C
ATOM      6  O5  NGY C   1      26.017  17.070  55.9100  0.00  0.00     0.000 O
ATOM      7   O  NGY C   1      25.708  13.821  58.5090  0.00  0.00     0.000 O
ATOM      9  HD  NGY C   1      26.259  13.754  59.1740  0.00  0.00     0.000 HD
ATOM      9   O  NGY C   1      23.550  15.682  58.2400  0.00  0.00     0.000 O
ATOM     11  HD  NGY C   1      24.101  15.615  58.9040  0.00  0.00     0.000 HD
ENDROOT
BRANCH 2 13
ATOM     11   N  NGY C   1      27.358  13.653  57.1490  0.00  0.00     0.000 N
ATOM     13  HD  NGY C   1      28.209  13.748  57.0190  0.00  0.00     0.000 HD
ATOM     13   C  NGY C   1      28.641  13.299  57.1000  0.00  0.00     0.000 C
ATOM     14   O  NGY C   1      29.491  14.049  56.6170  0.00  0.00     0.000 OA
ATOM     15   C  NGY C   1      28.994  11.964  57.6830  0.00  0.00     0.000 C
ENDBRANCH 2 13
BRANCH 5 16
ATOM     16   C  NGY C   1      23.983  18.058  56.5430  0.00  0.00     0.000 C
ATOM     17   O  NGY C   1      24.816  21.065  54.6150  0.00  0.00     0.000 OA
ATOM     18   O  NGY C   1      24.700  19.052  55.8070  0.00  0.00     0.000 O
ATOM     19   S  NGY C   1      23.897  20.361  55.4730  0.00  0.00     0.000 S
ATOM     20   O  NGY C   1      23.671  21.050  56.7160  0.00  0.00     0.000 OA
ATOM     21   O  NGY C   1      22.676  19.891  54.8390  0.00  0.00     0.000 OA
ENDBRANCH 5 16
BRANCH 1 22
ATOM     22  O4  BDP C   2      26.307  15.234  54.5590  0.00  0.00     0.000 O
BRANCH 22 26
ATOM     23  C1  BDP C   2      26.438  14.363  50.5350  0.00  0.00     0.000 C
ATOM     24  C2  BDP C   2      27.773  14.651  51.1820  0.00  0.00     0.000 C
ATOM     25  C3  BDP C   2      27.632  14.588  52.6800  0.00  0.00     0.000 C
ATOM     26  C4  BDP C   2      26.499  15.497  53.1440  0.00  0.00     0.000 C
ATOM     27  C5  BDP C   2      25.254  15.239  52.3040  0.00  0.00     0.000 C
ATOM     28  O5  BDP C   2      25.491  15.412  50.8830  0.00  0.00     0.000 O
ATOM     29   O  BDP C   2      28.746  13.647  50.8930  0.00  0.00     0.000 O
ATOM     31  HD  BDP C   2      29.305  13.456  51.5250  0.00  0.00     0.000 HD
ATOM     31   O  BDP C   2      28.868  15.029  53.2300  0.00  0.00     0.000 O
ATOM     33  HD  BDP C   2      29.427  14.838  53.8630  0.00  0.00     0.000 HD
BRANCH 27 33
ATOM     33   C  BDP C   2      24.121  16.177  52.6480  0.00  0.00     0.000 C
ATOM     34   O  BDP C   2      22.951  15.767  52.8360  0.00  0.00     0.000 OA
ATOM     35   O  BDP C   2      24.356  17.373  52.7080  0.00  0.00     0.000 OA
ENDBRANCH 27 33
BRANCH 23 36
ATOM     36  O4  SGN C   3      26.459  14.261  49.1860  0.00  0.00     0.000 O
BRANCH 36 40
ATOM     37  C1  SGN C   3      24.948  12.118  45.9370  0.00  0.00     0.000 C
ATOM     38  C2  SGN C   3      24.243  13.429  46.3180  0.00  0.00     0.000 C
ATOM     39  C3  SGN C   3      25.144  14.283  47.1980  0.00  0.00     0.000 C
ATOM     40  C4  SGN C   3      25.551  13.474  48.4100  0.00  0.00     0.000 C
ATOM     41  C5  SGN C   3      26.214  12.196  47.9440  0.00  0.00     0.000 C
ATOM     42  O5  SGN C   3      25.297  11.442  47.1350  0.00  0.00     0.000 O
ATOM     43   O  SGN C   3      24.445  15.460  47.5830  0.00  0.00     0.000 O
ATOM     45  HD  SGN C   3      25.036  15.259  48.1820  0.00  0.00     0.000 HD
BRANCH 38 47
ATOM     45   N  SGN C   3      22.854  13.783  45.9750  0.00  0.00     0.000 N
ATOM     47  HD  SGN C   3      23.496  13.791  46.5560  0.00  0.00     0.000 HD
ATOM     47   S  SGN C   3      22.575  13.663  44.4150  0.00  0.00     0.000 S
ATOM     48   O  SGN C   3      23.318  14.624  43.6790  0.00  0.00     0.000 OA
ATOM     49   O  SGN C   3      22.778  12.294  44.0680  0.00  0.00     0.000 OA
ATOM     50   O  SGN C   3      21.163  14.034  44.3350  0.00  0.00     0.000 OA
ENDBRANCH 38 47
BRANCH 41 51
ATOM     51   C  SGN C   3      26.673  11.298  49.0600  0.00  0.00     0.000 C
ATOM     52   O  SGN C   3      30.179  10.361  49.9030  0.00  0.00     0.000 OA
ATOM     53   O  SGN C   3      28.302  10.699  51.3500  0.00  0.00     0.000 OA
ATOM     54   O  SGN C   3      28.303   8.900  49.7600  0.00  0.00     0.000 OA
ATOM     55   O  SGN C   3      28.083  11.250  49.0560  0.00  0.00     0.000 O
ATOM     56   S  SGN C   3      28.781  10.203  50.1160  0.00  0.00     0.000 S
ENDBRANCH 41 51
BRANCH 37 57
ATOM     57  O4  IDS C   4      26.073  12.275  45.1960  0.00  0.00     0.000 O
BRANCH 57 61
ATOM     58  C1  IDS C   4      28.255  11.840  42.1110  0.00  0.00     0.000 C
ATOM     59  C2  IDS C   4      26.897  12.446  41.9500  0.00  0.00     0.000 C
ATOM     60  C3  IDS C   4      25.837  11.762  42.8180  0.00  0.00     0.000 C
ATOM     61  C4  IDS C   4      26.290  11.271  44.1860  0.00  0.00     0.000 C
ATOM     62  C5  IDS C   4      27.761  10.841  44.1490  0.00  0.00     0.000 C
ATOM     63  O5  IDS C   4      28.575  11.801  43.4910  0.00  0.00     0.000 O
ATOM     64   O  IDS C   4      25.404  10.644  42.0650  0.00  0.00     0.000 O
ATOM     66  HD  IDS C   4      25.641   9.907  42.4530  0.00  0.00     0.000 HD
BRANCH 59 66
ATOM     66   O  IDS C   4      26.891  13.872  42.3290  0.00  0.00     0.000 O
ATOM     67   S  IDS C   4      26.614  14.917  41.1610  0.00  0.00     0.000 S
ATOM     68   O  IDS C   4      25.259  14.616  40.7660  0.00  0.00     0.000 OA
ATOM     69   O  IDS C   4      26.797  16.218  41.7730  0.00  0.00     0.000 OA
ATOM     70   O  IDS C   4      27.560  14.630  40.0950  0.00  0.00     0.000 OA
ENDBRANCH 59 66
BRANCH 62 71
ATOM     71   C  IDS C   4      28.366  10.670  45.5300  0.00  0.00     0.000 C
ATOM     72   O  IDS C   4      29.201  11.457  45.9320  0.00  0.00     0.000 OA
ATOM     73   O  IDS C   4      28.063   9.655  46.1890  0.00  0.00     0.000 OA
ENDBRANCH 62 71
BRANCH 58 74
ATOM     74  O4  SGN C   5      28.488  10.739  41.3410  0.00  0.00     0.000 O
BRANCH 74 78
ATOM     75  C1  SGN C   5      31.282   8.566  39.1240  0.00  0.00     0.000 C
ATOM     76  C2  SGN C   5      31.491   8.577  40.6500  0.00  0.00     0.000 C
ATOM     77  C3  SGN C   5      30.239   9.102  41.3650  0.00  0.00     0.000 C
ATOM     78  C4  SGN C   5      29.733  10.392  40.7350  0.00  0.00     0.000 C
ATOM     79  C5  SGN C   5      29.561  10.191  39.2370  0.00  0.00     0.000 C
ATOM     80  O5  SGN C   5      30.837   9.829  38.6460  0.00  0.00     0.000 O
ATOM     81   O  SGN C   5      30.545   9.304  42.7410  0.00  0.00     0.000 O
ATOM     83  HD  SGN C   5      31.071   8.769  43.1730  0.00  0.00     0.000 HD
BRANCH 76 85
ATOM     83   N  SGN C   5      31.777   7.200  41.0730  0.00  0.00     0.000 N
ATOM     85  HD  SGN C   5      32.235   6.613  41.5150  0.00  0.00     0.000 HD
ATOM     85   S  SGN C   5      33.195   6.457  41.2460  0.00  0.00     0.000 S
ATOM     86   O  SGN C   5      33.007   5.131  41.7230  0.00  0.00     0.000 OA
ATOM     87   O  SGN C   5      33.900   6.610  40.0240  0.00  0.00     0.000 OA
ATOM     88   O  SGN C   5      33.720   7.360  42.3600  0.00  0.00     0.000 OA
ENDBRANCH 76 85
BRANCH 79 89
ATOM     89   C  SGN C   5      29.035  11.418  38.5190  0.00  0.00     0.000 C
ATOM     90   O  SGN C   5      29.940  11.786  37.4500  0.00  0.00     0.000 O
ATOM     91   S  SGN C   5      29.286  12.474  36.1560  0.00  0.00     0.000 S
ATOM     92   O  SGN C   5      28.223  11.603  35.7270  0.00  0.00     0.000 OA
ATOM     93   O  SGN C   5      28.805  13.770  36.5630  0.00  0.00     0.000 OA
ATOM     94   O  SGN C   5      30.381  12.541  35.2280  0.00  0.00     0.000 OA
ENDBRANCH 79 89
BRANCH 75 95
ATOM     95  O4  BDP C   6      30.322   7.623  38.8860  0.00  0.00     0.000 O
BRANCH 95 99
ATOM     96  C1  BDP C   6      29.099   5.756  35.2170  0.00  0.00     0.000 C
ATOM     97  C2  BDP C   6      30.545   6.128  35.3900  0.00  0.00     0.000 C
ATOM     98  C3  BDP C   6      30.953   6.425  36.8400  0.00  0.00     0.000 C
ATOM     99  C4  BDP C   6      29.974   7.381  37.5060  0.00  0.00     0.000 C
ATOM    100  C5  BDP C   6      28.544   6.842  37.2680  0.00  0.00     0.000 C
ATOM    101  O5  BDP C   6      28.421   6.833  35.8370  0.00  0.00     0.000 O
BRANCH 100 102
ATOM    102   C  BDP C   6      27.479   7.755  37.8200  0.00  0.00     0.000 C
ATOM    103   O  BDP C   6      27.034   8.718  37.1780  0.00  0.00     0.000 OA
ATOM    104   O  BDP C   6      27.050   7.495  38.9510  0.00  0.00     0.000 OA
ENDBRANCH 100 102
ENDBRANCH 95 99
ENDBRANCH 75 95
ENDBRANCH 74 78
ENDBRANCH 58 74
ENDBRANCH 57 61
ENDBRANCH 37 57
ENDBRANCH 36 40
ENDBRANCH 23 36
ENDBRANCH 22 26
ENDBRANCH 1 22
TORSDOF 20
ENDMDL
MODEL 62
REMARK VINA RESULT:      -5.3      4.759     15.711
ROOT
ATOM      1  C1  NGY C   1       2.640  14.358  51.2220  0.00  0.00     0.000 C
ATOM      2  C2  NGY C   1       1.884  14.840  52.4520  0.00  0.00     0.000 C
ATOM      3  C3  NGY C   1       2.399  14.130  53.7000  0.00  0.00     0.000 C
ATOM      4  C4  NGY C   1       2.311  12.634  53.4670  0.00  0.00     0.000 C
ATOM      5  C5  NGY C   1       3.175  12.275  52.2610  0.00  0.00     0.000 C
ATOM      6  O5  NGY C   1       2.634  12.952  51.0970  0.00  0.00     0.000 O
ATOM      7   O  NGY C   1       1.631  14.541  54.8220  0.00  0.00     0.000 O
ATOM      9  HD  NGY C   1       0.806  14.746  54.9890  0.00  0.00     0.000 HD
ATOM      9   O  NGY C   1       2.747  11.914  54.6110  0.00  0.00     0.000 O
ATOM     11  HD  NGY C   1       1.922  12.119  54.7780  0.00  0.00     0.000 HD
ENDROOT
BRANCH 2 13
ATOM     11   N  NGY C   1       2.031  16.245  52.7490  0.00  0.00     0.000 N
ATOM     13  HD  NGY C   1       1.199  16.479  52.7090  0.00  0.00     0.000 HD
ATOM     13   C  NGY C   1       0.980  17.062  52.8000  0.00  0.00     0.000 C
ATOM     14   O  NGY C   1      -0.140  16.681  52.4560  0.00  0.00     0.000 OA
ATOM     15   C  NGY C   1       1.227  18.445  53.3200  0.00  0.00     0.000 C
ENDBRANCH 2 13
BRANCH 5 16
ATOM     16   C  NGY C   1       3.199  10.822  51.9070  0.00  0.00     0.000 C
ATOM     17   O  NGY C   1       2.451   9.513  48.5630  0.00  0.00     0.000 OA
ATOM     18   O  NGY C   1       2.652  10.658  50.5960  0.00  0.00     0.000 O
ATOM     19   S  NGY C   1       2.996   9.303  49.8800  0.00  0.00     0.000 S
ATOM     20   O  NGY C   1       2.312   8.258  50.5950  0.00  0.00     0.000 OA
ATOM     21   O  NGY C   1       4.445   9.207  49.9550  0.00  0.00     0.000 OA
ENDBRANCH 5 16
BRANCH 1 22
ATOM     22  O4  BDP C   2       3.888  14.872  51.2500  0.00  0.00     0.000 O
BRANCH 22 26
ATOM     23  C1  BDP C   2       7.223  16.188  49.2220  0.00  0.00     0.000 C
ATOM     24  C2  BDP C   2       5.899  16.493  48.5630  0.00  0.00     0.000 C
ATOM     25  C3  BDP C   2       4.783  16.297  49.5550  0.00  0.00     0.000 C
ATOM     26  C4  BDP C   2       4.870  14.909  50.1810  0.00  0.00     0.000 C
ATOM     27  C5  BDP C   2       6.293  14.644  50.6540  0.00  0.00     0.000 C
ATOM     28  O5  BDP C   2       7.272  14.781  49.5910  0.00  0.00     0.000 O
ATOM     29   O  BDP C   2       5.781  17.866  48.1900  0.00  0.00     0.000 O
ATOM     31  HD  BDP C   2       4.994  18.221  48.2640  0.00  0.00     0.000 HD
ATOM     31   O  BDP C   2       3.563  16.434  48.8370  0.00  0.00     0.000 O
ATOM     33  HD  BDP C   2       2.776  16.789  48.9110  0.00  0.00     0.000 HD
BRANCH 27 33
ATOM     33   C  BDP C   2       6.470  13.245  51.1960  0.00  0.00     0.000 C
ATOM     34   O  BDP C   2       6.376  12.231  50.4650  0.00  0.00     0.000 OA
ATOM     35   O  BDP C   2       6.677  13.108  52.3900  0.00  0.00     0.000 OA
ENDBRANCH 27 33
BRANCH 23 36
ATOM     36  O4  SGN C   3       8.318  16.452  48.4730  0.00  0.00     0.000 O
BRANCH 36 40
ATOM     37  C1  SGN C   3      12.372  17.387  48.8200  0.00  0.00     0.000 C
ATOM     38  C2  SGN C   3      11.703  16.663  49.9990  0.00  0.00     0.000 C
ATOM     39  C3  SGN C   3      10.397  16.019  49.5560  0.00  0.00     0.000 C
ATOM     40  C4  SGN C   3       9.507  17.085  48.9530  0.00  0.00     0.000 C
ATOM     41  C5  SGN C   3      10.251  17.759  47.8210  0.00  0.00     0.000 C
ATOM     42  O5  SGN C   3      11.460  18.353  48.3210  0.00  0.00     0.000 O
ATOM     43   O  SGN C   3       9.772  15.408  50.6780  0.00  0.00     0.000 O
ATOM     45  HD  SGN C   3       9.173  15.641  50.0970  0.00  0.00     0.000 HD
BRANCH 38 47
ATOM     45   N  SGN C   3      12.678  15.640  50.4180  0.00  0.00     0.000 N
ATOM     47  HD  SGN C   3      12.071  15.895  49.8560  0.00  0.00     0.000 HD
ATOM     47   S  SGN C   3      13.705  16.200  51.4950  0.00  0.00     0.000 S
ATOM     48   O  SGN C   3      14.543  17.203  50.9390  0.00  0.00     0.000 OA
ATOM     49   O  SGN C   3      12.937  16.570  52.6380  0.00  0.00     0.000 OA
ATOM     50   O  SGN C   3      14.531  15.023  51.7580  0.00  0.00     0.000 OA
ENDBRANCH 38 47
BRANCH 41 51
ATOM     51   C  SGN C   3       9.470  18.842  47.1300  0.00  0.00     0.000 C
ATOM     52   O  SGN C   3       6.793  18.412  44.5740  0.00  0.00     0.000 OA
ATOM     53   O  SGN C   3       7.019  20.077  46.2790  0.00  0.00     0.000 OA
ATOM     54   O  SGN C   3       8.616  19.943  44.4920  0.00  0.00     0.000 OA
ATOM     55   O  SGN C   3       8.521  18.245  46.2740  0.00  0.00     0.000 O
ATOM     56   S  SGN C   3       7.658  19.266  45.3150  0.00  0.00     0.000 S
ENDBRANCH 41 51
BRANCH 37 57
ATOM     57  O4  IDS C   4      12.738  16.580  47.7940  0.00  0.00     0.000 O
BRANCH 57 61
ATOM     58  C1  IDS C   4      15.694  15.706  45.5650  0.00  0.00     0.000 C
ATOM     59  C2  IDS C   4      15.957  16.374  46.8770  0.00  0.00     0.000 C
ATOM     60  C3  IDS C   4      14.937  17.469  47.1990  0.00  0.00     0.000 C
ATOM     61  C4  IDS C   4      13.504  17.216  46.7520  0.00  0.00     0.000 C
ATOM     62  C5  IDS C   4      13.474  16.383  45.4650  0.00  0.00     0.000 C
ATOM     63  O5  IDS C   4      14.347  15.266  45.5410  0.00  0.00     0.000 O
ATOM     64   O  IDS C   4      15.412  18.627  46.5380  0.00  0.00     0.000 O
ATOM     66  HD  IDS C   4      14.874  18.853  45.8980  0.00  0.00     0.000 HD
BRANCH 59 66
ATOM     66   O  IDS C   4      15.906  15.413  47.9950  0.00  0.00     0.000 O
ATOM     67   S  IDS C   4      17.280  15.120  48.7430  0.00  0.00     0.000 S
ATOM     68   O  IDS C   4      17.606  16.392  49.3420  0.00  0.00     0.000 OA
ATOM     69   O  IDS C   4      16.973  14.062  49.6860  0.00  0.00     0.000 OA
ATOM     70   O  IDS C   4      18.250  14.739  47.7280  0.00  0.00     0.000 OA
ENDBRANCH 59 66
BRANCH 62 71
ATOM     71   C  IDS C   4      12.103  15.811  45.1580  0.00  0.00     0.000 C
ATOM     72   O  IDS C   4      11.475  16.215  44.1990  0.00  0.00     0.000 OA
ATOM     73   O  IDS C   4      11.603  15.003  45.9650  0.00  0.00     0.000 OA
ENDBRANCH 62 71
BRANCH 58 74
ATOM     74  O4  SGN C   5      16.203  16.353  44.4780  0.00  0.00     0.000 O
BRANCH 74 78
ATOM     75  C1  SGN C   5      17.273  16.086  40.4500  0.00  0.00     0.000 C
ATOM     76  C2  SGN C   5      15.762  16.114  40.7470  0.00  0.00     0.000 C
ATOM     77  C3  SGN C   5      15.502  16.553  42.1940  0.00  0.00     0.000 C
ATOM     78  C4  SGN C   5      16.379  15.791  43.1780  0.00  0.00     0.000 C
ATOM     79  C5  SGN C   5      17.834  15.891  42.7440  0.00  0.00     0.000 C
ATOM     80  O5  SGN C   5      17.984  15.323  41.4160  0.00  0.00     0.000 O
ATOM     81   O  SGN C   5      14.125  16.356  42.4960  0.00  0.00     0.000 O
ATOM     83  HD  SGN C   5      13.506  16.497  41.9060  0.00  0.00     0.000 HD
BRANCH 76 85
ATOM     83   N  SGN C   5      15.741  16.484  39.3260  0.00  0.00     0.000 N
ATOM     85  HD  SGN C   5      15.435  16.942  38.6580  0.00  0.00     0.000 HD
ATOM     85   S  SGN C   5      14.482  16.781  38.3660  0.00  0.00     0.000 S
ATOM     86   O  SGN C   5      14.925  17.151  37.0660  0.00  0.00     0.000 OA
ATOM     87   O  SGN C   5      13.612  15.663  38.4580  0.00  0.00     0.000 OA
ATOM     88   O  SGN C   5      13.976  18.002  39.1290  0.00  0.00     0.000 OA
ENDBRANCH 76 85
BRANCH 79 89
ATOM     89   C  SGN C   5      18.793  15.181  43.6770  0.00  0.00     0.000 C
ATOM     90   O  SGN C   5      18.302  13.848  43.9620  0.00  0.00     0.000 O
ATOM     91   S  SGN C   5      19.407  12.716  44.2330  0.00  0.00     0.000 S
ATOM     92   O  SGN C   5      20.316  12.760  43.1170  0.00  0.00     0.000 OA
ATOM     93   O  SGN C   5      20.050  13.041  45.4800  0.00  0.00     0.000 OA
ATOM     94   O  SGN C   5      18.633  11.506  44.2920  0.00  0.00     0.000 OA
ENDBRANCH 79 89
BRANCH 75 95
ATOM     95  O4  BDP C   6      17.686  17.387  40.4980  0.00  0.00     0.000 O
BRANCH 95 99
ATOM     96  C1  BDP C   6      20.823  19.481  38.4430  0.00  0.00     0.000 C
ATOM     97  C2  BDP C   6      19.937  18.556  37.6570  0.00  0.00     0.000 C
ATOM     98  C3  BDP C   6      18.638  18.161  38.3740  0.00  0.00     0.000 C
ATOM     99  C4  BDP C   6      18.909  17.709  39.8010  0.00  0.00     0.000 C
ATOM    100  C5  BDP C   6      19.797  18.778  40.4800  0.00  0.00     0.000 C
ATOM    101  O5  BDP C   6      20.984  18.794  39.6700  0.00  0.00     0.000 O
BRANCH 100 102
ATOM    102   C  BDP C   6      20.197  18.396  41.8830  0.00  0.00     0.000 C
ATOM    103   O  BDP C   6      21.048  17.525  42.1150  0.00  0.00     0.000 OA
ATOM    104   O  BDP C   6      19.645  19.005  42.8070  0.00  0.00     0.000 OA
ENDBRANCH 100 102
ENDBRANCH 95 99
ENDBRANCH 75 95
ENDBRANCH 74 78
ENDBRANCH 58 74
ENDBRANCH 57 61
ENDBRANCH 37 57
ENDBRANCH 36 40
ENDBRANCH 23 36
ENDBRANCH 22 26
ENDBRANCH 1 22
TORSDOF 20
ENDMDL
MODEL 63
REMARK VINA RESULT:      -5.1     17.138     21.950
ROOT
ATOM      1  C1  NGY C   1      36.129   6.398  36.6190  0.00  0.00     0.000 C
ATOM      2  C2  NGY C   1      37.465   7.019  36.2360  0.00  0.00     0.000 C
ATOM      3  C3  NGY C   1      37.256   8.136  35.2180  0.00  0.00     0.000 C
ATOM      4  C4  NGY C   1      36.478   7.571  34.0450  0.00  0.00     0.000 C
ATOM      5  C5  NGY C   1      35.132   7.059  34.5510  0.00  0.00     0.000 C
ATOM      6  O5  NGY C   1      35.380   5.985  35.4950  0.00  0.00     0.000 O
ATOM      7   O  NGY C   1      38.519   8.650  34.8230  0.00  0.00     0.000 O
ATOM      9  HD  NGY C   1      39.315   8.342  34.6760  0.00  0.00     0.000 HD
ATOM      9   O  NGY C   1      36.279   8.558  33.0440  0.00  0.00     0.000 O
ATOM     11  HD  NGY C   1      37.075   8.250  32.8970  0.00  0.00     0.000 HD
ENDROOT
BRANCH 2 13
ATOM     11   N  NGY C   1      38.517   6.470  37.0570  0.00  0.00     0.000 N
ATOM     13  HD  NGY C   1      38.897   7.209  37.3010  0.00  0.00     0.000 HD
ATOM     13   C  NGY C   1      39.402   7.252  37.6750  0.00  0.00     0.000 C
ATOM     14   O  NGY C   1      39.443   8.463  37.4540  0.00  0.00     0.000 OA
ATOM     15   C  NGY C   1      40.313   6.588  38.6610  0.00  0.00     0.000 C
ENDBRANCH 2 13
BRANCH 5 16
ATOM     16   C  NGY C   1      34.240   6.476  33.5020  0.00  0.00     0.000 C
ATOM     17   O  NGY C   1      35.117   3.563  31.4520  0.00  0.00     0.000 OA
ATOM     18   O  NGY C   1      34.977   5.500  32.7610  0.00  0.00     0.000 O
ATOM     19   S  NGY C   1      34.115   4.478  31.9360  0.00  0.00     0.000 S
ATOM     20   O  NGY C   1      33.486   5.215  30.8710  0.00  0.00     0.000 OA
ATOM     21   O  NGY C   1      33.173   3.932  32.8990  0.00  0.00     0.000 OA
ENDBRANCH 5 16
BRANCH 1 22
ATOM     22  O4  BDP C   2      35.454   7.265  37.4020  0.00  0.00     0.000 O
BRANCH 22 26
ATOM     23  C1  BDP C   2      32.755   8.096  40.4000  0.00  0.00     0.000 C
ATOM     24  C2  BDP C   2      34.000   7.359  40.8330  0.00  0.00     0.000 C
ATOM     25  C3  BDP C   2      35.041   7.444  39.7480  0.00  0.00     0.000 C
ATOM     26  C4  BDP C   2      34.460   6.973  38.4190  0.00  0.00     0.000 C
ATOM     27  C5  BDP C   2      33.120   7.654  38.1710  0.00  0.00     0.000 C
ATOM     28  O5  BDP C   2      32.170   7.431  39.2450  0.00  0.00     0.000 O
ATOM     29   O  BDP C   2      34.633   7.972  41.9560  0.00  0.00     0.000 O
ATOM     31  HD  BDP C   2      35.499   7.950  41.9720  0.00  0.00     0.000 HD
ATOM     31   O  BDP C   2      36.116   6.599  40.1380  0.00  0.00     0.000 O
ATOM     33  HD  BDP C   2      36.982   6.577  40.1540  0.00  0.00     0.000 HD
BRANCH 27 33
ATOM     33   C  BDP C   2      32.443   7.157  36.9160  0.00  0.00     0.000 C
ATOM     34   O  BDP C   2      32.022   7.940  36.0310  0.00  0.00     0.000 OA
ATOM     35   O  BDP C   2      32.275   5.956  36.7840  0.00  0.00     0.000 OA
ENDBRANCH 27 33
BRANCH 23 36
ATOM     36  O4  SGN C   3      31.789   8.204  41.3420  0.00  0.00     0.000 O
BRANCH 36 40
ATOM     37  C1  SGN C   3      29.201  11.014  43.0250  0.00  0.00     0.000 C
ATOM     38  C2  SGN C   3      28.578   9.854  42.2330  0.00  0.00     0.000 C
ATOM     39  C3  SGN C   3      29.580   8.720  42.0720  0.00  0.00     0.000 C
ATOM     40  C4  SGN C   3      30.830   9.262  41.4140  0.00  0.00     0.000 C
ATOM     41  C5  SGN C   3      31.360  10.410  42.2450  0.00  0.00     0.000 C
ATOM     42  O5  SGN C   3      30.366  11.442  42.3360  0.00  0.00     0.000 O
ATOM     43   O  SGN C   3      28.997   7.688  41.2860  0.00  0.00     0.000 O
ATOM     45  HD  SGN C   3      29.859   7.677  41.1960  0.00  0.00     0.000 HD
BRANCH 38 47
ATOM     45   N  SGN C   3      27.284   9.188  42.4700  0.00  0.00     0.000 N
ATOM     47  HD  SGN C   3      28.148   9.132  42.4320  0.00  0.00     0.000 HD
ATOM     47   S  SGN C   3      26.103  10.233  42.6670  0.00  0.00     0.000 S
ATOM     48   O  SGN C   3      26.272  10.989  43.8570  0.00  0.00     0.000 OA
ATOM     49   O  SGN C   3      26.001  10.969  41.4500  0.00  0.00     0.000 OA
ATOM     50   O  SGN C   3      24.954   9.349  42.8600  0.00  0.00     0.000 OA
ENDBRANCH 38 47
BRANCH 41 51
ATOM     51   C  SGN C   3      32.613  11.039  41.6990  0.00  0.00     0.000 C
ATOM     52   O  SGN C   3      35.984  11.095  43.2830  0.00  0.00     0.000 OA
ATOM     53   O  SGN C   3      35.390  10.978  40.9670  0.00  0.00     0.000 OA
ATOM     54   O  SGN C   3      34.853  12.926  42.2640  0.00  0.00     0.000 OA
ATOM     55   O  SGN C   3      33.676  10.787  42.5910  0.00  0.00     0.000 O
ATOM     56   S  SGN C   3      35.109  11.516  42.2430  0.00  0.00     0.000 S
ENDBRANCH 41 51
BRANCH 37 57
ATOM     57  O4  IDS C   4      29.551  10.707  44.2980  0.00  0.00     0.000 O
BRANCH 57 61
ATOM     58  C1  IDS C   4      29.469  11.096  48.0810  0.00  0.00     0.000 C
ATOM     59  C2  IDS C   4      28.179  10.896  47.3520  0.00  0.00     0.000 C
ATOM     60  C3  IDS C   4      28.120  11.668  46.0310  0.00  0.00     0.000 C
ATOM     61  C4  IDS C   4      29.422  11.780  45.2500  0.00  0.00     0.000 C
ATOM     62  C5  IDS C   4      30.624  11.818  46.2000  0.00  0.00     0.000 C
ATOM     63  O5  IDS C   4      30.540  10.811  47.1970  0.00  0.00     0.000 O
ATOM     64   O  IDS C   4      27.696  12.973  46.3810  0.00  0.00     0.000 O
ATOM     66  HD  IDS C   4      28.331  13.545  46.2410  0.00  0.00     0.000 HD
BRANCH 59 66
ATOM     66   O  IDS C   4      27.959   9.477  47.0170  0.00  0.00     0.000 O
ATOM     67   S  IDS C   4      26.705   8.772  47.6970  0.00  0.00     0.000 S
ATOM     68   O  IDS C   4      25.582   9.481  47.1310  0.00  0.00     0.000 OA
ATOM     69   O  IDS C   4      26.804   7.378  47.3100  0.00  0.00     0.000 OA
ATOM     70   O  IDS C   4      26.812   8.993  49.1310  0.00  0.00     0.000 OA
ENDBRANCH 59 66
BRANCH 62 71
ATOM     71   C  IDS C   4      31.947  11.585  45.4940  0.00  0.00     0.000 C
ATOM     72   O  IDS C   4      32.516  10.517  45.6020  0.00  0.00     0.000 OA
ATOM     73   O  IDS C   4      32.477  12.543  44.8960  0.00  0.00     0.000 OA
ENDBRANCH 62 71
BRANCH 58 74
ATOM     74  O4  SGN C   5      29.525  12.216  48.8560  0.00  0.00     0.000 O
BRANCH 74 78
ATOM     75  C1  SGN C   5      31.089  13.997  52.2950  0.00  0.00     0.000 C
ATOM     76  C2  SGN C   5      32.112  13.601  51.2140  0.00  0.00     0.000 C
ATOM     77  C3  SGN C   5      31.407  13.285  49.8890  0.00  0.00     0.000 C
ATOM     78  C4  SGN C   5      30.227  12.344  50.0920  0.00  0.00     0.000 C
ATOM     79  C5  SGN C   5      29.313  12.902  51.1720  0.00  0.00     0.000 C
ATOM     80  O5  SGN C   5      30.052  13.031  52.4150  0.00  0.00     0.000 O
ATOM     81   O  SGN C   5      32.351  12.716  48.9880  0.00  0.00     0.000 O
ATOM     83  HD  SGN C   5      33.173  12.986  48.9610  0.00  0.00     0.000 HD
BRANCH 76 85
ATOM     83   N  SGN C   5      32.865  14.729  51.7770  0.00  0.00     0.000 N
ATOM     85  HD  SGN C   5      33.492  15.325  51.7430  0.00  0.00     0.000 HD
ATOM     85   S  SGN C   5      34.451  15.010  51.7600  0.00  0.00     0.000 S
ATOM     86   O  SGN C   5      34.741  16.254  52.3860  0.00  0.00     0.000 OA
ATOM     87   O  SGN C   5      35.086  13.857  52.2900  0.00  0.00     0.000 OA
ATOM     88   O  SGN C   5      34.583  15.128  50.2440  0.00  0.00     0.000 OA
ENDBRANCH 76 85
BRANCH 79 89
ATOM     89   C  SGN C   5      28.091  12.045  51.4320  0.00  0.00     0.000 C
ATOM     90   O  SGN C   5      28.035  11.683  52.8330  0.00  0.00     0.000 O
ATOM     91   S  SGN C   5      26.574  11.489  53.4700  0.00  0.00     0.000 S
ATOM     92   O  SGN C   5      25.834  12.685  53.1610  0.00  0.00     0.000 OA
ATOM     93   O  SGN C   5      26.001  10.315  52.8640  0.00  0.00     0.000 OA
ATOM     94   O  SGN C   5      26.844  11.329  54.8730  0.00  0.00     0.000 OA
ENDBRANCH 79 89
BRANCH 75 95
ATOM     95  O4  BDP C   6      30.561  15.189  51.8890  0.00  0.00     0.000 O
BRANCH 95 99
ATOM     96  C1  BDP C   6      28.826  18.274  54.3210  0.00  0.00     0.000 C
ATOM     97  C2  BDP C   6      29.738  17.272  54.9700  0.00  0.00     0.000 C
ATOM     98  C3  BDP C   6      30.596  16.464  53.9830  0.00  0.00     0.000 C
ATOM     99  C4  BDP C   6      29.752  15.904  52.8470  0.00  0.00     0.000 C
ATOM    100  C5  BDP C   6      28.904  17.060  52.2680  0.00  0.00     0.000 C
ATOM    101  O5  BDP C   6      28.110  17.489  53.3860  0.00  0.00     0.000 O
BRANCH 100 102
ATOM    102   C  BDP C   6      27.965  16.604  51.1800  0.00  0.00     0.000 C
ATOM    103   O  BDP C   6      27.941  17.135  50.0600  0.00  0.00     0.000 OA
ATOM    104   O  BDP C   6      27.217  15.656  51.4480  0.00  0.00     0.000 OA
ENDBRANCH 100 102
ENDBRANCH 95 99
ENDBRANCH 75 95
ENDBRANCH 74 78
ENDBRANCH 58 74
ENDBRANCH 57 61
ENDBRANCH 37 57
ENDBRANCH 36 40
ENDBRANCH 23 36
ENDBRANCH 22 26
ENDBRANCH 1 22
TORSDOF 20
ENDMDL
MODEL 64
REMARK VINA RESULT:      -4.9      5.998      9.752
ROOT
ATOM      1  C1  NGY C   1      16.590  16.944  51.4110  0.00  0.00     0.000 C
ATOM      2  C2  NGY C   1      17.622  15.847  51.6330  0.00  0.00     0.000 C
ATOM      3  C3  NGY C   1      17.636  15.424  53.0980  0.00  0.00     0.000 C
ATOM      4  C4  NGY C   1      17.855  16.660  53.9490  0.00  0.00     0.000 C
ATOM      5  C5  NGY C   1      16.713  17.639  53.6930  0.00  0.00     0.000 C
ATOM      6  O5  NGY C   1      16.754  18.031  52.2970  0.00  0.00     0.000 O
ATOM      7   O  NGY C   1      18.655  14.453  53.2930  0.00  0.00     0.000 O
ATOM      9  HD  NGY C   1      19.452  14.298  52.9940  0.00  0.00     0.000 HD
ATOM      9   O  NGY C   1      17.912  16.325  55.3280  0.00  0.00     0.000 O
ATOM     11  HD  NGY C   1      18.710  16.169  55.0280  0.00  0.00     0.000 HD
ENDROOT
BRANCH 2 13
ATOM     11   N  NGY C   1      17.704  14.473  51.1960  0.00  0.00     0.000 N
ATOM     13  HD  NGY C   1      18.108  14.597  50.4400  0.00  0.00     0.000 HD
ATOM     13   C  NGY C   1      18.267  14.142  50.0350  0.00  0.00     0.000 C
ATOM     14   O  NGY C   1      18.610  15.005  49.2240  0.00  0.00     0.000 OA
ATOM     15   C  NGY C   1      18.483  12.681  49.7840  0.00  0.00     0.000 C
ENDBRANCH 2 13
BRANCH 5 16
ATOM     16   C  NGY C   1      16.782  18.913  54.4730  0.00  0.00     0.000 C
ATOM     17   O  NGY C   1      19.268  21.546  53.8810  0.00  0.00     0.000 OA
ATOM     18   O  NGY C   1      17.989  19.599  54.1260  0.00  0.00     0.000 O
ATOM     19   S  NGY C   1      18.028  21.128  54.4850  0.00  0.00     0.000 S
ATOM     20   O  NGY C   1      18.057  21.228  55.9200  0.00  0.00     0.000 OA
ATOM     21   O  NGY C   1      16.820  21.675  53.8890  0.00  0.00     0.000 OA
ENDBRANCH 5 16
BRANCH 1 22
ATOM     22  O4  BDP C   2      15.356  16.400  51.4790  0.00  0.00     0.000 O
BRANCH 22 26
ATOM     23  C1  BDP C   2      11.528  16.334  49.9620  0.00  0.00     0.000 C
ATOM     24  C2  BDP C   2      12.586  16.878  49.0320  0.00  0.00     0.000 C
ATOM     25  C3  BDP C   2      13.952  16.512  49.5510  0.00  0.00     0.000 C
ATOM     26  C4  BDP C   2      14.102  16.954  51.0020  0.00  0.00     0.000 C
ATOM     27  C5  BDP C   2      12.892  16.499  51.8090  0.00  0.00     0.000 C
ATOM     28  O5  BDP C   2      11.639  16.983  51.2600  0.00  0.00     0.000 O
ATOM     29   O  BDP C   2      12.542  16.268  47.7410  0.00  0.00     0.000 O
ATOM     31  HD  BDP C   2      13.302  16.139  47.3480  0.00  0.00     0.000 HD
ATOM     31   O  BDP C   2      14.900  17.188  48.7340  0.00  0.00     0.000 O
ATOM     33  HD  BDP C   2      15.660  17.059  48.3400  0.00  0.00     0.000 HD
BRANCH 27 33
ATOM     33   C  BDP C   2      12.931  16.991  53.2360  0.00  0.00     0.000 C
ATOM     34   O  BDP C   2      13.334  16.267  54.1780  0.00  0.00     0.000 OA
ATOM     35   O  BDP C   2      12.524  18.116  53.4740  0.00  0.00     0.000 OA
ENDBRANCH 27 33
BRANCH 23 36
ATOM     36  O4  SGN C   3      10.251  16.484  49.5380  0.00  0.00     0.000 O
BRANCH 36 40
ATOM     37  C1  SGN C   3       6.481  14.716  49.2410  0.00  0.00     0.000 C
ATOM     38  C2  SGN C   3       7.018  15.022  50.6490  0.00  0.00     0.000 C
ATOM     39  C3  SGN C   3       8.155  16.030  50.5780  0.00  0.00     0.000 C
ATOM     40  C4  SGN C   3       9.227  15.492  49.6550  0.00  0.00     0.000 C
ATOM     41  C5  SGN C   3       8.608  15.199  48.3060  0.00  0.00     0.000 C
ATOM     42  O5  SGN C   3       7.558  14.231  48.4550  0.00  0.00     0.000 O
ATOM     43   O  SGN C   3       8.670  16.249  51.8850  0.00  0.00     0.000 O
ATOM     45  HD  SGN C   3       9.289  16.391  51.2960  0.00  0.00     0.000 HD
BRANCH 38 47
ATOM     45   N  SGN C   3       6.412  13.991  51.5110  0.00  0.00     0.000 N
ATOM     47  HD  SGN C   3       7.113  14.294  51.1020  0.00  0.00     0.000 HD
ATOM     47   S  SGN C   3       5.000  14.444  52.0830  0.00  0.00     0.000 S
ATOM     48   O  SGN C   3       5.130  15.541  52.9750  0.00  0.00     0.000 OA
ATOM     49   O  SGN C   3       4.145  14.633  50.9570  0.00  0.00     0.000 OA
ATOM     50   O  SGN C   3       4.608  13.275  52.8670  0.00  0.00     0.000 OA
ENDBRANCH 38 47
BRANCH 41 51
ATOM     51   C  SGN C   3       9.576  14.660  47.2890  0.00  0.00     0.000 C
ATOM     52   O  SGN C   3      10.409  16.128  43.9680  0.00  0.00     0.000 OA
ATOM     53   O  SGN C   3      11.804  14.921  45.4940  0.00  0.00     0.000 OA
ATOM     54   O  SGN C   3       9.935  13.843  44.4420  0.00  0.00     0.000 OA
ATOM     55   O  SGN C   3       9.629  15.548  46.1940  0.00  0.00     0.000 O
ATOM     56   S  SGN C   3      10.528  15.063  44.9040  0.00  0.00     0.000 S
ENDBRANCH 41 51
BRANCH 37 57
ATOM     57  O4  IDS C   4       5.934  15.779  48.6010  0.00  0.00     0.000 O
BRANCH 57 61
ATOM     58  C1  IDS C   4       3.050  16.313  46.1790  0.00  0.00     0.000 C
ATOM     59  C2  IDS C   4       3.178  14.988  46.8610  0.00  0.00     0.000 C
ATOM     60  C3  IDS C   4       4.630  14.514  46.9650  0.00  0.00     0.000 C
ATOM     61  C4  IDS C   4       5.683  15.590  47.1960  0.00  0.00     0.000 C
ATOM     62  C5  IDS C   4       5.268  16.908  46.5310  0.00  0.00     0.000 C
ATOM     63  O5  IDS C   4       3.916  17.238  46.8150  0.00  0.00     0.000 O
ATOM     64   O  IDS C   4       4.904  13.880  45.7300  0.00  0.00     0.000 O
ATOM     66  HD  IDS C   4       5.490  14.333  45.2800  0.00  0.00     0.000 HD
BRANCH 59 66
ATOM     66   O  IDS C   4       2.655  15.035  48.2400  0.00  0.00     0.000 O
ATOM     67   S  IDS C   4       1.400  14.108  48.5550  0.00  0.00     0.000 S
ATOM     68   O  IDS C   4       1.926  12.775  48.3860  0.00  0.00     0.000 OA
ATOM     69   O  IDS C   4       1.017  14.446  49.9120  0.00  0.00     0.000 OA
ATOM     70   O  IDS C   4       0.380  14.412  47.5630  0.00  0.00     0.000 OA
ENDBRANCH 59 66
BRANCH 62 71
ATOM     71   C  IDS C   4       6.086  18.095  47.0020  0.00  0.00     0.000 C
ATOM     72   O  IDS C   4       6.560  18.103  48.1220  0.00  0.00     0.000 OA
ATOM     73   O  IDS C   4       6.168  19.093  46.2580  0.00  0.00     0.000 OA
ENDBRANCH 62 71
BRANCH 58 74
ATOM     74  O4  SGN C   5       3.018  16.258  44.8170  0.00  0.00     0.000 O
BRANCH 74 78
ATOM     75  C1  SGN C   5       1.589  18.058  41.3300  0.00  0.00     0.000 C
ATOM     76  C2  SGN C   5       2.259  18.998  42.3500  0.00  0.00     0.000 C
ATOM     77  C3  SGN C   5       3.034  18.193  43.4020  0.00  0.00     0.000 C
ATOM     78  C4  SGN C   5       2.194  17.056  43.9680  0.00  0.00     0.000 C
ATOM     79  C5  SGN C   5       1.635  16.221  42.8250  0.00  0.00     0.000 C
ATOM     80  O5  SGN C   5       0.810  17.057  41.9710  0.00  0.00     0.000 O
ATOM     81   O  SGN C   5       3.449  19.072  44.4420  0.00  0.00     0.000 O
ATOM     83  HD  SGN C   5       3.704  19.883  44.2760  0.00  0.00     0.000 HD
BRANCH 76 85
ATOM     83   N  SGN C   5       2.032  20.028  41.3290  0.00  0.00     0.000 N
ATOM     85  HD  SGN C   5       2.308  20.573  40.7140  0.00  0.00     0.000 HD
ATOM     85   S  SGN C   5       2.903  21.340  40.9890  0.00  0.00     0.000 S
ATOM     86   O  SGN C   5       2.339  22.039  39.8860  0.00  0.00     0.000 OA
ATOM     87   O  SGN C   5       3.060  22.064  42.1990  0.00  0.00     0.000 OA
ATOM     88   O  SGN C   5       4.166  20.596  40.5650  0.00  0.00     0.000 OA
ENDBRANCH 76 85
BRANCH 79 89
ATOM     89   C  SGN C   5       0.801  15.044  43.2890  0.00  0.00     0.000 C
ATOM     90   O  SGN C   5       1.269  13.830  42.6520  0.00  0.00     0.000 O
ATOM     91   S  SGN C   5       1.116  12.470  43.4920  0.00  0.00     0.000 S
ATOM     92   O  SGN C   5       1.728  12.713  44.7720  0.00  0.00     0.000 OA
ATOM     93   O  SGN C   5      -0.293  12.195  43.5980  0.00  0.00     0.000 OA
ATOM     94   O  SGN C   5       1.824  11.507  42.6920  0.00  0.00     0.000 OA
ENDBRANCH 79 89
BRANCH 75 95
ATOM     95  O4  BDP C   6       2.611  17.471  40.6380  0.00  0.00     0.000 O
BRANCH 95 99
ATOM     96  C1  BDP C   6       2.389  15.547  36.8040  0.00  0.00     0.000 C
ATOM     97  C2  BDP C   6       1.268  16.456  37.2210  0.00  0.00     0.000 C
ATOM     98  C3  BDP C   6       1.605  17.378  38.4020  0.00  0.00     0.000 C
ATOM     99  C4  BDP C   6       2.243  16.602  39.5450  0.00  0.00     0.000 C
ATOM    100  C5  BDP C   6       3.393  15.749  38.9600  0.00  0.00     0.000 C
ATOM    101  O5  BDP C   6       2.731  14.895  38.0130  0.00  0.00     0.000 O
BRANCH 100 102
ATOM    102   C  BDP C   6       4.052  14.873  39.9950  0.00  0.00     0.000 C
ATOM    103   O  BDP C   6       4.895  15.308  40.7920  0.00  0.00     0.000 OA
ATOM    104   O  BDP C   6       3.703  13.686  40.0260  0.00  0.00     0.000 OA
ENDBRANCH 100 102
ENDBRANCH 95 99
ENDBRANCH 75 95
ENDBRANCH 74 78
ENDBRANCH 58 74
ENDBRANCH 57 61
ENDBRANCH 37 57
ENDBRANCH 36 40
ENDBRANCH 23 36
ENDBRANCH 22 26
ENDBRANCH 1 22
TORSDOF 20
ENDMDL
MODEL 65
REMARK VINA RESULT:      -4.8     13.392     17.120
ROOT
ATOM      1  C1  NGY C   1      -1.220  15.653  36.0090  0.00  0.00     0.000 C
ATOM      2  C2  NGY C   1      -1.555  16.901  35.2040  0.00  0.00     0.000 C
ATOM      3  C3  NGY C   1      -3.028  16.896  34.8090  0.00  0.00     0.000 C
ATOM      4  C4  NGY C   1      -3.322  15.595  34.0860  0.00  0.00     0.000 C
ATOM      5  C5  NGY C   1      -3.024  14.432  35.0270  0.00  0.00     0.000 C
ATOM      6  O5  NGY C   1      -1.610  14.464  35.3550  0.00  0.00     0.000 O
ATOM      7   O  NGY C   1      -3.299  18.031  33.9990  0.00  0.00     0.000 O
ATOM      9  HD  NGY C   1      -2.891  18.488  33.3870  0.00  0.00     0.000 HD
ATOM      9   O  NGY C   1      -4.677  15.545  33.6610  0.00  0.00     0.000 O
ATOM     11  HD  NGY C   1      -4.269  16.003  33.0490  0.00  0.00     0.000 HD
ENDROOT
BRANCH 2 13
ATOM     11   N  NGY C   1      -0.961  17.946  36.0030  0.00  0.00     0.000 N
ATOM     13  HD  NGY C   1      -0.806  18.523  35.3760  0.00  0.00     0.000 HD
ATOM     13   C  NGY C   1      -0.539  19.087  35.4590  0.00  0.00     0.000 C
ATOM     14   O  NGY C   1      -0.508  19.236  34.2370  0.00  0.00     0.000 OA
ATOM     15   C  NGY C   1      -0.136  20.175  36.4070  0.00  0.00     0.000 C
ENDBRANCH 2 13
BRANCH 5 16
ATOM     16   C  NGY C   1      -3.275  13.073  34.4580  0.00  0.00     0.000 C
ATOM     17   O  NGY C   1      -1.840   9.983  35.8180  0.00  0.00     0.000 OA
ATOM     18   O  NGY C   1      -2.397  12.139  35.0920  0.00  0.00     0.000 O
ATOM     19   S  NGY C   1      -2.806  10.627  34.9640  0.00  0.00     0.000 S
ATOM     20   O  NGY C   1      -2.648  10.259  33.5820  0.00  0.00     0.000 OA
ATOM     21   O  NGY C   1      -4.185  10.581  35.4230  0.00  0.00     0.000 OA
ENDBRANCH 5 16
BRANCH 1 22
ATOM     22  O4  BDP C   2      -1.762  15.772  37.2390  0.00  0.00     0.000 O
BRANCH 22 26
ATOM     23  C1  BDP C   2      -1.689  14.861  41.2560  0.00  0.00     0.000 C
ATOM     24  C2  BDP C   2      -0.339  15.089  40.6160  0.00  0.00     0.000 C
ATOM     25  C3  BDP C   2      -0.520  15.759  39.2790  0.00  0.00     0.000 C
ATOM     26  C4  BDP C   2      -1.500  14.967  38.4190  0.00  0.00     0.000 C
ATOM     27  C5  BDP C   2      -2.751  14.645  39.2250  0.00  0.00     0.000 C
ATOM     28  O5  BDP C   2      -2.459  13.925  40.4500  0.00  0.00     0.000 O
ATOM     29   O  BDP C   2       0.462  16.014  41.3510  0.00  0.00     0.000 O
ATOM     31  HD  BDP C   2       0.969  16.541  40.8870  0.00  0.00     0.000 HD
ATOM     31   O  BDP C   2       0.758  15.794  38.6580  0.00  0.00     0.000 O
ATOM     33  HD  BDP C   2       1.265  16.321  38.1940  0.00  0.00     0.000 HD
BRANCH 27 33
ATOM     33   C  BDP C   2      -3.722  13.776  38.4610  0.00  0.00     0.000 C
ATOM     34   O  BDP C   2      -3.507  12.557  38.2580  0.00  0.00     0.000 OA
ATOM     35   O  BDP C   2      -4.727  14.294  38.0020  0.00  0.00     0.000 OA
ENDBRANCH 27 33
BRANCH 23 36
ATOM     36  O4  SGN C   3      -1.657  14.382  42.5210  0.00  0.00     0.000 O
BRANCH 36 40
ATOM     37  C1  SGN C   3      -3.813  13.833  46.0530  0.00  0.00     0.000 C
ATOM     38  C2  SGN C   3      -4.098  12.874  44.8860  0.00  0.00     0.000 C
ATOM     39  C3  SGN C   3      -2.964  12.917  43.8720  0.00  0.00     0.000 C
ATOM     40  C4  SGN C   3      -2.775  14.347  43.4120  0.00  0.00     0.000 C
ATOM     41  C5  SGN C   3      -2.524  15.219  44.6220  0.00  0.00     0.000 C
ATOM     42  O5  SGN C   3      -3.641  15.136  45.5200  0.00  0.00     0.000 O
ATOM     43   O  SGN C   3      -3.282  12.067  42.7770  0.00  0.00     0.000 O
ATOM     45  HD  SGN C   3      -2.757  12.704  42.5140  0.00  0.00     0.000 HD
BRANCH 38 47
ATOM     45   N  SGN C   3      -5.349  12.113  44.7150  0.00  0.00     0.000 N
ATOM     47  HD  SGN C   3      -4.717  12.585  44.3570  0.00  0.00     0.000 HD
ATOM     47   S  SGN C   3      -5.680  11.215  45.9840  0.00  0.00     0.000 S
ATOM     48   O  SGN C   3      -4.722  10.180  46.1500  0.00  0.00     0.000 OA
ATOM     49   O  SGN C   3      -5.856  12.109  47.0820  0.00  0.00     0.000 OA
ATOM     50   O  SGN C   3      -6.943  10.595  45.5870  0.00  0.00     0.000 OA
ENDBRANCH 38 47
BRANCH 41 51
ATOM     51   C  SGN C   3      -2.313  16.673  44.2990  0.00  0.00     0.000 C
ATOM     52   O  SGN C   3      -2.261  19.530  46.6900  0.00  0.00     0.000 OA
ATOM     53   O  SGN C   3      -1.015  19.210  44.6710  0.00  0.00     0.000 OA
ATOM     54   O  SGN C   3      -3.405  19.433  44.6040  0.00  0.00     0.000 OA
ATOM     55   O  SGN C   3      -2.317  17.412  45.5010  0.00  0.00     0.000 O
ATOM     56   S  SGN C   3      -2.243  19.049  45.3510  0.00  0.00     0.000 S
ENDBRANCH 41 51
BRANCH 37 57
ATOM     57  O4  IDS C   4      -2.713  13.524  46.7830  0.00  0.00     0.000 O
BRANCH 57 61
ATOM     58  C1  IDS C   4      -1.685  12.744  50.3610  0.00  0.00     0.000 C
ATOM     59  C2  IDS C   4      -3.129  12.630  49.9880  0.00  0.00     0.000 C
ATOM     60  C3  IDS C   4      -3.589  13.753  49.0540  0.00  0.00     0.000 C
ATOM     61  C4  IDS C   4      -2.577  14.240  48.0250  0.00  0.00     0.000 C
ATOM     62  C5  IDS C   4      -1.149  14.124  48.5710  0.00  0.00     0.000 C
ATOM     63  O5  IDS C   4      -0.917  12.860  49.1750  0.00  0.00     0.000 O
ATOM     64   O  IDS C   4      -3.916  14.835  49.9050  0.00  0.00     0.000 O
ATOM     66  HD  IDS C   4      -3.361  15.490  49.7880  0.00  0.00     0.000 HD
BRANCH 59 66
ATOM     66   O  IDS C   4      -3.411  11.362  49.2880  0.00  0.00     0.000 O
ATOM     67   S  IDS C   4      -4.303  10.302  50.0710  0.00  0.00     0.000 S
ATOM     68   O  IDS C   4      -5.577  10.969  50.1900  0.00  0.00     0.000 OA
ATOM     69   O  IDS C   4      -4.307   9.123  49.2270  0.00  0.00     0.000 OA
ATOM     70   O  IDS C   4      -3.683  10.093  51.3700  0.00  0.00     0.000 OA
ENDBRANCH 59 66
BRANCH 62 71
ATOM     71   C  IDS C   4      -0.089  14.264  47.4950  0.00  0.00     0.000 C
ATOM     72   O  IDS C   4       0.639  13.327  47.2300  0.00  0.00     0.000 OA
ATOM     73   O  IDS C   4       0.083  15.383  46.9720  0.00  0.00     0.000 OA
ENDBRANCH 62 71
BRANCH 58 74
ATOM     74  O4  SGN C   5      -1.425  13.578  51.4080  0.00  0.00     0.000 O
BRANCH 74 78
ATOM     75  C1  SGN C   5       1.312  14.331  54.4710  0.00  0.00     0.000 C
ATOM     76  C2  SGN C   5       1.259  15.376  53.3400  0.00  0.00     0.000 C
ATOM     77  C3  SGN C   5       0.006  15.177  52.4760  0.00  0.00     0.000 C
ATOM     78  C4  SGN C   5      -0.169  13.720  52.0710  0.00  0.00     0.000 C
ATOM     79  C5  SGN C   5      -0.115  12.838  53.3100  0.00  0.00     0.000 C
ATOM     80  O5  SGN C   5       1.167  13.009  53.9710  0.00  0.00     0.000 O
ATOM     81   O  SGN C   5       0.103  16.009  51.3250  0.00  0.00     0.000 O
ATOM     83  HD  SGN C   5       0.453  16.800  51.3630  0.00  0.00     0.000 HD
BRANCH 76 85
ATOM     83   N  SGN C   5       1.655  16.788  53.2560  0.00  0.00     0.000 N
ATOM     85  HD  SGN C   5       2.220  17.434  53.3720  0.00  0.00     0.000 HD
ATOM     85   S  SGN C   5       2.468  17.686  54.3170  0.00  0.00     0.000 S
ATOM     86   O  SGN C   5       2.672  18.997  53.8050  0.00  0.00     0.000 OA
ATOM     87   O  SGN C   5       1.796  17.577  55.5620  0.00  0.00     0.000 OA
ATOM     88   O  SGN C   5       3.763  16.879  54.2590  0.00  0.00     0.000 OA
ENDBRANCH 76 85
BRANCH 79 89
ATOM     89   C  SGN C   5      -0.305  11.365  53.0110  0.00  0.00     0.000 C
ATOM     90   O  SGN C   5       0.986  10.731  52.8330  0.00  0.00     0.000 O
ATOM     91   S  SGN C   5       1.099   9.191  53.2710  0.00  0.00     0.000 S
ATOM     92   O  SGN C   5       0.611   9.117  54.6230  0.00  0.00     0.000 OA
ATOM     93   O  SGN C   5       0.294   8.429  52.3520  0.00  0.00     0.000 OA
ATOM     94   O  SGN C   5       2.506   8.918  53.1540  0.00  0.00     0.000 OA
ENDBRANCH 79 89
BRANCH 75 95
ATOM     95  O4  BDP C   6       0.266  14.626  55.2990  0.00  0.00     0.000 O
BRANCH 95 99
ATOM     96  C1  BDP C   6      -0.252  14.079  59.5280  0.00  0.00     0.000 C
ATOM     97  C2  BDP C   6       1.080  14.556  59.0200  0.00  0.00     0.000 C
ATOM     98  C3  BDP C   6       1.056  15.081  57.5770  0.00  0.00     0.000 C
ATOM     99  C4  BDP C   6       0.339  14.113  56.6470  0.00  0.00     0.000 C
ATOM    100  C5  BDP C   6      -1.020  13.750  57.2920  0.00  0.00     0.000 C
ATOM    101  O5  BDP C   6      -0.648  13.145  58.5410  0.00  0.00     0.000 O
BRANCH 100 102
ATOM    102   C  BDP C   6      -1.789  12.730  56.4920  0.00  0.00     0.000 C
ATOM    103   O  BDP C   6      -1.463  11.534  56.4570  0.00  0.00     0.000 OA
ATOM    104   O  BDP C   6      -2.779  13.136  55.8730  0.00  0.00     0.000 OA
ENDBRANCH 100 102
ENDBRANCH 95 99
ENDBRANCH 75 95
ENDBRANCH 74 78
ENDBRANCH 58 74
ENDBRANCH 57 61
ENDBRANCH 37 57
ENDBRANCH 36 40
ENDBRANCH 23 36
ENDBRANCH 22 26
ENDBRANCH 1 22
TORSDOF 20
ENDMDL
MODEL 66
REMARK VINA RESULT:      -4.7     12.869     17.527
ROOT
ATOM      1  C1  NGY C   1      -1.537  16.714  35.3030  0.00  0.00     0.000 C
ATOM      2  C2  NGY C   1      -2.000  18.082  34.8200  0.00  0.00     0.000 C
ATOM      3  C3  NGY C   1      -3.453  18.017  34.3610  0.00  0.00     0.000 C
ATOM      4  C4  NGY C   1      -3.575  16.921  33.3200  0.00  0.00     0.000 C
ATOM      5  C5  NGY C   1      -3.161  15.596  33.9540  0.00  0.00     0.000 C
ATOM      6  O5  NGY C   1      -1.769  15.697  34.3520  0.00  0.00     0.000 O
ATOM      7   O  NGY C   1      -3.838  19.285  33.8490  0.00  0.00     0.000 O
ATOM      9  HD  NGY C   1      -3.474  19.925  33.3940  0.00  0.00     0.000 HD
ATOM      9   O  NGY C   1      -4.904  16.833  32.8280  0.00  0.00     0.000 O
ATOM     11  HD  NGY C   1      -4.540  17.473  32.3720  0.00  0.00     0.000 HD
ENDROOT
BRANCH 2 13
ATOM     11   N  NGY C   1      -1.414  18.917  35.8430  0.00  0.00     0.000 N
ATOM     13  HD  NGY C   1      -1.456  19.679  35.4340  0.00  0.00     0.000 HD
ATOM     13   C  NGY C   1      -1.256  20.228  35.6680  0.00  0.00     0.000 C
ATOM     14   O  NGY C   1      -1.471  20.755  34.5760  0.00  0.00     0.000 OA
ATOM     15   C  NGY C   1      -0.834  21.020  36.8680  0.00  0.00     0.000 C
ENDBRANCH 2 13
BRANCH 5 16
ATOM     16   C  NGY C   1      -3.237  14.407  33.0500  0.00  0.00     0.000 C
ATOM     17   O  NGY C   1      -1.422  14.130  29.8740  0.00  0.00     0.000 OA
ATOM     18   O  NGY C   1      -2.587  14.726  31.8160  0.00  0.00     0.000 O
ATOM     19   S  NGY C   1      -2.172  13.498  30.9290  0.00  0.00     0.000 S
ATOM     20   O  NGY C   1      -3.385  12.889  30.4510  0.00  0.00     0.000 OA
ATOM     21   O  NGY C   1      -1.407  12.643  31.8230  0.00  0.00     0.000 OA
ENDBRANCH 5 16
BRANCH 1 22
ATOM     22  O4  BDP C   2      -2.117  16.455  36.4940  0.00  0.00     0.000 O
BRANCH 22 26
ATOM     23  C1  BDP C   2      -2.000  14.812  40.2680  0.00  0.00     0.000 C
ATOM     24  C2  BDP C   2      -0.819  15.678  39.9000  0.00  0.00     0.000 C
ATOM     25  C3  BDP C   2      -1.151  16.493  38.6770  0.00  0.00     0.000 C
ATOM     26  C4  BDP C   2      -1.642  15.585  37.5550  0.00  0.00     0.000 C
ATOM     27  C5  BDP C   2      -2.709  14.637  38.0860  0.00  0.00     0.000 C
ATOM     28  O5  BDP C   2      -2.245  13.844  39.2090  0.00  0.00     0.000 O
ATOM     29   O  BDP C   2      -0.534  16.663  40.8940  0.00  0.00     0.000 O
ATOM     31  HD  BDP C   2      -0.255  17.431  40.6090  0.00  0.00     0.000 HD
ATOM     31   O  BDP C   2       0.045  17.155  38.2840  0.00  0.00     0.000 O
ATOM     33  HD  BDP C   2       0.324  17.923  37.9990  0.00  0.00     0.000 HD
BRANCH 27 33
ATOM     33   C  BDP C   2      -3.168  13.643  37.0450  0.00  0.00     0.000 C
ATOM     34   O  BDP C   2      -4.383  13.419  36.8290  0.00  0.00     0.000 OA
ATOM     35   O  BDP C   2      -2.322  13.020  36.4250  0.00  0.00     0.000 OA
ENDBRANCH 27 33
BRANCH 23 36
ATOM     36  O4  SGN C   3      -1.875  14.126  41.4280  0.00  0.00     0.000 O
BRANCH 36 40
ATOM     37  C1  SGN C   3      -3.792  13.014  44.9670  0.00  0.00     0.000 C
ATOM     38  C2  SGN C   3      -3.999  12.122  43.7320  0.00  0.00     0.000 C
ATOM     39  C3  SGN C   3      -2.924  12.397  42.6910  0.00  0.00     0.000 C
ATOM     40  C4  SGN C   3      -2.941  13.871  42.3480  0.00  0.00     0.000 C
ATOM     41  C5  SGN C   3      -2.754  14.669  43.6190  0.00  0.00     0.000 C
ATOM     42  O5  SGN C   3      -3.813  14.367  44.5410  0.00  0.00     0.000 O
ATOM     43   O  SGN C   3      -3.174  11.602  41.5380  0.00  0.00     0.000 O
ATOM     45  HD  SGN C   3      -2.747  12.322  41.3130  0.00  0.00     0.000 HD
BRANCH 38 47
ATOM     45   N  SGN C   3      -5.128  11.760  44.6070  0.00  0.00     0.000 N
ATOM     47  HD  SGN C   3      -4.714  12.367  44.1480  0.00  0.00     0.000 HD
ATOM     47   S  SGN C   3      -5.304  10.186  44.7340  0.00  0.00     0.000 S
ATOM     48   O  SGN C   3      -5.689   9.606  43.4960  0.00  0.00     0.000 OA
ATOM     49   O  SGN C   3      -4.108   9.687  45.3310  0.00  0.00     0.000 OA
ATOM     50   O  SGN C   3      -6.443  10.087  45.6460  0.00  0.00     0.000 OA
ENDBRANCH 38 47
BRANCH 41 51
ATOM     51   C  SGN C   3      -2.748  16.160  43.4140  0.00  0.00     0.000 C
ATOM     52   O  SGN C   3      -5.221  18.184  41.4990  0.00  0.00     0.000 OA
ATOM     53   O  SGN C   3      -3.988  18.751  43.4710  0.00  0.00     0.000 OA
ATOM     54   O  SGN C   3      -2.848  18.354  41.3950  0.00  0.00     0.000 OA
ATOM     55   O  SGN C   3      -3.890  16.522  42.6710  0.00  0.00     0.000 O
ATOM     56   S  SGN C   3      -3.994  18.101  42.2160  0.00  0.00     0.000 S
ENDBRANCH 41 51
BRANCH 37 57
ATOM     57  O4  IDS C   4      -2.631  12.797  45.6330  0.00  0.00     0.000 O
BRANCH 57 61
ATOM     58  C1  IDS C   4      -1.800  12.233  49.3020  0.00  0.00     0.000 C
ATOM     59  C2  IDS C   4      -3.237  12.266  48.8880  0.00  0.00     0.000 C
ATOM     60  C3  IDS C   4      -3.527  13.344  47.8410  0.00  0.00     0.000 C
ATOM     61  C4  IDS C   4      -2.436  13.603  46.8110  0.00  0.00     0.000 C
ATOM     62  C5  IDS C   4      -1.049  13.363  47.4160  0.00  0.00     0.000 C
ATOM     63  O5  IDS C   4      -0.994  12.142  48.1390  0.00  0.00     0.000 O
ATOM     64   O  IDS C   4      -3.735  14.534  48.5790  0.00  0.00     0.000 O
ATOM     66  HD  IDS C   4      -3.099  15.101  48.4240  0.00  0.00     0.000 HD
BRANCH 59 66
ATOM     66   O  IDS C   4      -3.660  10.983  48.2950  0.00  0.00     0.000 O
ATOM     67   S  IDS C   4      -4.717  10.131  49.1250  0.00  0.00     0.000 S
ATOM     68   O  IDS C   4      -5.893  10.967  49.1160  0.00  0.00     0.000 OA
ATOM     69   O  IDS C   4      -4.848   8.885  48.3950  0.00  0.00     0.000 OA
ATOM     70   O  IDS C   4      -4.182   9.972  50.4690  0.00  0.00     0.000 OA
ENDBRANCH 59 66
BRANCH 62 71
ATOM     71   C  IDS C   4       0.048  13.269  46.3720  0.00  0.00     0.000 C
ATOM     72   O  IDS C   4       0.315  14.232  45.6790  0.00  0.00     0.000 OA
ATOM     73   O  IDS C   4       0.586  12.161  46.1740  0.00  0.00     0.000 OA
ENDBRANCH 62 71
BRANCH 58 74
ATOM     74  O4  SGN C   5      -1.462  13.123  50.2780  0.00  0.00     0.000 O
BRANCH 74 78
ATOM     75  C1  SGN C   5       0.990  13.720  53.6060  0.00  0.00     0.000 C
ATOM     76  C2  SGN C   5       1.408  14.455  52.3180  0.00  0.00     0.000 C
ATOM     77  C3  SGN C   5       0.269  14.438  51.2900  0.00  0.00     0.000 C
ATOM     78  C4  SGN C   5      -0.315  13.041  51.1230  0.00  0.00     0.000 C
ATOM     79  C5  SGN C   5      -0.693  12.483  52.4870  0.00  0.00     0.000 C
ATOM     80  O5  SGN C   5       0.489  12.419  53.3290  0.00  0.00     0.000 O
ATOM     81   O  SGN C   5       0.762  14.925  50.0460  0.00  0.00     0.000 O
ATOM     83  HD  SGN C   5       1.340  15.569  50.0080  0.00  0.00     0.000 HD
BRANCH 76 85
ATOM     83   N  SGN C   5       2.103  15.733  52.1220  0.00  0.00     0.000 N
ATOM     85  HD  SGN C   5       2.806  16.238  52.1640  0.00  0.00     0.000 HD
ATOM     85   S  SGN C   5       3.169  16.474  53.0750  0.00  0.00     0.000 S
ATOM     86   O  SGN C   5       3.626  17.677  52.4690  0.00  0.00     0.000 OA
ATOM     87   O  SGN C   5       2.578  16.582  54.3600  0.00  0.00     0.000 OA
ATOM     88   O  SGN C   5       4.243  15.391  52.9960  0.00  0.00     0.000 OA
ENDBRANCH 76 85
BRANCH 79 89
ATOM     89   C  SGN C   5      -1.308  11.099  52.4240  0.00  0.00     0.000 C
ATOM     90   O  SGN C   5      -0.378  10.178  51.8030  0.00  0.00     0.000 O
ATOM     91   S  SGN C   5      -0.438   8.652  52.2970  0.00  0.00     0.000 S
ATOM     92   O  SGN C   5      -0.333   8.685  53.7330  0.00  0.00     0.000 OA
ATOM     93   O  SGN C   5      -1.695   8.111  51.8500  0.00  0.00     0.000 OA
ATOM     94   O  SGN C   5       0.700   8.052  51.6540  0.00  0.00     0.000 OA
ENDBRANCH 79 89
BRANCH 75 95
ATOM     95  O4  BDP C   6       0.003  14.482  54.1650  0.00  0.00     0.000 O
BRANCH 95 99
ATOM     96  C1  BDP C   6      -0.464  14.955  58.4090  0.00  0.00     0.000 C
ATOM     97  C2  BDP C   6       0.648  14.083  57.8980  0.00  0.00     0.000 C
ATOM     98  C3  BDP C   6       0.973  14.277  56.4090  0.00  0.00     0.000 C
ATOM     99  C4  BDP C   6      -0.290  14.248  55.5600  0.00  0.00     0.000 C
ATOM    100  C5  BDP C   6      -1.315  15.217  56.1940  0.00  0.00     0.000 C
ATOM    101  O5  BDP C   6      -1.521  14.676  57.5090  0.00  0.00     0.000 O
BRANCH 100 102
ATOM    102   C  BDP C   6      -2.641  15.212  55.4760  0.00  0.00     0.000 C
ATOM    103   O  BDP C   6      -3.119  16.233  54.9620  0.00  0.00     0.000 OA
ATOM    104   O  BDP C   6      -3.235  14.130  55.4090  0.00  0.00     0.000 OA
ENDBRANCH 100 102
ENDBRANCH 95 99
ENDBRANCH 75 95
ENDBRANCH 74 78
ENDBRANCH 58 74
ENDBRANCH 57 61
ENDBRANCH 37 57
ENDBRANCH 36 40
ENDBRANCH 23 36
ENDBRANCH 22 26
ENDBRANCH 1 22
TORSDOF 20
ENDMDL
MODEL 67
REMARK VINA RESULT:      -4.4      5.701     15.272
ROOT
ATOM      1  C1  NGY C   1       0.377   9.803  38.7500  0.00  0.00     0.000 C
ATOM      2  C2  NGY C   1      -0.878  10.512  38.2630  0.00  0.00     0.000 C
ATOM      3  C3  NGY C   1      -2.005  10.350  39.2780  0.00  0.00     0.000 C
ATOM      4  C4  NGY C   1      -2.196   8.869  39.5440  0.00  0.00     0.000 C
ATOM      5  C5  NGY C   1      -0.894   8.300  40.1030  0.00  0.00     0.000 C
ATOM      6  O5  NGY C   1       0.139   8.455  39.0970  0.00  0.00     0.000 O
ATOM      7   O  NGY C   1      -3.184  10.957  38.7690  0.00  0.00     0.000 O
ATOM      9  HD  NGY C   1      -3.570  11.052  38.0000  0.00  0.00     0.000 HD
ATOM      9   O  NGY C   1      -3.258   8.649  40.4600  0.00  0.00     0.000 O
ATOM     11  HD  NGY C   1      -3.644   8.745  39.6910  0.00  0.00     0.000 HD
ENDROOT
BRANCH 2 13
ATOM     11   N  NGY C   1      -0.695  11.933  38.0800  0.00  0.00     0.000 N
ATOM     13  HD  NGY C   1      -0.943  11.995  37.2520  0.00  0.00     0.000 HD
ATOM     13   C  NGY C   1      -0.955  12.526  36.9160  0.00  0.00     0.000 C
ATOM     14   O  NGY C   1      -1.224  11.866  35.9100  0.00  0.00     0.000 OA
ATOM     15   C  NGY C   1      -0.930  14.024  36.9030  0.00  0.00     0.000 C
ENDBRANCH 2 13
BRANCH 5 16
ATOM     16   C  NGY C   1      -0.926   6.841  40.4270  0.00  0.00     0.000 C
ATOM     17   O  NGY C   1      -2.206   5.468  43.5800  0.00  0.00     0.000 OA
ATOM     18   O  NGY C   1      -1.279   6.683  41.8040  0.00  0.00     0.000 O
ATOM     19   S  NGY C   1      -1.796   5.257  42.2150  0.00  0.00     0.000 S
ATOM     20   O  NGY C   1      -0.679   4.354  42.1120  0.00  0.00     0.000 OA
ATOM     21   O  NGY C   1      -2.864   4.969  41.2720  0.00  0.00     0.000 OA
ENDBRANCH 5 16
BRANCH 1 22
ATOM     22  O4  BDP C   2       0.912  10.514  39.7650  0.00  0.00     0.000 O
BRANCH 22 26
ATOM     23  C1  BDP C   2       4.117  11.695  42.0670  0.00  0.00     0.000 C
ATOM     24  C2  BDP C   2       4.169  12.113  40.6160  0.00  0.00     0.000 C
ATOM     25  C3  BDP C   2       2.808  11.948  39.9930  0.00  0.00     0.000 C
ATOM     26  C4  BDP C   2       2.290  10.532  40.2230  0.00  0.00     0.000 C
ATOM     27  C5  BDP C   2       2.447  10.155  41.6900  0.00  0.00     0.000 C
ATOM     28  O5  BDP C   2       3.817  10.273  42.1550  0.00  0.00     0.000 O
ATOM     29   O  BDP C   2       4.444  13.505  40.4610  0.00  0.00     0.000 O
ATOM     31  HD  BDP C   2       4.049  13.907  39.8030  0.00  0.00     0.000 HD
ATOM     31   O  BDP C   2       2.958  12.193  38.6000  0.00  0.00     0.000 O
ATOM     33  HD  BDP C   2       2.563  12.595  37.9430  0.00  0.00     0.000 HD
BRANCH 27 33
ATOM     33   C  BDP C   2       2.042   8.727  41.9670  0.00  0.00     0.000 C
ATOM     34   O  BDP C   2       1.298   8.421  42.9280  0.00  0.00     0.000 OA
ATOM     35   O  BDP C   2       2.486   7.848  41.2460  0.00  0.00     0.000 OA
ENDBRANCH 27 33
BRANCH 23 36
ATOM     36  O4  SGN C   3       5.248  11.919  42.7750  0.00  0.00     0.000 O
BRANCH 36 40
ATOM     37  C1  SGN C   3       6.854  13.321  46.3650  0.00  0.00     0.000 C
ATOM     38  C2  SGN C   3       6.009  12.038  46.4140  0.00  0.00     0.000 C
ATOM     39  C3  SGN C   3       5.876  11.435  45.0230  0.00  0.00     0.000 C
ATOM     40  C4  SGN C   3       5.293  12.475  44.0920  0.00  0.00     0.000 C
ATOM     41  C5  SGN C   3       6.172  13.706  44.1240  0.00  0.00     0.000 C
ATOM     42  O5  SGN C   3       6.233  14.224  45.4620  0.00  0.00     0.000 O
ATOM     43   O  SGN C   3       5.042  10.285  45.0890  0.00  0.00     0.000 O
ATOM     45  HD  SGN C   3       4.995  10.639  44.3000  0.00  0.00     0.000 HD
BRANCH 38 47
ATOM     45   N  SGN C   3       5.932  12.485  47.8160  0.00  0.00     0.000 N
ATOM     47  HD  SGN C   3       5.737  12.626  46.9840  0.00  0.00     0.000 HD
ATOM     47   S  SGN C   3       6.326  11.330  48.8340  0.00  0.00     0.000 S
ATOM     48   O  SGN C   3       5.381  10.270  48.8060  0.00  0.00     0.000 OA
ATOM     49   O  SGN C   3       7.682  10.985  48.5560  0.00  0.00     0.000 OA
ATOM     50   O  SGN C   3       6.197  12.010  50.1210  0.00  0.00     0.000 OA
ENDBRANCH 38 47
BRANCH 41 51
ATOM     51   C  SGN C   3       5.701  14.822  43.2320  0.00  0.00     0.000 C
ATOM     52   O  SGN C   3       7.673  17.758  42.0600  0.00  0.00     0.000 OA
ATOM     53   O  SGN C   3       5.948  16.535  40.9380  0.00  0.00     0.000 OA
ATOM     54   O  SGN C   3       5.457  17.780  42.9310  0.00  0.00     0.000 OA
ATOM     55   O  SGN C   3       6.778  15.702  42.9950  0.00  0.00     0.000 O
ATOM     56   S  SGN C   3       6.430  17.072  42.1530  0.00  0.00     0.000 S
ENDBRANCH 41 51
BRANCH 37 57
ATOM     57  O4  IDS C   4       8.137  13.139  45.9660  0.00  0.00     0.000 O
BRANCH 57 61
ATOM     58  C1  IDS C   4      11.925  13.001  46.2900  0.00  0.00     0.000 C
ATOM     59  C2  IDS C   4      11.108  11.940  46.9570  0.00  0.00     0.000 C
ATOM     60  C3  IDS C   4       9.834  12.492  47.6020  0.00  0.00     0.000 C
ATOM     61  C4  IDS C   4       9.141  13.634  46.8720  0.00  0.00     0.000 C
ATOM     62  C5  IDS C   4      10.163  14.507  46.1340  0.00  0.00     0.000 C
ATOM     63  O5  IDS C   4      11.092  13.724  45.3990  0.00  0.00     0.000 O
ATOM     64   O  IDS C   4      10.234  12.956  48.8780  0.00  0.00     0.000 O
ATOM     66  HD  IDS C   4      10.167  13.818  48.9220  0.00  0.00     0.000 HD
BRANCH 59 66
ATOM     66   O  IDS C   4      10.676  10.905  45.9980  0.00  0.00     0.000 O
ATOM     67   S  IDS C   4      11.743   9.780  45.6380  0.00  0.00     0.000 S
ATOM     68   O  IDS C   4      11.930   9.092  46.8930  0.00  0.00     0.000 OA
ATOM     69   O  IDS C   4      11.117   8.992  44.5960  0.00  0.00     0.000 OA
ATOM     70   O  IDS C   4      12.957  10.459  45.2130  0.00  0.00     0.000 OA
ENDBRANCH 59 66
BRANCH 62 71
ATOM     71   C  IDS C   4       9.526  15.442  45.1240  0.00  0.00     0.000 C
ATOM     72   O  IDS C   4       9.816  15.357  43.9460  0.00  0.00     0.000 OA
ATOM     73   O  IDS C   4       8.787  16.356  45.5430  0.00  0.00     0.000 OA
ENDBRANCH 62 71
BRANCH 58 74
ATOM     74  O4  SGN C   5      12.766  13.684  47.1170  0.00  0.00     0.000 O
BRANCH 74 78
ATOM     75  C1  SGN C   5      16.674  15.039  47.6970  0.00  0.00     0.000 C
ATOM     76  C2  SGN C   5      15.715  16.022  46.9990  0.00  0.00     0.000 C
ATOM     77  C3  SGN C   5      14.259  15.560  47.1510  0.00  0.00     0.000 C
ATOM     78  C4  SGN C   5      14.100  14.085  46.8060  0.00  0.00     0.000 C
ATOM     79  C5  SGN C   5      15.105  13.266  47.6020  0.00  0.00     0.000 C
ATOM     80  O5  SGN C   5      16.452  13.700  47.2750  0.00  0.00     0.000 O
ATOM     81   O  SGN C   5      13.430  16.361  46.3160  0.00  0.00     0.000 O
ATOM     83  HD  SGN C   5      13.583  17.206  46.2000  0.00  0.00     0.000 HD
BRANCH 76 85
ATOM     83   N  SGN C   5      15.679  17.489  46.9520  0.00  0.00     0.000 N
ATOM     85  HD  SGN C   5      16.014  18.258  46.7360  0.00  0.00     0.000 HD
ATOM     85   S  SGN C   5      16.869  18.549  47.1850  0.00  0.00     0.000 S
ATOM     86   O  SGN C   5      16.395  19.876  46.9990  0.00  0.00     0.000 OA
ATOM     87   O  SGN C   5      17.461  18.245  48.4390  0.00  0.00     0.000 OA
ATOM     88   O  SGN C   5      17.718  18.109  45.9960  0.00  0.00     0.000 OA
ENDBRANCH 76 85
BRANCH 79 89
ATOM     89   C  SGN C   5      15.009  11.776  47.3450  0.00  0.00     0.000 C
ATOM     90   O  SGN C   5      16.142  11.342  46.5530  0.00  0.00     0.000 O
ATOM     91   S  SGN C   5      16.664   9.845  46.8020  0.00  0.00     0.000 S
ATOM     92   O  SGN C   5      16.880   9.721  48.2200  0.00  0.00     0.000 OA
ATOM     93   O  SGN C   5      15.639   8.954  46.3210  0.00  0.00     0.000 OA
ATOM     94   O  SGN C   5      17.876   9.785  46.0310  0.00  0.00     0.000 OA
ENDBRANCH 79 89
BRANCH 75 95
ATOM     95  O4  BDP C   6      16.411  15.149  49.0330  0.00  0.00     0.000 O
BRANCH 95 99
ATOM     96  C1  BDP C   6      18.839  14.299  52.4720  0.00  0.00     0.000 C
ATOM     97  C2  BDP C   6      19.485  14.933  51.2730  0.00  0.00     0.000 C
ATOM     98  C3  BDP C   6      18.494  15.541  50.2680  0.00  0.00     0.000 C
ATOM     99  C4  BDP C   6      17.374  14.565  49.9370  0.00  0.00     0.000 C
ATOM    100  C5  BDP C   6      16.796  14.033  51.2690  0.00  0.00     0.000 C
ATOM    101  O5  BDP C   6      17.920  13.392  51.8920  0.00  0.00     0.000 O
BRANCH 100 102
ATOM    102   C  BDP C   6      15.724  12.992  51.0620  0.00  0.00     0.000 C
ATOM    103   O  BDP C   6      15.987  11.788  50.9300  0.00  0.00     0.000 OA
ATOM    104   O  BDP C   6      14.554  13.392  51.0420  0.00  0.00     0.000 OA
ENDBRANCH 100 102
ENDBRANCH 95 99
ENDBRANCH 75 95
ENDBRANCH 74 78
ENDBRANCH 58 74
ENDBRANCH 57 61
ENDBRANCH 37 57
ENDBRANCH 36 40
ENDBRANCH 23 36
ENDBRANCH 22 26
ENDBRANCH 1 22
TORSDOF 20
ENDMDL
MODEL 68
REMARK VINA RESULT:      -4.4      5.350     16.418
ROOT
ATOM      1  C1  NGY C   1       2.801  15.367  51.5110  0.00  0.00     0.000 C
ATOM      2  C2  NGY C   1       1.981  16.244  52.4460  0.00  0.00     0.000 C
ATOM      3  C3  NGY C   1       2.170  15.797  53.8920  0.00  0.00     0.000 C
ATOM      4  C4  NGY C   1       1.838  14.319  53.9800  0.00  0.00     0.000 C
ATOM      5  C5  NGY C   1       2.782  13.549  53.0610  0.00  0.00     0.000 C
ATOM      6  O5  NGY C   1       2.549  13.990  51.6980  0.00  0.00     0.000 O
ATOM      7   O  NGY C   1       1.340  16.582  54.7360  0.00  0.00     0.000 O
ATOM      9  HD  NGY C   1       0.553  16.941  54.7010  0.00  0.00     0.000 HD
ATOM      9   O  NGY C   1       1.963  13.849  55.3150  0.00  0.00     0.000 O
ATOM     11  HD  NGY C   1       1.176  14.208  55.2790  0.00  0.00     0.000 HD
ENDROOT
BRANCH 2 13
ATOM     11   N  NGY C   1       2.361  17.603  52.1420  0.00  0.00     0.000 N
ATOM     13  HD  NGY C   1       1.585  17.980  52.2160  0.00  0.00     0.000 HD
ATOM     13   C  NGY C   1       1.468  18.592  52.1270  0.00  0.00     0.000 C
ATOM     14   O  NGY C   1       0.262  18.362  52.2310  0.00  0.00     0.000 OA
ATOM     15   C  NGY C   1       2.007  19.984  52.0060  0.00  0.00     0.000 C
ENDBRANCH 2 13
BRANCH 5 16
ATOM     16   C  NGY C   1       2.584  12.067  53.0460  0.00  0.00     0.000 C
ATOM     17   O  NGY C   1      -0.232  10.392  51.3960  0.00  0.00     0.000 OA
ATOM     18   O  NGY C   1       1.289  11.781  52.5110  0.00  0.00     0.000 O
ATOM     19   S  NGY C   1       1.073  10.311  52.0020  0.00  0.00     0.000 S
ATOM     20   O  NGY C   1       1.088   9.454  53.1590  0.00  0.00     0.000 OA
ATOM     21   O  NGY C   1       2.179  10.073  51.0890  0.00  0.00     0.000 OA
ENDBRANCH 5 16
BRANCH 1 22
ATOM     22  O4  BDP C   2       4.106  15.681  51.6540  0.00  0.00     0.000 O
BRANCH 22 26
ATOM     23  C1  BDP C   2       7.620  16.673  49.7490  0.00  0.00     0.000 C
ATOM     24  C2  BDP C   2       6.361  16.896  48.9460  0.00  0.00     0.000 C
ATOM     25  C3  BDP C   2       5.164  16.849  49.8590  0.00  0.00     0.000 C
ATOM     26  C4  BDP C   2       5.172  15.560  50.6750  0.00  0.00     0.000 C
ATOM     27  C5  BDP C   2       6.546  15.351  51.2970  0.00  0.00     0.000 C
ATOM     28  O5  BDP C   2       7.611  15.331  50.3120  0.00  0.00     0.000 O
ATOM     29   O  BDP C   2       6.301  18.205  48.3790  0.00  0.00     0.000 O
ATOM     31  HD  BDP C   2       5.518  18.573  48.3380  0.00  0.00     0.000 HD
ATOM     31   O  BDP C   2       4.009  16.895  49.0300  0.00  0.00     0.000 O
ATOM     33  HD  BDP C   2       3.227  17.264  48.9890  0.00  0.00     0.000 HD
BRANCH 27 33
ATOM     33   C  BDP C   2       6.650  14.040  52.0400  0.00  0.00     0.000 C
ATOM     34   O  BDP C   2       7.461  13.872  52.9820  0.00  0.00     0.000 OA
ATOM     35   O  BDP C   2       5.944  13.113  51.6810  0.00  0.00     0.000 OA
ENDBRANCH 27 33
BRANCH 23 36
ATOM     36  O4  SGN C   3       8.778  16.822  49.0650  0.00  0.00     0.000 O
BRANCH 36 40
ATOM     37  C1  SGN C   3      12.727  18.147  49.3510  0.00  0.00     0.000 C
ATOM     38  C2  SGN C   3      12.128  17.417  50.5650  0.00  0.00     0.000 C
ATOM     39  C3  SGN C   3      10.888  16.635  50.1570  0.00  0.00     0.000 C
ATOM     40  C4  SGN C   3       9.903  17.584  49.5110  0.00  0.00     0.000 C
ATOM     41  C5  SGN C   3      10.580  18.273  48.3470  0.00  0.00     0.000 C
ATOM     42  O5  SGN C   3      11.727  18.999  48.8140  0.00  0.00     0.000 O
ATOM     43   O  SGN C   3      10.323  16.019  51.3080  0.00  0.00     0.000 O
ATOM     45  HD  SGN C   3       9.705  16.168  50.7200  0.00  0.00     0.000 HD
BRANCH 38 47
ATOM     45   N  SGN C   3      13.384  18.067  50.9830  0.00  0.00     0.000 N
ATOM     47  HD  SGN C   3      12.618  18.128  50.5810  0.00  0.00     0.000 HD
ATOM     47   S  SGN C   3      14.165  17.212  52.0710  0.00  0.00     0.000 S
ATOM     48   O  SGN C   3      13.444  17.144  53.2920  0.00  0.00     0.000 OA
ATOM     49   O  SGN C   3      14.498  15.970  51.4530  0.00  0.00     0.000 OA
ATOM     50   O  SGN C   3      15.352  18.035  52.2990  0.00  0.00     0.000 OA
ENDBRANCH 38 47
BRANCH 41 51
ATOM     51   C  SGN C   3       9.700  19.246  47.6110  0.00  0.00     0.000 C
ATOM     52   O  SGN C   3       8.088  22.312  48.9830  0.00  0.00     0.000 OA
ATOM     53   O  SGN C   3       8.952  21.896  46.7900  0.00  0.00     0.000 OA
ATOM     54   O  SGN C   3       7.069  20.653  47.6120  0.00  0.00     0.000 OA
ATOM     55   O  SGN C   3       9.343  20.291  48.4880  0.00  0.00     0.000 O
ATOM     56   S  SGN C   3       8.261  21.389  47.9130  0.00  0.00     0.000 S
ENDBRANCH 41 51
BRANCH 37 57
ATOM     57  O4  IDS C   4      13.167  17.333  48.3610  0.00  0.00     0.000 O
BRANCH 57 61
ATOM     58  C1  IDS C   4      16.119  17.176  45.9680  0.00  0.00     0.000 C
ATOM     59  C2  IDS C   4      16.184  18.119  47.1270  0.00  0.00     0.000 C
ATOM     60  C3  IDS C   4      14.849  18.820  47.3950  0.00  0.00     0.000 C
ATOM     61  C4  IDS C   4      13.589  17.999  47.1560  0.00  0.00     0.000 C
ATOM     62  C5  IDS C   4      13.804  16.993  46.0200  0.00  0.00     0.000 C
ATOM     63  O5  IDS C   4      15.030  16.290  46.1620  0.00  0.00     0.000 O
ATOM     64   O  IDS C   4      14.830  19.932  46.5200  0.00  0.00     0.000 O
ATOM     66  HD  IDS C   4      14.215  19.833  45.9180  0.00  0.00     0.000 HD
BRANCH 59 66
ATOM     66   O  IDS C   4      16.547  17.421  48.3740  0.00  0.00     0.000 O
ATOM     67   S  IDS C   4      17.711  18.074  49.2420  0.00  0.00     0.000 S
ATOM     68   O  IDS C   4      17.143  19.335  49.6560  0.00  0.00     0.000 OA
ATOM     69   O  IDS C   4      17.951  17.131  50.3150  0.00  0.00     0.000 OA
ATOM     70   O  IDS C   4      18.851  18.263  48.3580  0.00  0.00     0.000 OA
ENDBRANCH 59 66
BRANCH 62 71
ATOM     71   C  IDS C   4      12.726  15.927  45.9590  0.00  0.00     0.000 C
ATOM     72   O  IDS C   4      11.818  16.022  45.1560  0.00  0.00     0.000 OA
ATOM     73   O  IDS C   4      12.741  15.018  46.8130  0.00  0.00     0.000 OA
ENDBRANCH 62 71
BRANCH 58 74
ATOM     74  O4  SGN C   5      16.297  17.754  44.7460  0.00  0.00     0.000 O
BRANCH 74 78
ATOM     75  C1  SGN C   5      17.469  17.089  40.7920  0.00  0.00     0.000 C
ATOM     76  C2  SGN C   5      15.951  17.098  41.0550  0.00  0.00     0.000 C
ATOM     77  C3  SGN C   5      15.644  17.682  42.4400  0.00  0.00     0.000 C
ATOM     78  C4  SGN C   5      16.521  17.061  43.5180  0.00  0.00     0.000 C
ATOM     79  C5  SGN C   5      17.982  17.164  43.1040  0.00  0.00     0.000 C
ATOM     80  O5  SGN C   5      18.181  16.460  41.8500  0.00  0.00     0.000 O
ATOM     81   O  SGN C   5      14.266  17.472  42.7340  0.00  0.00     0.000 O
ATOM     83  HD  SGN C   5      13.657  17.527  42.1210  0.00  0.00     0.000 HD
BRANCH 76 85
ATOM     83   N  SGN C   5      15.930  17.480  39.6370  0.00  0.00     0.000 N
ATOM     85  HD  SGN C   5      15.562  17.856  38.9500  0.00  0.00     0.000 HD
ATOM     85   S  SGN C   5      14.707  17.459  38.5910  0.00  0.00     0.000 S
ATOM     86   O  SGN C   5      15.125  17.959  37.3270  0.00  0.00     0.000 OA
ATOM     87   O  SGN C   5      14.154  16.152  38.6170  0.00  0.00     0.000 OA
ATOM     88   O  SGN C   5      13.848  18.490  39.3190  0.00  0.00     0.000 OA
ENDBRANCH 76 85
BRANCH 79 89
ATOM     89   C  SGN C   5      18.941  16.592  44.1290  0.00  0.00     0.000 C
ATOM     90   O  SGN C   5      20.128  16.095  43.4640  0.00  0.00     0.000 O
ATOM     91   S  SGN C   5      21.503  16.175  44.2880  0.00  0.00     0.000 S
ATOM     92   O  SGN C   5      21.630  17.538  44.7340  0.00  0.00     0.000 OA
ATOM     93   O  SGN C   5      21.396  15.246  45.3830  0.00  0.00     0.000 OA
ATOM     94   O  SGN C   5      22.493  15.797  43.3170  0.00  0.00     0.000 OA
ENDBRANCH 79 89
BRANCH 75 95
ATOM     95  O4  BDP C   6      17.839  18.402  40.7070  0.00  0.00     0.000 O
BRANCH 95 99
ATOM     96  C1  BDP C   6      20.901  20.225  38.3090  0.00  0.00     0.000 C
ATOM     97  C2  BDP C   6      20.252  18.963  37.8140  0.00  0.00     0.000 C
ATOM     98  C3  BDP C   6      18.937  18.606  38.5230  0.00  0.00     0.000 C
ATOM     99  C4  BDP C   6      19.086  18.685  40.0360  0.00  0.00     0.000 C
ATOM    100  C5  BDP C   6      19.730  20.047  40.3820  0.00  0.00     0.000 C
ATOM    101  O5  BDP C   6      20.996  20.003  39.7040  0.00  0.00     0.000 O
BRANCH 100 102
ATOM    102   C  BDP C   6      19.999  20.206  41.8570  0.00  0.00     0.000 C
ATOM    103   O  BDP C   6      19.160  20.682  42.6350  0.00  0.00     0.000 OA
ATOM    104   O  BDP C   6      21.101  19.824  42.2690  0.00  0.00     0.000 OA
ENDBRANCH 100 102
ENDBRANCH 95 99
ENDBRANCH 75 95
ENDBRANCH 74 78
ENDBRANCH 58 74
ENDBRANCH 57 61
ENDBRANCH 37 57
ENDBRANCH 36 40
ENDBRANCH 23 36
ENDBRANCH 22 26
ENDBRANCH 1 22
TORSDOF 20
ENDMDL
MODEL 69
REMARK VINA RESULT:      -4.3      4.774     15.304
ROOT
ATOM      1  C1  NGY C   1       1.262  10.238  40.0660  0.00  0.00     0.000 C
ATOM      2  C2  NGY C   1      -0.055  10.945  39.7800  0.00  0.00     0.000 C
ATOM      3  C3  NGY C   1      -1.057  10.668  40.8960  0.00  0.00     0.000 C
ATOM      4  C4  NGY C   1      -1.185   9.166  41.0590  0.00  0.00     0.000 C
ATOM      5  C5  NGY C   1       0.182   8.594  41.4230  0.00  0.00     0.000 C
ATOM      6  O5  NGY C   1       1.093   8.860  40.3240  0.00  0.00     0.000 O
ATOM      7   O  NGY C   1      -2.298  11.278  40.5710  0.00  0.00     0.000 O
ATOM      9  HD  NGY C   1      -2.770  11.422  39.8600  0.00  0.00     0.000 HD
ATOM      9   O  NGY C   1      -2.133   8.842  42.0650  0.00  0.00     0.000 O
ATOM     11  HD  NGY C   1      -2.605   8.987  41.3540  0.00  0.00     0.000 HD
ENDROOT
BRANCH 2 13
ATOM     11   N  NGY C   1       0.471  12.092  39.0780  0.00  0.00     0.000 N
ATOM     13  HD  NGY C   1      -0.272  12.509  38.9250  0.00  0.00     0.000 HD
ATOM     13   C  NGY C   1      -0.326  13.056  38.6190  0.00  0.00     0.000 C
ATOM     14   O  NGY C   1      -1.552  12.937  38.6490  0.00  0.00     0.000 OA
ATOM     15   C  NGY C   1       0.344  14.291  38.0970  0.00  0.00     0.000 C
ENDBRANCH 2 13
BRANCH 5 16
ATOM     16   C  NGY C   1       0.218   7.113  41.6270  0.00  0.00     0.000 C
ATOM     17   O  NGY C   1       0.340   5.501  44.9200  0.00  0.00     0.000 OA
ATOM     18   O  NGY C   1       0.480   6.846  43.0080  0.00  0.00     0.000 O
ATOM     19   S  NGY C   1       0.117   5.399  43.5010  0.00  0.00     0.000 S
ATOM     20   O  NGY C   1       1.035   4.491  42.8650  0.00  0.00     0.000 OA
ATOM     21   O  NGY C   1      -1.265   5.209  43.0910  0.00  0.00     0.000 OA
ENDBRANCH 5 16
BRANCH 1 22
ATOM     22  O4  BDP C   2       1.892  10.882  41.0710  0.00  0.00     0.000 O
BRANCH 22 26
ATOM     23  C1  BDP C   2       5.322  12.140  42.9720  0.00  0.00     0.000 C
ATOM     24  C2  BDP C   2       5.151  12.625  41.5520  0.00  0.00     0.000 C
ATOM     25  C3  BDP C   2       3.726  12.410  41.1130  0.00  0.00     0.000 C
ATOM     26  C4  BDP C   2       3.317  10.958  41.3370  0.00  0.00     0.000 C
ATOM     27  C5  BDP C   2       3.696  10.526  42.7470  0.00  0.00     0.000 C
ATOM     28  O5  BDP C   2       5.109  10.701  43.0260  0.00  0.00     0.000 O
ATOM     29   O  BDP C   2       5.331  14.036  41.4330  0.00  0.00     0.000 O
ATOM     31  HD  BDP C   2       4.828  14.444  40.8580  0.00  0.00     0.000 HD
ATOM     31   O  BDP C   2       3.669  12.726  39.7270  0.00  0.00     0.000 O
ATOM     33  HD  BDP C   2       3.166  13.134  39.1520  0.00  0.00     0.000 HD
BRANCH 27 33
ATOM     33   C  BDP C   2       3.406   9.066  43.0010  0.00  0.00     0.000 C
ATOM     34   O  BDP C   2       3.754   8.169  42.1970  0.00  0.00     0.000 OA
ATOM     35   O  BDP C   2       2.784   8.764  44.0060  0.00  0.00     0.000 OA
ENDBRANCH 27 33
BRANCH 23 36
ATOM     36  O4  SGN C   3       6.527  12.397  43.5310  0.00  0.00     0.000 O
BRANCH 36 40
ATOM     37  C1  SGN C   3       8.498  13.496  47.0430  0.00  0.00     0.000 C
ATOM     38  C2  SGN C   3       7.419  12.406  47.1410  0.00  0.00     0.000 C
ATOM     39  C3  SGN C   3       7.124  11.824  45.7670  0.00  0.00     0.000 C
ATOM     40  C4  SGN C   3       6.725  12.948  44.8360  0.00  0.00     0.000 C
ATOM     41  C5  SGN C   3       7.830  13.982  44.8180  0.00  0.00     0.000 C
ATOM     42  O5  SGN C   3       8.037  14.493  46.1450  0.00  0.00     0.000 O
ATOM     43   O  SGN C   3       6.082  10.862  45.8790  0.00  0.00     0.000 O
ATOM     45  HD  SGN C   3       6.079  11.209  45.0850  0.00  0.00     0.000 HD
BRANCH 38 47
ATOM     45   N  SGN C   3       7.433  12.870  48.5400  0.00  0.00     0.000 N
ATOM     47  HD  SGN C   3       7.246  13.031  47.7100  0.00  0.00     0.000 HD
ATOM     47   S  SGN C   3       7.672  11.676  49.5630  0.00  0.00     0.000 S
ATOM     48   O  SGN C   3       6.583  10.766  49.5610  0.00  0.00     0.000 OA
ATOM     49   O  SGN C   3       8.959  11.136  49.2660  0.00  0.00     0.000 OA
ATOM     50   O  SGN C   3       7.665  12.378  50.8450  0.00  0.00     0.000 OA
ENDBRANCH 38 47
BRANCH 41 51
ATOM     51   C  SGN C   3       7.558  15.158  43.9210  0.00  0.00     0.000 C
ATOM     52   O  SGN C   3       7.768  18.770  44.8100  0.00  0.00     0.000 OA
ATOM     53   O  SGN C   3       8.255  17.681  42.7350  0.00  0.00     0.000 OA
ATOM     54   O  SGN C   3       6.018  17.694  43.6060  0.00  0.00     0.000 OA
ATOM     55   O  SGN C   3       7.803  16.347  44.6400  0.00  0.00     0.000 O
ATOM     56   S  SGN C   3       7.424  17.754  43.8750  0.00  0.00     0.000 S
ENDBRANCH 41 51
BRANCH 37 57
ATOM     57  O4  IDS C   4       9.706  13.060  46.6090  0.00  0.00     0.000 O
BRANCH 57 61
ATOM     58  C1  IDS C   4      13.466  12.486  46.6450  0.00  0.00     0.000 C
ATOM     59  C2  IDS C   4      12.567  11.386  47.1140  0.00  0.00     0.000 C
ATOM     60  C3  IDS C   4      11.390  11.899  47.9470  0.00  0.00     0.000 C
ATOM     61  C4  IDS C   4      10.795  13.238  47.5340  0.00  0.00     0.000 C
ATOM     62  C5  IDS C   4      11.874  14.152  46.9400  0.00  0.00     0.000 C
ATOM     63  O5  IDS C   4      12.680  13.468  45.9910  0.00  0.00     0.000 O
ATOM     64   O  IDS C   4      11.892  12.022  49.2650  0.00  0.00     0.000 O
ATOM     66  HD  IDS C   4      11.921  12.855  49.5010  0.00  0.00     0.000 HD
BRANCH 59 66
ATOM     66   O  IDS C   4      11.985  10.641  45.9820  0.00  0.00     0.000 O
ATOM     67   S  IDS C   4      12.450   9.128  45.8120  0.00  0.00     0.000 S
ATOM     68   O  IDS C   4      11.936   8.491  47.0010  0.00  0.00     0.000 OA
ATOM     69   O  IDS C   4      11.843   8.688  44.5720  0.00  0.00     0.000 OA
ATOM     70   O  IDS C   4      13.905   9.126  45.7890  0.00  0.00     0.000 OA
ENDBRANCH 59 66
BRANCH 62 71
ATOM     71   C  IDS C   4      11.301  15.347  46.2040  0.00  0.00     0.000 C
ATOM     72   O  IDS C   4      10.796  16.262  46.8250  0.00  0.00     0.000 OA
ATOM     73   O  IDS C   4      11.268  15.317  44.9570  0.00  0.00     0.000 OA
ENDBRANCH 62 71
BRANCH 58 74
ATOM     74  O4  SGN C   5      14.412  12.879  47.5450  0.00  0.00     0.000 O
BRANCH 74 78
ATOM     75  C1  SGN C   5      18.395  13.991  46.9580  0.00  0.00     0.000 C
ATOM     76  C2  SGN C   5      17.723  14.531  48.2350  0.00  0.00     0.000 C
ATOM     77  C3  SGN C   5      16.407  13.791  48.5110  0.00  0.00     0.000 C
ATOM     78  C4  SGN C   5      15.539  13.709  47.2630  0.00  0.00     0.000 C
ATOM     79  C5  SGN C   5      16.354  13.133  46.1150  0.00  0.00     0.000 C
ATOM     80  O5  SGN C   5      17.498  13.988  45.8550  0.00  0.00     0.000 O
ATOM     81   O  SGN C   5      15.714  14.458  49.5600  0.00  0.00     0.000 O
ATOM     83  HD  SGN C   5      16.134  14.812  50.2300  0.00  0.00     0.000 HD
BRANCH 76 85
ATOM     83   N  SGN C   5      18.351  14.681  49.5540  0.00  0.00     0.000 N
ATOM     85  HD  SGN C   5      18.802  15.130  50.1420  0.00  0.00     0.000 HD
ATOM     85   S  SGN C   5      19.768  15.340  49.9430  0.00  0.00     0.000 S
ATOM     86   O  SGN C   5      19.959  15.314  51.3520  0.00  0.00     0.000 OA
ATOM     87   O  SGN C   5      20.757  14.708  49.1460  0.00  0.00     0.000 OA
ATOM     88   O  SGN C   5      19.429  16.753  49.4730  0.00  0.00     0.000 OA
ENDBRANCH 76 85
BRANCH 79 89
ATOM     89   C  SGN C   5      15.566  12.988  44.8280  0.00  0.00     0.000 C
ATOM     90   O  SGN C   5      15.657  14.212  44.0580  0.00  0.00     0.000 O
ATOM     91   S  SGN C   5      15.606  14.063  42.4600  0.00  0.00     0.000 S
ATOM     92   O  SGN C   5      16.611  13.094  42.1100  0.00  0.00     0.000 OA
ATOM     93   O  SGN C   5      14.277  13.626  42.1190  0.00  0.00     0.000 OA
ATOM     94   O  SGN C   5      15.904  15.390  41.9960  0.00  0.00     0.000 OA
ENDBRANCH 79 89
BRANCH 75 95
ATOM     95  O4  BDP C   6      18.769  12.710  47.2480  0.00  0.00     0.000 O
BRANCH 95 99
ATOM     96  C1  BDP C   6      22.038  10.430  45.6460  0.00  0.00     0.000 C
ATOM     97  C2  BDP C   6      22.127  11.930  45.6290  0.00  0.00     0.000 C
ATOM     98  C3  BDP C   6      21.119  12.635  46.5480  0.00  0.00     0.000 C
ATOM     99  C4  BDP C   6      19.713  12.088  46.3500  0.00  0.00     0.000 C
ATOM    100  C5  BDP C   6      19.786  10.545  46.4300  0.00  0.00     0.000 C
ATOM    101  O5  BDP C   6      20.673  10.194  45.3550  0.00  0.00     0.000 O
BRANCH 100 102
ATOM    102   C  BDP C   6      18.456   9.885  46.1680  0.00  0.00     0.000 C
ATOM    103   O  BDP C   6      17.479  10.047  46.9140  0.00  0.00     0.000 OA
ATOM    104   O  BDP C   6      18.372   9.177  45.1580  0.00  0.00     0.000 OA
ENDBRANCH 100 102
ENDBRANCH 95 99
ENDBRANCH 75 95
ENDBRANCH 74 78
ENDBRANCH 58 74
ENDBRANCH 57 61
ENDBRANCH 37 57
ENDBRANCH 36 40
ENDBRANCH 23 36
ENDBRANCH 22 26
ENDBRANCH 1 22
TORSDOF 20
ENDMDL
MODEL 70
REMARK VINA RESULT:      -4.0      5.481     10.017
ROOT
ATOM      1  C1  NGY C   1      17.022  16.027  50.6800  0.00  0.00     0.000 C
ATOM      2  C2  NGY C   1      17.968  14.918  51.1200  0.00  0.00     0.000 C
ATOM      3  C3  NGY C   1      17.961  14.788  52.6390  0.00  0.00     0.000 C
ATOM      4  C4  NGY C   1      18.282  16.146  53.2340  0.00  0.00     0.000 C
ATOM      5  C5  NGY C   1      17.217  17.142  52.7840  0.00  0.00     0.000 C
ATOM      6  O5  NGY C   1      17.277  17.250  51.3380  0.00  0.00     0.000 O
ATOM      7   O  NGY C   1      18.903  13.799  53.0280  0.00  0.00     0.000 O
ATOM      9  HD  NGY C   1      19.684  13.527  52.7700  0.00  0.00     0.000 HD
ATOM      9   O  NGY C   1      18.324  16.083  54.6520  0.00  0.00     0.000 O
ATOM     11  HD  NGY C   1      19.104  15.810  54.3950  0.00  0.00     0.000 HD
ENDROOT
BRANCH 2 13
ATOM     11   N  NGY C   1      18.771  14.149  50.1980  0.00  0.00     0.000 N
ATOM     13  HD  NGY C   1      18.322  13.409  50.2140  0.00  0.00     0.000 HD
ATOM     13   C  NGY C   1      18.466  12.889  49.8900  0.00  0.00     0.000 C
ATOM     14   O  NGY C   1      17.574  12.285  50.4870  0.00  0.00     0.000 OA
ATOM     15   C  NGY C   1      19.242  12.264  48.7710  0.00  0.00     0.000 C
ENDBRANCH 2 13
BRANCH 5 16
ATOM     16   C  NGY C   1      17.391  18.535  53.3010  0.00  0.00     0.000 C
ATOM     17   O  NGY C   1      14.908  21.203  52.8790  0.00  0.00     0.000 OA
ATOM     18   O  NGY C   1      16.344  19.355  52.7750  0.00  0.00     0.000 O
ATOM     19   S  NGY C   1      16.091  20.706  53.5350  0.00  0.00     0.000 S
ATOM     20   O  NGY C   1      17.239  21.544  53.3050  0.00  0.00     0.000 OA
ATOM     21   O  NGY C   1      15.925  20.318  54.9260  0.00  0.00     0.000 OA
ENDBRANCH 5 16
BRANCH 1 22
ATOM     22  O4  BDP C   2      15.751  15.604  50.8440  0.00  0.00     0.000 O
BRANCH 22 26
ATOM     23  C1  BDP C   2      11.959  15.399  49.2500  0.00  0.00     0.000 C
ATOM     24  C2  BDP C   2      13.072  15.621  48.2530  0.00  0.00     0.000 C
ATOM     25  C3  BDP C   2      14.398  15.313  48.8980  0.00  0.00     0.000 C
ATOM     26  C4  BDP C   2      14.548  16.098  50.1970  0.00  0.00     0.000 C
ATOM     27  C5  BDP C   2      13.293  15.939  51.0450  0.00  0.00     0.000 C
ATOM     28  O5  BDP C   2      12.089  16.347  50.3460  0.00  0.00     0.000 O
ATOM     29   O  BDP C   2      13.011  14.708  47.1570  0.00  0.00     0.000 O
ATOM     31  HD  BDP C   2      13.768  14.436  46.8370  0.00  0.00     0.000 HD
ATOM     31   O  BDP C   2      15.407  15.698  47.9740  0.00  0.00     0.000 O
ATOM     33  HD  BDP C   2      16.164  15.426  47.6540  0.00  0.00     0.000 HD
BRANCH 27 33
ATOM     33   C  BDP C   2      13.338  16.773  52.3040  0.00  0.00     0.000 C
ATOM     34   O  BDP C   2      13.288  16.257  53.4460  0.00  0.00     0.000 OA
ATOM     35   O  BDP C   2      13.391  17.986  52.1950  0.00  0.00     0.000 OA
ENDBRANCH 27 33
BRANCH 23 36
ATOM     36  O4  SGN C   3      10.705  15.516  48.7540  0.00  0.00     0.000 O
BRANCH 36 40
ATOM     37  C1  SGN C   3       7.006  13.589  48.5910  0.00  0.00     0.000 C
ATOM     38  C2  SGN C   3       7.132  14.816  49.5080  0.00  0.00     0.000 C
ATOM     39  C3  SGN C   3       8.355  15.639  49.1310  0.00  0.00     0.000 C
ATOM     40  C4  SGN C   3       9.578  14.750  49.1850  0.00  0.00     0.000 C
ATOM     41  C5  SGN C   3       9.358  13.561  48.2750  0.00  0.00     0.000 C
ATOM     42  O5  SGN C   3       8.199  12.830  48.7050  0.00  0.00     0.000 O
ATOM     43   O  SGN C   3       8.480  16.733  50.0320  0.00  0.00     0.000 O
ATOM     45  HD  SGN C   3       9.259  16.514  49.7230  0.00  0.00     0.000 HD
BRANCH 38 47
ATOM     45   N  SGN C   3       5.911  15.623  49.3310  0.00  0.00     0.000 N
ATOM     47  HD  SGN C   3       6.695  15.396  49.0410  0.00  0.00     0.000 HD
ATOM     47   S  SGN C   3       4.723  15.121  50.2600  0.00  0.00     0.000 S
ATOM     48   O  SGN C   3       4.283  13.824  49.8830  0.00  0.00     0.000 OA
ATOM     49   O  SGN C   3       5.163  15.281  51.6080  0.00  0.00     0.000 OA
ATOM     50   O  SGN C   3       3.662  16.068  49.9240  0.00  0.00     0.000 OA
ENDBRANCH 38 47
BRANCH 41 51
ATOM     51   C  SGN C   3      10.510  12.595  48.2350  0.00  0.00     0.000 C
ATOM     52   O  SGN C   3      12.183  11.206  45.2100  0.00  0.00     0.000 OA
ATOM     53   O  SGN C   3      13.111  11.758  47.3460  0.00  0.00     0.000 OA
ATOM     54   O  SGN C   3      11.491   9.998  47.1420  0.00  0.00     0.000 OA
ATOM     55   O  SGN C   3      10.867  12.368  46.8900  0.00  0.00     0.000 O
ATOM     56   S  SGN C   3      12.021  11.225  46.6240  0.00  0.00     0.000 S
ENDBRANCH 41 51
BRANCH 37 57
ATOM     57  O4  IDS C   4       6.811  13.879  47.2810  0.00  0.00     0.000 O
BRANCH 57 61
ATOM     58  C1  IDS C   4       4.967  14.057  43.9590  0.00  0.00     0.000 C
ATOM     59  C2  IDS C   4       4.559  14.987  45.0570  0.00  0.00     0.000 C
ATOM     60  C3  IDS C   4       4.560  14.315  46.4320  0.00  0.00     0.000 C
ATOM     61  C4  IDS C   4       5.647  13.278  46.6830  0.00  0.00     0.000 C
ATOM     62  C5  IDS C   4       6.013  12.550  45.3840  0.00  0.00     0.000 C
ATOM     63  O5  IDS C   4       6.203  13.456  44.3070  0.00  0.00     0.000 O
ATOM     64   O  IDS C   4       3.302  13.675  46.5350  0.00  0.00     0.000 O
ATOM     66  HD  IDS C   4       3.399  12.814  46.5430  0.00  0.00     0.000 HD
BRANCH 59 66
ATOM     66   O  IDS C   4       5.470  16.143  45.1560  0.00  0.00     0.000 O
ATOM     67   S  IDS C   4       4.821  17.522  45.6150  0.00  0.00     0.000 S
ATOM     68   O  IDS C   4       4.393  17.250  46.9660  0.00  0.00     0.000 OA
ATOM     69   O  IDS C   4       5.889  18.494  45.4960  0.00  0.00     0.000 OA
ATOM     70   O  IDS C   4       3.691  17.779  44.7350  0.00  0.00     0.000 OA
ENDBRANCH 59 66
BRANCH 62 71
ATOM     71   C  IDS C   4       7.305  11.762  45.4880  0.00  0.00     0.000 C
ATOM     72   O  IDS C   4       8.263  12.068  44.8050  0.00  0.00     0.000 OA
ATOM     73   O  IDS C   4       7.322  10.742  46.2060  0.00  0.00     0.000 OA
ENDBRANCH 62 71
BRANCH 58 74
ATOM     74  O4  SGN C   5       3.964  13.278  43.4620  0.00  0.00     0.000 O
BRANCH 74 78
ATOM     75  C1  SGN C   5       2.828  10.656  40.4170  0.00  0.00     0.000 C
ATOM     76  C2  SGN C   5       3.421  10.006  41.6810  0.00  0.00     0.000 C
ATOM     77  C3  SGN C   5       3.475  11.016  42.8350  0.00  0.00     0.000 C
ATOM     78  C4  SGN C   5       4.087  12.339  42.3940  0.00  0.00     0.000 C
ATOM     79  C5  SGN C   5       3.364  12.843  41.1530  0.00  0.00     0.000 C
ATOM     80  O5  SGN C   5       3.495  11.867  40.0860  0.00  0.00     0.000 O
ATOM     81   O  SGN C   5       4.224  10.453  43.9070  0.00  0.00     0.000 O
ATOM     83  HD  SGN C   5       4.176   9.610  44.1010  0.00  0.00     0.000 HD
BRANCH 76 85
ATOM     83   N  SGN C   5       3.153   8.705  42.3060  0.00  0.00     0.000 N
ATOM     85  HD  SGN C   5       3.199   7.840  42.3270  0.00  0.00     0.000 HD
ATOM     85   S  SGN C   5       2.697   7.318  41.6250  0.00  0.00     0.000 S
ATOM     86   O  SGN C   5       2.596   6.293  42.6050  0.00  0.00     0.000 OA
ATOM     87   O  SGN C   5       1.537   7.591  40.8550  0.00  0.00     0.000 OA
ATOM     88   O  SGN C   5       3.952   7.129  40.7770  0.00  0.00     0.000 OA
ENDBRANCH 76 85
BRANCH 79 89
ATOM     89   C  SGN C   5       3.887  14.173  40.6480  0.00  0.00     0.000 C
ATOM     90   O  SGN C   5       3.651  14.282  39.2230  0.00  0.00     0.000 O
ATOM     91   S  SGN C   5       3.391  15.758  38.6470  0.00  0.00     0.000 S
ATOM     92   O  SGN C   5       2.334  16.324  39.4430  0.00  0.00     0.000 OA
ATOM     93   O  SGN C   5       4.627  16.486  38.7750  0.00  0.00     0.000 OA
ATOM     94   O  SGN C   5       3.013  15.517  37.2810  0.00  0.00     0.000 OA
ENDBRANCH 79 89
BRANCH 75 95
ATOM     95  O4  BDP C   6       1.520  10.918  40.7120  0.00  0.00     0.000 O
BRANCH 95 99
ATOM     96  C1  BDP C   6      -1.599  10.337  37.8170  0.00  0.00     0.000 C
ATOM     97  C2  BDP C   6      -0.171  10.154  37.3860  0.00  0.00     0.000 C
ATOM     98  C3  BDP C   6       0.827  10.004  38.5440  0.00  0.00     0.000 C
ATOM     99  C4  BDP C   6       0.620  11.085  39.5950  0.00  0.00     0.000 C
ATOM    100  C5  BDP C   6      -0.883  11.122  39.9540  0.00  0.00     0.000 C
ATOM    101  O5  BDP C   6      -1.520  11.436  38.7060  0.00  0.00     0.000 O
BRANCH 100 102
ATOM    102   C  BDP C   6      -1.220  12.216  40.9360  0.00  0.00     0.000 C
ATOM    103   O  BDP C   6      -1.538  13.357  40.5710  0.00  0.00     0.000 OA
ATOM    104   O  BDP C   6      -1.178  11.922  42.1360  0.00  0.00     0.000 OA
ENDBRANCH 100 102
ENDBRANCH 95 99
ENDBRANCH 75 95
ENDBRANCH 74 78
ENDBRANCH 58 74
ENDBRANCH 57 61
ENDBRANCH 37 57
ENDBRANCH 36 40
ENDBRANCH 23 36
ENDBRANCH 22 26
ENDBRANCH 1 22
TORSDOF 20
ENDMDL
MODEL 71
REMARK VINA RESULT:      -4.0      5.649      9.971
ROOT
ATOM      1  C1  NGY C   1      16.281  16.718  51.1200  0.00  0.00     0.000 C
ATOM      2  C2  NGY C   1      17.259  15.576  51.3510  0.00  0.00     0.000 C
ATOM      3  C3  NGY C   1      17.343  15.244  52.8370  0.00  0.00     0.000 C
ATOM      4  C4  NGY C   1      17.688  16.515  53.5900  0.00  0.00     0.000 C
ATOM      5  C5  NGY C   1      16.591  17.545  53.3400  0.00  0.00     0.000 C
ATOM      6  O5  NGY C   1      16.564  17.846  51.9200  0.00  0.00     0.000 O
ATOM      7   O  NGY C   1      18.315  14.226  53.0340  0.00  0.00     0.000 O
ATOM      9  HD  NGY C   1      19.081  14.003  52.6980  0.00  0.00     0.000 HD
ATOM      9   O  NGY C   1      17.814  16.263  54.9820  0.00  0.00     0.000 O
ATOM     11  HD  NGY C   1      18.581  16.040  54.6450  0.00  0.00     0.000 HD
ENDROOT
BRANCH 2 13
ATOM     11   N  NGY C   1      17.141  14.924  50.0680  0.00  0.00     0.000 N
ATOM     13  HD  NGY C   1      17.593  14.205  50.2390  0.00  0.00     0.000 HD
ATOM     13   C  NGY C   1      17.700  13.738  49.8320  0.00  0.00     0.000 C
ATOM     14   O  NGY C   1      18.459  13.218  50.6520  0.00  0.00     0.000 OA
ATOM     15   C  NGY C   1      17.337  13.067  48.5430  0.00  0.00     0.000 C
ENDBRANCH 2 13
BRANCH 5 16
ATOM     16   C  NGY C   1      16.784  18.858  54.0280  0.00  0.00     0.000 C
ATOM     17   O  NGY C   1      14.196  20.529  56.0210  0.00  0.00     0.000 OA
ATOM     18   O  NGY C   1      15.520  19.309  54.5220  0.00  0.00     0.000 O
ATOM     19   S  NGY C   1      15.580  20.414  55.6370  0.00  0.00     0.000 S
ATOM     20   O  NGY C   1      16.078  21.615  55.0190  0.00  0.00     0.000 OA
ATOM     21   O  NGY C   1      16.473  19.868  56.6460  0.00  0.00     0.000 OA
ENDBRANCH 5 16
BRANCH 1 22
ATOM     22  O4  BDP C   2      15.025  16.257  51.2990  0.00  0.00     0.000 O
BRANCH 22 26
ATOM     23  C1  BDP C   2      11.159  16.036  49.8950  0.00  0.00     0.000 C
ATOM     24  C2  BDP C   2      12.223  16.225  48.8400  0.00  0.00     0.000 C
ATOM     25  C3  BDP C   2      13.577  15.925  49.4280  0.00  0.00     0.000 C
ATOM     26  C4  BDP C   2      13.795  16.742  50.6970  0.00  0.00     0.000 C
ATOM     27  C5  BDP C   2      12.582  16.614  51.6100  0.00  0.00     0.000 C
ATOM     28  O5  BDP C   2      11.347  17.011  50.9590  0.00  0.00     0.000 O
ATOM     29   O  BDP C   2      12.104  15.286  47.7720  0.00  0.00     0.000 O
ATOM     31  HD  BDP C   2      12.844  15.000  47.4230  0.00  0.00     0.000 HD
ATOM     31   O  BDP C   2      14.542  16.280  48.4470  0.00  0.00     0.000 O
ATOM     33  HD  BDP C   2      15.282  15.995  48.0980  0.00  0.00     0.000 HD
BRANCH 27 33
ATOM     33   C  BDP C   2      12.692  17.478  52.8430  0.00  0.00     0.000 C
ATOM     34   O  BDP C   2      13.170  18.637  52.8020  0.00  0.00     0.000 OA
ATOM     35   O  BDP C   2      12.334  17.013  53.9120  0.00  0.00     0.000 OA
ENDBRANCH 27 33
BRANCH 23 36
ATOM     36  O4  SGN C   3       9.883  16.149  49.4580  0.00  0.00     0.000 O
BRANCH 36 40
ATOM     37  C1  SGN C   3       5.962  14.784  49.8970  0.00  0.00     0.000 C
ATOM     38  C2  SGN C   3       6.680  15.309  51.1510  0.00  0.00     0.000 C
ATOM     39  C3  SGN C   3       7.887  16.150  50.7600  0.00  0.00     0.000 C
ATOM     40  C4  SGN C   3       8.796  15.321  49.8790  0.00  0.00     0.000 C
ATOM     41  C5  SGN C   3       8.004  14.829  48.6870  0.00  0.00     0.000 C
ATOM     42  O5  SGN C   3       6.896  14.034  49.1360  0.00  0.00     0.000 O
ATOM     43   O  SGN C   3       8.565  16.572  51.9370  0.00  0.00     0.000 O
ATOM     45  HD  SGN C   3       9.123  16.523  51.2770  0.00  0.00     0.000 HD
BRANCH 38 47
ATOM     45   N  SGN C   3       6.124  15.970  52.3450  0.00  0.00     0.000 N
ATOM     47  HD  SGN C   3       6.670  15.996  51.6730  0.00  0.00     0.000 HD
ATOM     47   S  SGN C   3       4.796  15.261  52.8560  0.00  0.00     0.000 S
ATOM     48   O  SGN C   3       3.740  15.401  51.9170  0.00  0.00     0.000 OA
ATOM     49   O  SGN C   3       5.158  13.930  53.2190  0.00  0.00     0.000 OA
ATOM     50   O  SGN C   3       4.461  16.067  54.0280  0.00  0.00     0.000 OA
ENDBRANCH 38 47
BRANCH 41 51
ATOM     51   C  SGN C   3       8.799  13.991  47.7230  0.00  0.00     0.000 C
ATOM     52   O  SGN C   3      10.659  10.851  48.4700  0.00  0.00     0.000 OA
ATOM     53   O  SGN C   3       9.493  11.495  46.4810  0.00  0.00     0.000 OA
ATOM     54   O  SGN C   3      11.439  12.706  47.1970  0.00  0.00     0.000 OA
ATOM     55   O  SGN C   3       9.298  12.863  48.4060  0.00  0.00     0.000 O
ATOM     56   S  SGN C   3      10.319  11.889  47.5580  0.00  0.00     0.000 S
ENDBRANCH 41 51
BRANCH 37 57
ATOM     57  O4  IDS C   4       5.442  15.748  49.0980  0.00  0.00     0.000 O
BRANCH 57 61
ATOM     58  C1  IDS C   4       2.366  16.772  47.1080  0.00  0.00     0.000 C
ATOM     59  C2  IDS C   4       2.198  15.823  48.2520  0.00  0.00     0.000 C
ATOM     60  C3  IDS C   4       3.325  14.791  48.3350  0.00  0.00     0.000 C
ATOM     61  C4  IDS C   4       4.717  15.271  47.9480  0.00  0.00     0.000 C
ATOM     62  C5  IDS C   4       4.638  16.351  46.8630  0.00  0.00     0.000 C
ATOM     63  O5  IDS C   4       3.664  17.338  47.1730  0.00  0.00     0.000 O
ATOM     64   O  IDS C   4       2.948  13.755  47.4480  0.00  0.00     0.000 O
ATOM     66  HD  IDS C   4       3.490  13.721  46.7740  0.00  0.00     0.000 HD
BRANCH 59 66
ATOM     66   O  IDS C   4       2.182  16.531  49.5460  0.00  0.00     0.000 O
ATOM     67   S  IDS C   4       0.775  16.635  50.2820  0.00  0.00     0.000 S
ATOM     68   O  IDS C   4       0.463  15.260  50.5900  0.00  0.00     0.000 OA
ATOM     69   O  IDS C   4       1.019  17.479  51.4360  0.00  0.00     0.000 OA
ATOM     70   O  IDS C   4      -0.168  17.200  49.3300  0.00  0.00     0.000 OA
ENDBRANCH 59 66
BRANCH 62 71
ATOM     71   C  IDS C   4       5.940  17.107  46.6790  0.00  0.00     0.000 C
ATOM     72   O  IDS C   4       6.049  18.245  47.0920  0.00  0.00     0.000 OA
ATOM     73   O  IDS C   4       6.847  16.572  46.0090  0.00  0.00     0.000 OA
ENDBRANCH 62 71
BRANCH 58 74
ATOM     74  O4  SGN C   5       1.896  16.318  45.9110  0.00  0.00     0.000 O
BRANCH 74 78
ATOM     75  C1  SGN C   5       0.784  17.896  42.2070  0.00  0.00     0.000 C
ATOM     76  C2  SGN C   5       1.455  18.878  43.1860  0.00  0.00     0.000 C
ATOM     77  C3  SGN C   5       2.116  18.121  44.3460  0.00  0.00     0.000 C
ATOM     78  C4  SGN C   5       1.174  17.089  44.9500  0.00  0.00     0.000 C
ATOM     79  C5  SGN C   5       0.628  16.194  43.8480  0.00  0.00     0.000 C
ATOM     80  O5  SGN C   5      -0.093  17.002  42.8800  0.00  0.00     0.000 O
ATOM     81   O  SGN C   5       2.529  19.060  45.3340  0.00  0.00     0.000 O
ATOM     83  HD  SGN C   5       2.844  19.837  45.1180  0.00  0.00     0.000 HD
BRANCH 76 85
ATOM     83   N  SGN C   5       2.250  20.094  42.9720  0.00  0.00     0.000 N
ATOM     85  HD  SGN C   5       2.350  20.902  42.6780  0.00  0.00     0.000 HD
ATOM     85   S  SGN C   5       2.323  21.054  41.6800  0.00  0.00     0.000 S
ATOM     86   O  SGN C   5       3.193  22.151  41.9250  0.00  0.00     0.000 OA
ATOM     87   O  SGN C   5       2.620  20.230  40.5630  0.00  0.00     0.000 OA
ATOM     88   O  SGN C   5       0.865  21.504  41.7250  0.00  0.00     0.000 OA
ENDBRANCH 76 85
BRANCH 79 89
ATOM     89   C  SGN C   5      -0.305  15.113  44.3550  0.00  0.00     0.000 C
ATOM     90   O  SGN C   5      -0.661  15.380  45.7340  0.00  0.00     0.000 O
ATOM     91   S  SGN C   5      -2.118  14.901  46.2080  0.00  0.00     0.000 S
ATOM     92   O  SGN C   5      -3.054  15.452  45.2630  0.00  0.00     0.000 OA
ATOM     93   O  SGN C   5      -2.114  13.461  46.2030  0.00  0.00     0.000 OA
ATOM     94   O  SGN C   5      -2.237  15.464  47.5260  0.00  0.00     0.000 OA
ENDBRANCH 79 89
BRANCH 75 95
ATOM     95  O4  BDP C   6       1.802  17.193  41.6290  0.00  0.00     0.000 O
BRANCH 95 99
ATOM     96  C1  BDP C   6       1.926  15.770  37.5790  0.00  0.00     0.000 C
ATOM     97  C2  BDP C   6       0.861  16.758  37.9640  0.00  0.00     0.000 C
ATOM     98  C3  BDP C   6       1.124  17.487  39.2910  0.00  0.00     0.000 C
ATOM     99  C4  BDP C   6       1.502  16.509  40.3930  0.00  0.00     0.000 C
ATOM    100  C5  BDP C   6       2.625  15.592  39.8540  0.00  0.00     0.000 C
ATOM    101  O5  BDP C   6       2.017  14.944  38.7250  0.00  0.00     0.000 O
BRANCH 100 102
ATOM    102   C  BDP C   6       3.029  14.525  40.8400  0.00  0.00     0.000 C
ATOM    103   O  BDP C   6       2.207  13.957  41.5730  0.00  0.00     0.000 OA
ATOM    104   O  BDP C   6       4.228  14.227  40.8800  0.00  0.00     0.000 OA
ENDBRANCH 100 102
ENDBRANCH 95 99
ENDBRANCH 75 95
ENDBRANCH 74 78
ENDBRANCH 58 74
ENDBRANCH 57 61
ENDBRANCH 37 57
ENDBRANCH 36 40
ENDBRANCH 23 36
ENDBRANCH 22 26
ENDBRANCH 1 22
TORSDOF 20
ENDMDL
MODEL 72
REMARK VINA RESULT:      -3.9      3.788     15.618
ROOT
ATOM      1  C1  NGY C   1       3.167  14.584  50.8010  0.00  0.00     0.000 C
ATOM      2  C2  NGY C   1       2.237  15.167  51.8560  0.00  0.00     0.000 C
ATOM      3  C3  NGY C   1       2.501  14.516  53.2100  0.00  0.00     0.000 C
ATOM      4  C4  NGY C   1       2.385  13.013  53.0470  0.00  0.00     0.000 C
ATOM      5  C5  NGY C   1       3.422  12.550  52.0270  0.00  0.00     0.000 C
ATOM      6  O5  NGY C   1       3.117  13.174  50.7530  0.00  0.00     0.000 O
ATOM      7   O  NGY C   1       1.574  15.023  54.1600  0.00  0.00     0.000 O
ATOM      9  HD  NGY C   1       0.743  15.267  54.1720  0.00  0.00     0.000 HD
ATOM      9   O  NGY C   1       2.588  12.350  54.2860  0.00  0.00     0.000 O
ATOM     11  HD  NGY C   1       1.757  12.594  54.2980  0.00  0.00     0.000 HD
ENDROOT
BRANCH 2 13
ATOM     11   N  NGY C   1       2.269  16.553  51.4530  0.00  0.00     0.000 N
ATOM     13  HD  NGY C   1       1.599  16.844  51.9180  0.00  0.00     0.000 HD
ATOM     13   C  NGY C   1       1.390  17.437  51.9230  0.00  0.00     0.000 C
ATOM     14   O  NGY C   1       0.430  17.079  52.6070  0.00  0.00     0.000 OA
ATOM     15   C  NGY C   1       1.647  18.878  51.6010  0.00  0.00     0.000 C
ENDBRANCH 2 13
BRANCH 5 16
ATOM     16   C  NGY C   1       3.439  11.078  51.7620  0.00  0.00     0.000 C
ATOM     17   O  NGY C   1       2.872   9.583  48.4600  0.00  0.00     0.000 OA
ATOM     18   O  NGY C   1       2.970  10.845  50.4310  0.00  0.00     0.000 O
ATOM     19   S  NGY C   1       3.331   9.444  49.8190  0.00  0.00     0.000 S
ATOM     20   O  NGY C   1       2.583   8.455  50.5510  0.00  0.00     0.000 OA
ATOM     21   O  NGY C   1       4.770   9.328  49.9910  0.00  0.00     0.000 OA
ENDBRANCH 5 16
BRANCH 1 22
ATOM     22  O4  BDP C   2       4.414  15.053  51.0140  0.00  0.00     0.000 O
BRANCH 22 26
ATOM     23  C1  BDP C   2       8.078  16.248  49.5610  0.00  0.00     0.000 C
ATOM     24  C2  BDP C   2       6.880  16.731  48.7790  0.00  0.00     0.000 C
ATOM     25  C3  BDP C   2       5.631  16.544  49.6000  0.00  0.00     0.000 C
ATOM     26  C4  BDP C   2       5.528  15.101  50.0840  0.00  0.00     0.000 C
ATOM     27  C5  BDP C   2       6.852  14.666  50.6980  0.00  0.00     0.000 C
ATOM     28  O5  BDP C   2       7.969  14.814  49.7850  0.00  0.00     0.000 O
ATOM     29   O  BDP C   2       6.918  18.138  48.5400  0.00  0.00     0.000 O
ATOM     31  HD  BDP C   2       6.158  18.554  48.5530  0.00  0.00     0.000 HD
ATOM     31   O  BDP C   2       4.530  16.857  48.7560  0.00  0.00     0.000 O
ATOM     33  HD  BDP C   2       3.771  17.272  48.7690  0.00  0.00     0.000 HD
BRANCH 27 33
ATOM     33   C  BDP C   2       6.848  13.213  51.1100  0.00  0.00     0.000 C
ATOM     34   O  BDP C   2       6.413  12.310  50.3570  0.00  0.00     0.000 OA
ATOM     35   O  BDP C   2       7.251  12.925  52.2240  0.00  0.00     0.000 OA
ENDBRANCH 27 33
BRANCH 23 36
ATOM     36  O4  SGN C   3       9.280  16.482  48.9840  0.00  0.00     0.000 O
BRANCH 36 40
ATOM     37  C1  SGN C   3      13.190  17.363  50.1510  0.00  0.00     0.000 C
ATOM     38  C2  SGN C   3      12.192  16.955  51.2470  0.00  0.00     0.000 C
ATOM     39  C3  SGN C   3      10.984  16.261  50.6360  0.00  0.00     0.000 C
ATOM     40  C4  SGN C   3      10.365  17.178  49.6030  0.00  0.00     0.000 C
ATOM     41  C5  SGN C   3      11.419  17.545  48.5820  0.00  0.00     0.000 C
ATOM     42  O5  SGN C   3      12.515  18.207  49.2320  0.00  0.00     0.000 O
ATOM     43   O  SGN C   3      10.053  15.949  51.6640  0.00  0.00     0.000 O
ATOM     45  HD  SGN C   3       9.637  16.054  50.9120  0.00  0.00     0.000 HD
BRANCH 38 47
ATOM     45   N  SGN C   3      12.968  16.038  52.1010  0.00  0.00     0.000 N
ATOM     47  HD  SGN C   3      12.539  16.173  51.3610  0.00  0.00     0.000 HD
ATOM     47   S  SGN C   3      13.719  16.806  53.2730  0.00  0.00     0.000 S
ATOM     48   O  SGN C   3      14.728  17.667  52.7660  0.00  0.00     0.000 OA
ATOM     49   O  SGN C   3      12.709  17.408  54.0800  0.00  0.00     0.000 OA
ATOM     50   O  SGN C   3      14.381  15.706  53.9720  0.00  0.00     0.000 OA
ENDBRANCH 38 47
BRANCH 41 51
ATOM     51   C  SGN C   3      10.927  18.455  47.4900  0.00  0.00     0.000 C
ATOM     52   O  SGN C   3       8.728  21.439  47.8610  0.00  0.00     0.000 OA
ATOM     53   O  SGN C   3      10.514  21.046  46.3170  0.00  0.00     0.000 OA
ATOM     54   O  SGN C   3       8.523  19.706  46.2420  0.00  0.00     0.000 OA
ATOM     55   O  SGN C   3      10.162  19.489  48.0690  0.00  0.00     0.000 O
ATOM     56   S  SGN C   3       9.411  20.515  47.0230  0.00  0.00     0.000 S
ENDBRANCH 41 51
BRANCH 37 57
ATOM     57  O4  IDS C   4      13.725  16.327  49.4600  0.00  0.00     0.000 O
BRANCH 57 61
ATOM     58  C1  IDS C   4      16.594  14.131  48.2680  0.00  0.00     0.000 C
ATOM     59  C2  IDS C   4      16.462  14.408  49.7320  0.00  0.00     0.000 C
ATOM     60  C3  IDS C   4      16.056  15.855  50.0260  0.00  0.00     0.000 C
ATOM     61  C4  IDS C   4      15.093  16.505  49.0420  0.00  0.00     0.000 C
ATOM     62  C5  IDS C   4      15.309  15.957  47.6270  0.00  0.00     0.000 C
ATOM     63  O5  IDS C   4      15.402  14.540  47.6190  0.00  0.00     0.000 O
ATOM     64   O  IDS C   4      17.265  16.590  50.0170  0.00  0.00     0.000 O
ATOM     66  HD  IDS C   4      17.282  17.138  49.3470  0.00  0.00     0.000 HD
BRANCH 59 66
ATOM     66   O  IDS C   4      15.437  13.551  50.3570  0.00  0.00     0.000 O
ATOM     67   S  IDS C   4      15.954  12.216  51.0510  0.00  0.00     0.000 S
ATOM     68   O  IDS C   4      16.765  12.705  52.1400  0.00  0.00     0.000 OA
ATOM     69   O  IDS C   4      14.751  11.514  51.4530  0.00  0.00     0.000 OA
ATOM     70   O  IDS C   4      16.752  11.500  50.0670  0.00  0.00     0.000 OA
ENDBRANCH 59 66
BRANCH 62 71
ATOM     71   C  IDS C   4      14.176  16.298  46.6780  0.00  0.00     0.000 C
ATOM     72   O  IDS C   4      14.056  17.431  46.2530  0.00  0.00     0.000 OA
ATOM     73   O  IDS C   4      13.323  15.422  46.4320  0.00  0.00     0.000 OA
ENDBRANCH 62 71
BRANCH 58 74
ATOM     74  O4  SGN C   5      17.798  14.468  47.7250  0.00  0.00     0.000 O
BRANCH 74 78
ATOM     75  C1  SGN C   5      20.201  14.251  44.3150  0.00  0.00     0.000 C
ATOM     76  C2  SGN C   5      19.382  15.545  44.4840  0.00  0.00     0.000 C
ATOM     77  C3  SGN C   5      18.823  15.652  45.9090  0.00  0.00     0.000 C
ATOM     78  C4  SGN C   5      18.154  14.356  46.3470  0.00  0.00     0.000 C
ATOM     79  C5  SGN C   5      19.111  13.193  46.1340  0.00  0.00     0.000 C
ATOM     80  O5  SGN C   5      19.465  13.107  44.7280  0.00  0.00     0.000 O
ATOM     81   O  SGN C   5      17.900  16.734  45.9640  0.00  0.00     0.000 O
ATOM     83  HD  SGN C   5      18.031  17.466  45.5180  0.00  0.00     0.000 HD
BRANCH 76 85
ATOM     83   N  SGN C   5      19.782  16.914  44.1330  0.00  0.00     0.000 N
ATOM     85  HD  SGN C   5      19.874  17.566  43.5710  0.00  0.00     0.000 HD
ATOM     85   S  SGN C   5      20.534  17.454  42.8150  0.00  0.00     0.000 S
ATOM     86   O  SGN C   5      20.683  18.867  42.8720  0.00  0.00     0.000 OA
ATOM     87   O  SGN C   5      21.717  16.685  42.6630  0.00  0.00     0.000 OA
ATOM     88   O  SGN C   5      19.435  17.069  41.8280  0.00  0.00     0.000 OA
ENDBRANCH 76 85
BRANCH 79 89
ATOM     89   C  SGN C   5      18.542  11.856  46.5640  0.00  0.00     0.000 C
ATOM     90   O  SGN C   5      17.131  11.798  46.2430  0.00  0.00     0.000 O
ATOM     91   S  SGN C   5      16.533  10.353  45.8810  0.00  0.00     0.000 S
ATOM     92   O  SGN C   5      17.374   9.812  44.8460  0.00  0.00     0.000 OA
ATOM     93   O  SGN C   5      16.569   9.566  47.0870  0.00  0.00     0.000 OA
ATOM     94   O  SGN C   5      15.198  10.650  45.4380  0.00  0.00     0.000 OA
ENDBRANCH 79 89
BRANCH 75 95
ATOM     95  O4  BDP C   6      21.301  14.401  45.1110  0.00  0.00     0.000 O
BRANCH 95 99
ATOM     96  C1  BDP C   6      25.209  12.624  44.9900  0.00  0.00     0.000 C
ATOM     97  C2  BDP C   6      24.628  13.175  43.7190  0.00  0.00     0.000 C
ATOM     98  C3  BDP C   6      23.428  14.113  43.9250  0.00  0.00     0.000 C
ATOM     99  C4  BDP C   6      22.406  13.502  44.8710  0.00  0.00     0.000 C
ATOM    100  C5  BDP C   6      23.153  13.019  46.1360  0.00  0.00     0.000 C
ATOM    101  O5  BDP C   6      24.083  12.049  45.6270  0.00  0.00     0.000 O
BRANCH 100 102
ATOM    102   C  BDP C   6      22.246  12.322  47.1180  0.00  0.00     0.000 C
ATOM    103   O  BDP C   6      21.703  12.920  48.0570  0.00  0.00     0.000 OA
ATOM    104   O  BDP C   6      22.052  11.114  46.9380  0.00  0.00     0.000 OA
ENDBRANCH 100 102
ENDBRANCH 95 99
ENDBRANCH 75 95
ENDBRANCH 74 78
ENDBRANCH 58 74
ENDBRANCH 57 61
ENDBRANCH 37 57
ENDBRANCH 36 40
ENDBRANCH 23 36
ENDBRANCH 22 26
ENDBRANCH 1 22
TORSDOF 20
ENDMDL
MODEL 73
REMARK VINA RESULT:      -3.9      6.087     10.330
ROOT
ATOM      1  C1  NGY C   1      16.381  15.771  49.4170  0.00  0.00     0.000 C
ATOM      2  C2  NGY C   1      17.003  14.601  50.1670  0.00  0.00     0.000 C
ATOM      3  C3  NGY C   1      16.416  14.502  51.5710  0.00  0.00     0.000 C
ATOM      4  C4  NGY C   1      16.595  15.842  52.2580  0.00  0.00     0.000 C
ATOM      5  C5  NGY C   1      15.858  16.908  51.4520  0.00  0.00     0.000 C
ATOM      6  O5  NGY C   1      16.465  16.983  50.1360  0.00  0.00     0.000 O
ATOM      7   O  NGY C   1      17.064  13.451  52.2750  0.00  0.00     0.000 O
ATOM      9  HD  NGY C   1      17.860  13.115  52.3260  0.00  0.00     0.000 HD
ATOM      9   O  NGY C   1      16.097  15.804  53.5870  0.00  0.00     0.000 O
ATOM     11  HD  NGY C   1      16.893  15.468  53.6390  0.00  0.00     0.000 HD
ENDROOT
BRANCH 2 13
ATOM     11   N  NGY C   1      16.854  13.485  49.2640  0.00  0.00     0.000 N
ATOM     13  HD  NGY C   1      17.582  13.057  49.4570  0.00  0.00     0.000 HD
ATOM     13   C  NGY C   1      17.767  12.517  49.1930  0.00  0.00     0.000 C
ATOM     14   O  NGY C   1      18.841  12.610  49.7890  0.00  0.00     0.000 OA
ATOM     15   C  NGY C   1      17.408  11.312  48.3790  0.00  0.00     0.000 C
ENDBRANCH 2 13
BRANCH 5 16
ATOM     16   C  NGY C   1      15.933  18.293  52.0110  0.00  0.00     0.000 C
ATOM     17   O  NGY C   1      13.400  19.749  54.2280  0.00  0.00     0.000 OA
ATOM     18   O  NGY C   1      14.690  18.601  52.6460  0.00  0.00     0.000 O
ATOM     19   S  NGY C   1      14.723  19.800  53.6600  0.00  0.00     0.000 S
ATOM     20   O  NGY C   1      14.945  20.999  52.8940  0.00  0.00     0.000 OA
ATOM     21   O  NGY C   1      15.812  19.482  54.5680  0.00  0.00     0.000 OA
ENDBRANCH 5 16
BRANCH 1 22
ATOM     22  O4  BDP C   2      15.112  15.449  49.0870  0.00  0.00     0.000 O
BRANCH 22 26
ATOM     23  C1  BDP C   2      11.850  15.682  46.5830  0.00  0.00     0.000 C
ATOM     24  C2  BDP C   2      13.067  15.000  46.0040  0.00  0.00     0.000 C
ATOM     25  C3  BDP C   2      14.030  14.658  47.1100  0.00  0.00     0.000 C
ATOM     26  C4  BDP C   2      14.339  15.898  47.9430  0.00  0.00     0.000 C
ATOM     27  C5  BDP C   2      13.043  16.601  48.3240  0.00  0.00     0.000 C
ATOM     28  O5  BDP C   2      12.237  16.956  47.1700  0.00  0.00     0.000 O
ATOM     29   O  BDP C   2      12.756  13.732  45.4250  0.00  0.00     0.000 O
ATOM     31  HD  BDP C   2      13.353  13.111  45.5100  0.00  0.00     0.000 HD
ATOM     31   O  BDP C   2      15.216  14.177  46.4910  0.00  0.00     0.000 O
ATOM     33  HD  BDP C   2      15.814  13.556  46.5760  0.00  0.00     0.000 HD
BRANCH 27 33
ATOM     33   C  BDP C   2      13.284  17.893  49.0680  0.00  0.00     0.000 C
ATOM     34   O  BDP C   2      14.136  18.731  48.6880  0.00  0.00     0.000 OA
ATOM     35   O  BDP C   2      12.649  18.102  50.0890  0.00  0.00     0.000 OA
ENDBRANCH 27 33
BRANCH 23 36
ATOM     36  O4  SGN C   3      10.848  15.923  45.7060  0.00  0.00     0.000 O
BRANCH 36 40
ATOM     37  C1  SGN C   3       6.723  16.525  45.4720  0.00  0.00     0.000 C
ATOM     38  C2  SGN C   3       7.635  17.747  45.2780  0.00  0.00     0.000 C
ATOM     39  C3  SGN C   3       9.056  17.305  44.9570  0.00  0.00     0.000 C
ATOM     40  C4  SGN C   3       9.544  16.391  46.0600  0.00  0.00     0.000 C
ATOM     41  C5  SGN C   3       8.578  15.234  46.1970  0.00  0.00     0.000 C
ATOM     42  O5  SGN C   3       7.268  15.730  46.5130  0.00  0.00     0.000 O
ATOM     43   O  SGN C   3       9.888  18.452  44.8410  0.00  0.00     0.000 O
ATOM     45  HD  SGN C   3      10.359  17.770  45.0930  0.00  0.00     0.000 HD
BRANCH 38 47
ATOM     45   N  SGN C   3       6.331  18.346  45.6130  0.00  0.00     0.000 N
ATOM     47  HD  SGN C   3       6.994  17.840  45.8480  0.00  0.00     0.000 HD
ATOM     47   S  SGN C   3       5.943  19.526  44.6220  0.00  0.00     0.000 S
ATOM     48   O  SGN C   3       6.824  20.631  44.7620  0.00  0.00     0.000 OA
ATOM     49   O  SGN C   3       5.840  18.950  43.3210  0.00  0.00     0.000 OA
ATOM     50   O  SGN C   3       4.636  19.929  45.1370  0.00  0.00     0.000 OA
ENDBRANCH 38 47
BRANCH 41 51
ATOM     51   C  SGN C   3       8.954  14.242  47.2640  0.00  0.00     0.000 C
ATOM     52   O  SGN C   3      10.613  10.940  46.7900  0.00  0.00     0.000 OA
ATOM     53   O  SGN C   3      10.815  12.502  48.5920  0.00  0.00     0.000 OA
ATOM     54   O  SGN C   3       8.723  11.406  48.1610  0.00  0.00     0.000 OA
ATOM     55   O  SGN C   3       9.607  13.147  46.6590  0.00  0.00     0.000 O
ATOM     56   S  SGN C   3       9.972  11.881  47.6440  0.00  0.00     0.000 S
ENDBRANCH 41 51
BRANCH 37 57
ATOM     57  O4  IDS C   4       6.581  15.744  44.3730  0.00  0.00     0.000 O
BRANCH 57 61
ATOM     58  C1  IDS C   4       4.559  14.087  41.6100  0.00  0.00     0.000 C
ATOM     59  C2  IDS C   4       4.366  15.549  41.8630  0.00  0.00     0.000 C
ATOM     60  C3  IDS C   4       4.364  15.895  43.3540  0.00  0.00     0.000 C
ATOM     61  C4  IDS C   4       5.304  15.091  44.2410  0.00  0.00     0.000 C
ATOM     62  C5  IDS C   4       5.471  13.665  43.7040  0.00  0.00     0.000 C
ATOM     63  O5  IDS C   4       5.716  13.654  42.3050  0.00  0.00     0.000 O
ATOM     64   O  IDS C   4       3.037  15.667  43.7880  0.00  0.00     0.000 O
ATOM     66  HD  IDS C   4       3.009  14.999  44.3390  0.00  0.00     0.000 HD
BRANCH 59 66
ATOM     66   O  IDS C   4       5.440  16.352  41.2480  0.00  0.00     0.000 O
ATOM     67   S  IDS C   4       5.029  17.250  40.0000  0.00  0.00     0.000 S
ATOM     68   O  IDS C   4       4.109  18.205  40.5710  0.00  0.00     0.000 OA
ATOM     69   O  IDS C   4       6.275  17.814  39.5200  0.00  0.00     0.000 OA
ATOM     70   O  IDS C   4       4.370  16.378  39.0410  0.00  0.00     0.000 OA
ENDBRANCH 59 66
BRANCH 62 71
ATOM     71   C  IDS C   4       6.639  12.926  44.3290  0.00  0.00     0.000 C
ATOM     72   O  IDS C   4       6.556  12.504  45.4660  0.00  0.00     0.000 OA
ATOM     73   O  IDS C   4       7.709  12.859  43.6910  0.00  0.00     0.000 OA
ENDBRANCH 62 71
BRANCH 58 74
ATOM     74  O4  SGN C   5       3.423  13.337  41.6740  0.00  0.00     0.000 O
BRANCH 74 78
ATOM     75  C1  SGN C   5       1.518   9.796  40.5450  0.00  0.00     0.000 C
ATOM     76  C2  SGN C   5       2.570   9.670  41.6630  0.00  0.00     0.000 C
ATOM     77  C3  SGN C   5       2.940  11.052  42.2180  0.00  0.00     0.000 C
ATOM     78  C4  SGN C   5       3.242  12.042  41.1010  0.00  0.00     0.000 C
ATOM     79  C5  SGN C   5       2.090  12.053  40.1070  0.00  0.00     0.000 C
ATOM     80  O5  SGN C   5       1.921  10.724  39.5470  0.00  0.00     0.000 O
ATOM     81   O  SGN C   5       4.062  10.917  43.0840  0.00  0.00     0.000 O
ATOM     83  HD  SGN C   5       4.157  10.229  43.6000  0.00  0.00     0.000 HD
BRANCH 76 85
ATOM     83   N  SGN C   5       2.814   8.241  41.8980  0.00  0.00     0.000 N
ATOM     85  HD  SGN C   5       2.545   7.433  42.0550  0.00  0.00     0.000 HD
ATOM     85   S  SGN C   5       2.105   7.241  42.9430  0.00  0.00     0.000 S
ATOM     86   O  SGN C   5       2.621   5.924  42.7990  0.00  0.00     0.000 OA
ATOM     87   O  SGN C   5       2.204   7.837  44.2270  0.00  0.00     0.000 OA
ATOM     88   O  SGN C   5       0.705   7.338  42.3410  0.00  0.00     0.000 OA
ENDBRANCH 76 85
BRANCH 79 89
ATOM     89   C  SGN C   5       2.287  13.029  38.9660  0.00  0.00     0.000 C
ATOM     90   O  SGN C   5       1.000  13.407  38.4170  0.00  0.00     0.000 O
ATOM     91   S  SGN C   5       0.883  14.889  37.8100  0.00  0.00     0.000 S
ATOM     92   O  SGN C   5       1.350  15.786  38.8340  0.00  0.00     0.000 OA
ATOM     93   O  SGN C   5       1.704  14.928  36.6270  0.00  0.00     0.000 OA
ATOM     94   O  SGN C   5      -0.521  15.020  37.5310  0.00  0.00     0.000 OA
ENDBRANCH 79 89
BRANCH 75 95
ATOM     95  O4  BDP C   6       0.380  10.243  41.1550  0.00  0.00     0.000 O
BRANCH 95 99
ATOM     96  C1  BDP C   6      -3.591   9.313  39.8080  0.00  0.00     0.000 C
ATOM     97  C2  BDP C   6      -2.424   8.694  39.0930  0.00  0.00     0.000 C
ATOM     98  C3  BDP C   6      -1.097   8.770  39.8630  0.00  0.00     0.000 C
ATOM     99  C4  BDP C   6      -0.840  10.176  40.3850  0.00  0.00     0.000 C
ATOM    100  C5  BDP C   6      -2.115  10.652  41.1200  0.00  0.00     0.000 C
ATOM    101  O5  BDP C   6      -3.125  10.617  40.1000  0.00  0.00     0.000 O
BRANCH 100 102
ATOM    102   C  BDP C   6      -2.004  12.072  41.6160  0.00  0.00     0.000 C
ATOM    103   O  BDP C   6      -0.913  12.599  41.8760  0.00  0.00     0.000 OA
ATOM    104   O  BDP C   6      -3.059  12.704  41.7430  0.00  0.00     0.000 OA
ENDBRANCH 100 102
ENDBRANCH 95 99
ENDBRANCH 75 95
ENDBRANCH 74 78
ENDBRANCH 58 74
ENDBRANCH 57 61
ENDBRANCH 37 57
ENDBRANCH 36 40
ENDBRANCH 23 36
ENDBRANCH 22 26
ENDBRANCH 1 22
TORSDOF 20
ENDMDL
MODEL 74
REMARK VINA RESULT:      -3.8     18.076     22.938
ROOT
ATOM      1  C1  NGY C   1      35.290   5.217  35.7650  0.00  0.00     0.000 C
ATOM      2  C2  NGY C   1      36.647   5.402  35.1010  0.00  0.00     0.000 C
ATOM      3  C3  NGY C   1      36.628   6.627  34.1930  0.00  0.00     0.000 C
ATOM      4  C4  NGY C   1      35.478   6.477  33.2160  0.00  0.00     0.000 C
ATOM      5  C5  NGY C   1      34.175   6.385  34.0050  0.00  0.00     0.000 C
ATOM      6  O5  NGY C   1      34.229   5.196  34.8340  0.00  0.00     0.000 O
ATOM      7   O  NGY C   1      37.880   6.737  33.5310  0.00  0.00     0.000 O
ATOM      9  HD  NGY C   1      38.472   6.201  33.1940  0.00  0.00     0.000 HD
ATOM      9   O  NGY C   1      35.428   7.576  32.3170  0.00  0.00     0.000 O
ATOM     11  HD  NGY C   1      36.020   7.040  31.9810  0.00  0.00     0.000 HD
ENDROOT
BRANCH 2 13
ATOM     11   N  NGY C   1      38.004   4.920  34.9940  0.00  0.00     0.000 N
ATOM     13  HD  NGY C   1      38.235   4.982  35.8260  0.00  0.00     0.000 HD
ATOM     13   C  NGY C   1      38.800   4.831  36.0580  0.00  0.00     0.000 C
ATOM     14   O  NGY C   1      38.458   5.290  37.1490  0.00  0.00     0.000 OA
ATOM     15   C  NGY C   1      40.107   4.125  35.8640  0.00  0.00     0.000 C
ENDBRANCH 2 13
BRANCH 5 16
ATOM     16   C  NGY C   1      32.939   6.243  33.1750  0.00  0.00     0.000 C
ATOM     17   O  NGY C   1      30.871   9.067  32.0750  0.00  0.00     0.000 OA
ATOM     18   O  NGY C   1      32.275   7.508  33.1180  0.00  0.00     0.000 O
ATOM     19   S  NGY C   1      31.230   7.676  31.9570  0.00  0.00     0.000 S
ATOM     20   O  NGY C   1      30.126   6.799  32.2470  0.00  0.00     0.000 OA
ATOM     21   O  NGY C   1      31.960   7.313  30.7530  0.00  0.00     0.000 OA
ENDBRANCH 5 16
BRANCH 1 22
ATOM     22  O4  BDP C   2      35.134   6.170  36.7080  0.00  0.00     0.000 O
BRANCH 22 26
ATOM     23  C1  BDP C   2      33.646   7.485  40.3170  0.00  0.00     0.000 C
ATOM     24  C2  BDP C   2      34.634   6.345  40.3980  0.00  0.00     0.000 C
ATOM     25  C3  BDP C   2      35.361   6.212  39.0850  0.00  0.00     0.000 C
ATOM     26  C4  BDP C   2      34.363   6.102  37.9370  0.00  0.00     0.000 C
ATOM     27  C5  BDP C   2      33.313   7.198  38.0580  0.00  0.00     0.000 C
ATOM     28  O5  BDP C   2      32.621   7.174  39.3320  0.00  0.00     0.000 O
ATOM     29   O  BDP C   2      35.679   6.596  41.3380  0.00  0.00     0.000 O
ATOM     31  HD  BDP C   2      36.465   6.296  41.1320  0.00  0.00     0.000 HD
ATOM     31   O  BDP C   2      36.147   5.029  39.1660  0.00  0.00     0.000 O
ATOM     33  HD  BDP C   2      36.933   4.730  38.9600  0.00  0.00     0.000 HD
BRANCH 27 33
ATOM     33   C  BDP C   2      32.237   7.086  37.0040  0.00  0.00     0.000 C
ATOM     34   O  BDP C   2      31.642   6.006  36.7730  0.00  0.00     0.000 OA
ATOM     35   O  BDP C   2      31.970   8.073  36.3400  0.00  0.00     0.000 OA
ENDBRANCH 27 33
BRANCH 23 36
ATOM     36  O4  SGN C   3      33.020   7.792  41.4770  0.00  0.00     0.000 O
BRANCH 36 40
ATOM     37  C1  SGN C   3      30.406  10.427  43.3880  0.00  0.00     0.000 C
ATOM     38  C2  SGN C   3      29.797   9.368  42.4550  0.00  0.00     0.000 C
ATOM     39  C3  SGN C   3      30.794   8.248  42.1980  0.00  0.00     0.000 C
ATOM     40  C4  SGN C   3      32.067   8.846  41.6390  0.00  0.00     0.000 C
ATOM     41  C5  SGN C   3      32.582   9.889  42.6070  0.00  0.00     0.000 C
ATOM     42  O5  SGN C   3      31.593  10.916  42.7840  0.00  0.00     0.000 O
ATOM     43   O  SGN C   3      30.227   7.315  41.2870  0.00  0.00     0.000 O
ATOM     45  HD  SGN C   3      31.090   7.305  41.2200  0.00  0.00     0.000 HD
BRANCH 38 47
ATOM     45   N  SGN C   3      28.758  10.374  42.7380  0.00  0.00     0.000 N
ATOM     47  HD  SGN C   3      29.567  10.200  42.4840  0.00  0.00     0.000 HD
ATOM     47   S  SGN C   3      27.313   9.723  42.8600  0.00  0.00     0.000 S
ATOM     48   O  SGN C   3      26.880   9.188  41.6190  0.00  0.00     0.000 OA
ATOM     49   O  SGN C   3      27.363   8.821  43.9640  0.00  0.00     0.000 OA
ATOM     50   O  SGN C   3      26.485  10.891  43.1560  0.00  0.00     0.000 OA
ENDBRANCH 38 47
BRANCH 41 51
ATOM     51   C  SGN C   3      33.854  10.561  42.1680  0.00  0.00     0.000 C
ATOM     52   O  SGN C   3      34.591  14.213  42.1650  0.00  0.00     0.000 OA
ATOM     53   O  SGN C   3      36.058  12.362  42.5620  0.00  0.00     0.000 OA
ATOM     54   O  SGN C   3      35.033  12.664  40.4110  0.00  0.00     0.000 OA
ATOM     55   O  SGN C   3      33.732  11.950  42.3770  0.00  0.00     0.000 O
ATOM     56   S  SGN C   3      34.970  12.883  41.8260  0.00  0.00     0.000 S
ENDBRANCH 41 51
BRANCH 37 57
ATOM     57  O4  IDS C   4      30.716   9.976  44.6290  0.00  0.00     0.000 O
BRANCH 57 61
ATOM     58  C1  IDS C   4      30.259  10.181  48.4000  0.00  0.00     0.000 C
ATOM     59  C2  IDS C   4      29.075  10.427  47.5180  0.00  0.00     0.000 C
ATOM     60  C3  IDS C   4      29.425  11.244  46.2720  0.00  0.00     0.000 C
ATOM     61  C4  IDS C   4      30.791  10.988  45.6510  0.00  0.00     0.000 C
ATOM     62  C5  IDS C   4      31.814  10.605  46.7270  0.00  0.00     0.000 C
ATOM     63  O5  IDS C   4      31.301   9.624  47.6170  0.00  0.00     0.000 O
ATOM     64   O  IDS C   4      29.371  12.597  46.6870  0.00  0.00     0.000 O
ATOM     66  HD  IDS C   4      30.160  12.952  46.6680  0.00  0.00     0.000 HD
BRANCH 59 66
ATOM     66   O  IDS C   4      28.486   9.163  47.0370  0.00  0.00     0.000 O
ATOM     67   S  IDS C   4      27.063   8.771  47.6330  0.00  0.00     0.000 S
ATOM     68   O  IDS C   4      26.199   9.815  47.1350  0.00  0.00     0.000 OA
ATOM     69   O  IDS C   4      26.789   7.449  47.1050  0.00  0.00     0.000 OA
ATOM     70   O  IDS C   4      27.177   8.814  49.0820  0.00  0.00     0.000 OA
ENDBRANCH 59 66
BRANCH 62 71
ATOM     71   C  IDS C   4      33.087  10.011  46.1530  0.00  0.00     0.000 C
ATOM     72   O  IDS C   4      33.317   8.824  46.2810  0.00  0.00     0.000 OA
ATOM     73   O  IDS C   4      33.926  10.782  45.6470  0.00  0.00     0.000 OA
ENDBRANCH 62 71
BRANCH 58 74
ATOM     74  O4  SGN C   5      30.546  11.189  49.2710  0.00  0.00     0.000 O
BRANCH 74 78
ATOM     75  C1  SGN C   5      32.593  12.302  52.7380  0.00  0.00     0.000 C
ATOM     76  C2  SGN C   5      33.414  12.314  51.4350  0.00  0.00     0.000 C
ATOM     77  C3  SGN C   5      32.492  12.227  50.2110  0.00  0.00     0.000 C
ATOM     78  C4  SGN C   5      31.464  11.115  50.3620  0.00  0.00     0.000 C
ATOM     79  C5  SGN C   5      30.734  11.275  51.6880  0.00  0.00     0.000 C
ATOM     80  O5  SGN C   5      31.689  11.205  52.7790  0.00  0.00     0.000 O
ATOM     81   O  SGN C   5      33.287  12.019  49.0480  0.00  0.00     0.000 O
ATOM     83  HD  SGN C   5      34.061  12.396  48.9530  0.00  0.00     0.000 HD
BRANCH 76 85
ATOM     83   N  SGN C   5      34.441  12.901  52.3040  0.00  0.00     0.000 N
ATOM     85  HD  SGN C   5      34.954  13.554  52.5530  0.00  0.00     0.000 HD
ATOM     85   S  SGN C   5      35.681  13.857  51.9220  0.00  0.00     0.000 S
ATOM     86   O  SGN C   5      36.399  14.230  53.0910  0.00  0.00     0.000 OA
ATOM     87   O  SGN C   5      36.411  13.204  50.8950  0.00  0.00     0.000 OA
ATOM     88   O  SGN C   5      34.839  15.024  51.4130  0.00  0.00     0.000 OA
ENDBRANCH 76 85
BRANCH 79 89
ATOM     89   C  SGN C   5      29.668  10.224  51.9210  0.00  0.00     0.000 C
ATOM     90   O  SGN C   5      30.222   8.905  51.6920  0.00  0.00     0.000 O
ATOM     91   S  SGN C   5      29.610   7.705  52.5660  0.00  0.00     0.000 S
ATOM     92   O  SGN C   5      29.687   8.124  53.9410  0.00  0.00     0.000 OA
ATOM     93   O  SGN C   5      28.253   7.509  52.1250  0.00  0.00     0.000 OA
ATOM     94   O  SGN C   5      30.473   6.598  52.2550  0.00  0.00     0.000 OA
ENDBRANCH 79 89
BRANCH 75 95
ATOM     95  O4  BDP C   6      31.892  13.475  52.7460  0.00  0.00     0.000 O
BRANCH 95 99
ATOM     96  C1  BDP C   6      30.560  15.980  55.9700  0.00  0.00     0.000 C
ATOM     97  C2  BDP C   6      31.945  15.400  56.0320  0.00  0.00     0.000 C
ATOM     98  C3  BDP C   6      32.462  14.852  54.6940  0.00  0.00     0.000 C
ATOM     99  C4  BDP C   6      31.432  13.950  54.0300  0.00  0.00     0.000 C
ATOM    100  C5  BDP C   6      30.080  14.701  54.0130  0.00  0.00     0.000 C
ATOM    101  O5  BDP C   6      29.803  14.926  55.4050  0.00  0.00     0.000 O
BRANCH 100 102
ATOM    102   C  BDP C   6      28.959  13.868  53.4440  0.00  0.00     0.000 C
ATOM    103   O  BDP C   6      28.505  14.058  52.3070  0.00  0.00     0.000 OA
ATOM    104   O  BDP C   6      28.513  12.967  54.1640  0.00  0.00     0.000 OA
ENDBRANCH 100 102
ENDBRANCH 95 99
ENDBRANCH 75 95
ENDBRANCH 74 78
ENDBRANCH 58 74
ENDBRANCH 57 61
ENDBRANCH 37 57
ENDBRANCH 36 40
ENDBRANCH 23 36
ENDBRANCH 22 26
ENDBRANCH 1 22
TORSDOF 20
ENDMDL
MODEL 75
REMARK VINA RESULT:      -3.8     16.003     21.226
ROOT
ATOM      1  C1  NGY C   1      31.987   4.655  35.3010  0.00  0.00     0.000 C
ATOM      2  C2  NGY C   1      33.332   4.245  34.7170  0.00  0.00     0.000 C
ATOM      3  C3  NGY C   1      33.973   5.421  33.9890  0.00  0.00     0.000 C
ATOM      4  C4  NGY C   1      32.986   5.941  32.9610  0.00  0.00     0.000 C
ATOM      5  C5  NGY C   1      31.720   6.393  33.6840  0.00  0.00     0.000 C
ATOM      6  O5  NGY C   1      31.134   5.239  34.3400  0.00  0.00     0.000 O
ATOM      7   O  NGY C   1      35.189   4.994  33.3920  0.00  0.00     0.000 O
ATOM      9  HD  NGY C   1      35.493   4.282  33.0050  0.00  0.00     0.000 HD
ATOM      9   O  NGY C   1      33.540   7.021  32.2240  0.00  0.00     0.000 O
ATOM     11  HD  NGY C   1      33.844   6.308  31.8370  0.00  0.00     0.000 HD
ENDROOT
BRANCH 2 13
ATOM     11   N  NGY C   1      34.419   3.875  35.5920  0.00  0.00     0.000 N
ATOM     13  HD  NGY C   1      34.463   3.031  35.4020  0.00  0.00     0.000 HD
ATOM     13   C  NGY C   1      34.867   2.622  35.6580  0.00  0.00     0.000 C
ATOM     14   O  NGY C   1      34.280   1.704  35.0820  0.00  0.00     0.000 OA
ATOM     15   C  NGY C   1      36.127   2.398  36.4380  0.00  0.00     0.000 C
ENDBRANCH 2 13
BRANCH 5 16
ATOM     16   C  NGY C   1      30.647   6.944  32.8000  0.00  0.00     0.000 C
ATOM     17   O  NGY C   1      30.394  10.476  31.8390  0.00  0.00     0.000 OA
ATOM     18   O  NGY C   1      30.727   8.372  32.8140  0.00  0.00     0.000 O
ATOM     19   S  NGY C   1      30.000   9.105  31.6300  0.00  0.00     0.000 S
ATOM     20   O  NGY C   1      28.586   8.908  31.8120  0.00  0.00     0.000 OA
ATOM     21   O  NGY C   1      30.525   8.474  30.4300  0.00  0.00     0.000 OA
ENDBRANCH 5 16
BRANCH 1 22
ATOM     22  O4  BDP C   2      32.203   5.461  36.3620  0.00  0.00     0.000 O
BRANCH 22 26
ATOM     23  C1  BDP C   2      30.976   7.192  39.8930  0.00  0.00     0.000 C
ATOM     24  C2  BDP C   2      30.951   5.682  39.8660  0.00  0.00     0.000 C
ATOM     25  C3  BDP C   2      31.750   5.183  38.6910  0.00  0.00     0.000 C
ATOM     26  C4  BDP C   2      31.267   5.844  37.4050  0.00  0.00     0.000 C
ATOM     27  C5  BDP C   2      31.165   7.351  37.6040  0.00  0.00     0.000 C
ATOM     28  O5  BDP C   2      30.302   7.712  38.7130  0.00  0.00     0.000 O
ATOM     29   O  BDP C   2      31.613   5.106  40.9920  0.00  0.00     0.000 O
ATOM     31  HD  BDP C   2      32.051   4.372  40.8510  0.00  0.00     0.000 HD
ATOM     31   O  BDP C   2      31.551   3.777  38.6220  0.00  0.00     0.000 O
ATOM     33  HD  BDP C   2      31.989   3.043  38.4810  0.00  0.00     0.000 HD
BRANCH 27 33
ATOM     33   C  BDP C   2      30.598   8.057  36.3960  0.00  0.00     0.000 C
ATOM     34   O  BDP C   2      31.190   9.017  35.8470  0.00  0.00     0.000 OA
ATOM     35   O  BDP C   2      29.513   7.696  35.9690  0.00  0.00     0.000 OA
ENDBRANCH 27 33
BRANCH 23 36
ATOM     36  O4  SGN C   3      30.401   7.762  40.9770  0.00  0.00     0.000 O
BRANCH 36 40
ATOM     37  C1  SGN C   3      29.512  11.341  42.9320  0.00  0.00     0.000 C
ATOM     38  C2  SGN C   3      28.722  11.010  41.6560  0.00  0.00     0.000 C
ATOM     39  C3  SGN C   3      28.840   9.529  41.3270  0.00  0.00     0.000 C
ATOM     40  C4  SGN C   3      30.306   9.170  41.2090  0.00  0.00     0.000 C
ATOM     41  C5  SGN C   3      31.006   9.550  42.4950  0.00  0.00     0.000 C
ATOM     42  O5  SGN C   3      30.863  10.960  42.7260  0.00  0.00     0.000 O
ATOM     43   O  SGN C   3      28.151   9.262  40.1120  0.00  0.00     0.000 O
ATOM     45  HD  SGN C   3      28.790   8.688  40.2200  0.00  0.00     0.000 HD
BRANCH 38 47
ATOM     45   N  SGN C   3      27.939  11.909  40.7890  0.00  0.00     0.000 N
ATOM     47  HD  SGN C   3      28.429  11.199  40.8660  0.00  0.00     0.000 HD
ATOM     47   S  SGN C   3      27.014  12.891  41.6290  0.00  0.00     0.000 S
ATOM     48   O  SGN C   3      25.996  12.181  42.3190  0.00  0.00     0.000 OA
ATOM     49   O  SGN C   3      27.885  13.695  42.4220  0.00  0.00     0.000 OA
ATOM     50   O  SGN C   3      26.374  13.673  40.5720  0.00  0.00     0.000 OA
ENDBRANCH 38 47
BRANCH 41 51
ATOM     51   C  SGN C   3      32.478   9.239  42.5090  0.00  0.00     0.000 C
ATOM     52   O  SGN C   3      35.281  11.558  41.7070  0.00  0.00     0.000 OA
ATOM     53   O  SGN C   3      35.192   9.766  43.2920  0.00  0.00     0.000 OA
ATOM     54   O  SGN C   3      35.013   9.320  40.9390  0.00  0.00     0.000 OA
ATOM     55   O  SGN C   3      33.195  10.412  42.1920  0.00  0.00     0.000 O
ATOM     56   S  SGN C   3      34.822  10.246  42.0150  0.00  0.00     0.000 S
ENDBRANCH 41 51
BRANCH 37 57
ATOM     57  O4  IDS C   4      29.063  10.723  44.0520  0.00  0.00     0.000 O
BRANCH 57 61
ATOM     58  C1  IDS C   4      27.463  10.710  47.5030  0.00  0.00     0.000 C
ATOM     59  C2  IDS C   4      26.824  11.517  46.4180  0.00  0.00     0.000 C
ATOM     60  C3  IDS C   4      27.846  12.237  45.5360  0.00  0.00     0.000 C
ATOM     61  C4  IDS C   4      29.149  11.499  45.2620  0.00  0.00     0.000 C
ATOM     62  C5  IDS C   4      29.534  10.615  46.4540  0.00  0.00     0.000 C
ATOM     63  O5  IDS C   4      28.431   9.852  46.9220  0.00  0.00     0.000 O
ATOM     64   O  IDS C   4      28.150  13.438  46.2210  0.00  0.00     0.000 O
ATOM     66  HD  IDS C   4      28.970  13.430  46.4980  0.00  0.00     0.000 HD
BRANCH 59 66
ATOM     66   O  IDS C   4      26.016  10.673  45.5180  0.00  0.00     0.000 O
ATOM     67   S  IDS C   4      24.442  10.908  45.5460  0.00  0.00     0.000 S
ATOM     68   O  IDS C   4      24.301  12.253  45.0440  0.00  0.00     0.000 OA
ATOM     69   O  IDS C   4      23.895   9.875  44.6880  0.00  0.00     0.000 OA
ATOM     70   O  IDS C   4      24.016  10.806  46.9330  0.00  0.00     0.000 OA
ENDBRANCH 59 66
BRANCH 62 71
ATOM     71   C  IDS C   4      30.616   9.606  46.1220  0.00  0.00     0.000 C
ATOM     72   O  IDS C   4      30.329   8.438  45.9470  0.00  0.00     0.000 OA
ATOM     73   O  IDS C   4      31.805   9.984  46.1360  0.00  0.00     0.000 OA
ENDBRANCH 62 71
BRANCH 58 74
ATOM     74  O4  SGN C   5      27.783  11.410  48.6290  0.00  0.00     0.000 O
BRANCH 74 78
ATOM     75  C1  SGN C   5      28.263  10.920  52.7490  0.00  0.00     0.000 C
ATOM     76  C2  SGN C   5      28.375   9.641  51.8980  0.00  0.00     0.000 C
ATOM     77  C3  SGN C   5      28.525   9.989  50.4120  0.00  0.00     0.000 C
ATOM     78  C4  SGN C   5      27.492  11.016  49.9690  0.00  0.00     0.000 C
ATOM     79  C5  SGN C   5      27.538  12.217  50.9020  0.00  0.00     0.000 C
ATOM     80  O5  SGN C   5      27.248  11.788  52.2590  0.00  0.00     0.000 O
ATOM     81   O  SGN C   5      28.405   8.796  49.6440  0.00  0.00     0.000 O
ATOM     83  HD  SGN C   5      28.725   8.041  49.9230  0.00  0.00     0.000 HD
BRANCH 76 85
ATOM     83   N  SGN C   5      29.453   9.170  52.7770  0.00  0.00     0.000 N
ATOM     85  HD  SGN C   5      30.015   8.569  53.0480  0.00  0.00     0.000 HD
ATOM     85   S  SGN C   5      29.648   7.732  53.4760  0.00  0.00     0.000 S
ATOM     86   O  SGN C   5      30.865   7.698  54.2110  0.00  0.00     0.000 OA
ATOM     87   O  SGN C   5      28.455   7.447  54.1890  0.00  0.00     0.000 OA
ATOM     88   O  SGN C   5      29.780   6.935  52.1810  0.00  0.00     0.000 OA
ENDBRANCH 76 85
BRANCH 79 89
ATOM     89   C  SGN C   5      26.558  13.310  50.5280  0.00  0.00     0.000 C
ATOM     90   O  SGN C   5      27.223  14.307  49.7150  0.00  0.00     0.000 O
ATOM     91   S  SGN C   5      26.323  15.063  48.6220  0.00  0.00     0.000 S
ATOM     92   O  SGN C   5      25.678  14.035  47.8460  0.00  0.00     0.000 OA
ATOM     93   O  SGN C   5      25.382  15.882  49.3410  0.00  0.00     0.000 OA
ATOM     94   O  SGN C   5      27.285  15.826  47.8730  0.00  0.00     0.000 OA
ENDBRANCH 79 89
BRANCH 75 95
ATOM     95  O4  BDP C   6      29.478  11.537  52.6560  0.00  0.00     0.000 O
BRANCH 95 99
ATOM     96  C1  BDP C   6      31.601  14.091  55.3790  0.00  0.00     0.000 C
ATOM     97  C2  BDP C   6      30.911  12.872  55.9230  0.00  0.00     0.000 C
ATOM     98  C3  BDP C   6      30.518  11.838  54.8570  0.00  0.00     0.000 C
ATOM     99  C4  BDP C   6      29.803  12.495  53.6860  0.00  0.00     0.000 C
ATOM    100  C5  BDP C   6      30.653  13.702  53.2230  0.00  0.00     0.000 C
ATOM    101  O5  BDP C   6      30.701  14.545  54.3860  0.00  0.00     0.000 O
BRANCH 100 102
ATOM    102   C  BDP C   6      29.999  14.482  52.1110  0.00  0.00     0.000 C
ATOM    103   O  BDP C   6      29.077  15.283  52.3180  0.00  0.00     0.000 OA
ATOM    104   O  BDP C   6      30.435  14.297  50.9680  0.00  0.00     0.000 OA
ENDBRANCH 100 102
ENDBRANCH 95 99
ENDBRANCH 75 95
ENDBRANCH 74 78
ENDBRANCH 58 74
ENDBRANCH 57 61
ENDBRANCH 37 57
ENDBRANCH 36 40
ENDBRANCH 23 36
ENDBRANCH 22 26
ENDBRANCH 1 22
TORSDOF 20
ENDMDL
MODEL 76
REMARK VINA RESULT:      -3.7     18.355     22.942
ROOT
ATOM      1  C1  NGY C   1      32.849   4.996  35.0780  0.00  0.00     0.000 C
ATOM      2  C2  NGY C   1      34.125   4.285  34.6520  0.00  0.00     0.000 C
ATOM      3  C3  NGY C   1      35.237   5.298  34.4030  0.00  0.00     0.000 C
ATOM      4  C4  NGY C   1      34.735   6.319  33.4000  0.00  0.00     0.000 C
ATOM      5  C5  NGY C   1      33.507   7.015  33.9830  0.00  0.00     0.000 C
ATOM      6  O5  NGY C   1      32.471   6.018  34.1800  0.00  0.00     0.000 O
ATOM      7   O  NGY C   1      36.394   4.618  33.9380  0.00  0.00     0.000 O
ATOM      9  HD  NGY C   1      36.573   3.940  33.4290  0.00  0.00     0.000 HD
ATOM      9   O  NGY C   1      35.741   7.275  33.1000  0.00  0.00     0.000 O
ATOM     11  HD  NGY C   1      35.920   6.598  32.5920  0.00  0.00     0.000 HD
ENDROOT
BRANCH 2 13
ATOM     11   N  NGY C   1      34.546   2.930  34.3820  0.00  0.00     0.000 N
ATOM     13  HD  NGY C   1      34.655   2.658  35.1970  0.00  0.00     0.000 HD
ATOM     13   C  NGY C   1      34.845   2.083  35.3660  0.00  0.00     0.000 C
ATOM     14   O  NGY C   1      34.912   2.464  36.5360  0.00  0.00     0.000 OA
ATOM     15   C  NGY C   1      35.064   0.652  34.9790  0.00  0.00     0.000 C
ENDBRANCH 2 13
BRANCH 5 16
ATOM     16   C  NGY C   1      32.898   8.064  33.1090  0.00  0.00     0.000 C
ATOM     17   O  NGY C   1      30.092   7.454  30.8260  0.00  0.00     0.000 OA
ATOM     18   O  NGY C   1      31.986   7.436  32.2040  0.00  0.00     0.000 O
ATOM     19   S  NGY C   1      30.934   8.388  31.5280  0.00  0.00     0.000 S
ATOM     20   O  NGY C   1      31.658   9.253  30.6340  0.00  0.00     0.000 OA
ATOM     21   O  NGY C   1      30.310   9.091  32.6370  0.00  0.00     0.000 OA
ENDBRANCH 5 16
BRANCH 1 22
ATOM     22  O4  BDP C   2      33.003   5.446  36.3410  0.00  0.00     0.000 O
BRANCH 22 26
ATOM     23  C1  BDP C   2      31.452   6.799  39.9090  0.00  0.00     0.000 C
ATOM     24  C2  BDP C   2      31.453   5.300  39.7280  0.00  0.00     0.000 C
ATOM     25  C3  BDP C   2      32.358   4.930  38.5820  0.00  0.00     0.000 C
ATOM     26  C4  BDP C   2      31.976   5.715  37.3320  0.00  0.00     0.000 C
ATOM     27  C5  BDP C   2      31.833   7.193  37.6730  0.00  0.00     0.000 C
ATOM     28  O5  BDP C   2      30.872   7.433  38.7330  0.00  0.00     0.000 O
ATOM     29   O  BDP C   2      32.026   4.618  40.8430  0.00  0.00     0.000 O
ATOM     31  HD  BDP C   2      32.485   3.905  40.6670  0.00  0.00     0.000 HD
ATOM     31   O  BDP C   2      32.188   3.536  38.3540  0.00  0.00     0.000 O
ATOM     33  HD  BDP C   2      32.647   2.824  38.1780  0.00  0.00     0.000 HD
BRANCH 27 33
ATOM     33   C  BDP C   2      31.360   8.014  36.4970  0.00  0.00     0.000 C
ATOM     34   O  BDP C   2      30.397   7.654  35.7790  0.00  0.00     0.000 OA
ATOM     35   O  BDP C   2      31.962   9.040  36.2260  0.00  0.00     0.000 OA
ENDBRANCH 27 33
BRANCH 23 36
ATOM     36  O4  SGN C   3      30.777   7.252  40.9910  0.00  0.00     0.000 O
BRANCH 36 40
ATOM     37  C1  SGN C   3      30.382  10.661  43.3690  0.00  0.00     0.000 C
ATOM     38  C2  SGN C   3      29.158  10.213  42.5540  0.00  0.00     0.000 C
ATOM     39  C3  SGN C   3      29.315   8.766  42.1100  0.00  0.00     0.000 C
ATOM     40  C4  SGN C   3      30.607   8.630  41.3340  0.00  0.00     0.000 C
ATOM     41  C5  SGN C   3      31.749   9.113  42.2000  0.00  0.00     0.000 C
ATOM     42  O5  SGN C   3      31.536  10.486  42.5630  0.00  0.00     0.000 O
ATOM     43   O  SGN C   3      28.198   8.397  41.3100  0.00  0.00     0.000 O
ATOM     45  HD  SGN C   3      28.890   7.926  41.0860  0.00  0.00     0.000 HD
BRANCH 38 47
ATOM     45   N  SGN C   3      28.923  11.551  43.1250  0.00  0.00     0.000 N
ATOM     47  HD  SGN C   3      29.459  11.004  42.7210  0.00  0.00     0.000 HD
ATOM     47   S  SGN C   3      27.382  11.817  43.4080  0.00  0.00     0.000 S
ATOM     48   O  SGN C   3      26.636  11.873  42.2010  0.00  0.00     0.000 OA
ATOM     49   O  SGN C   3      26.970  10.849  44.3710  0.00  0.00     0.000 OA
ATOM     50   O  SGN C   3      27.412  13.164  43.9760  0.00  0.00     0.000 OA
ENDBRANCH 38 47
BRANCH 41 51
ATOM     51   C  SGN C   3      33.100   9.025  41.5420  0.00  0.00     0.000 C
ATOM     52   O  SGN C   3      35.837  11.549  41.6680  0.00  0.00     0.000 OA
ATOM     53   O  SGN C   3      35.969   9.161  41.5740  0.00  0.00     0.000 OA
ATOM     54   O  SGN C   3      35.039  10.401  39.7400  0.00  0.00     0.000 OA
ATOM     55   O  SGN C   3      33.848  10.170  41.8850  0.00  0.00     0.000 O
ATOM     56   S  SGN C   3      35.310  10.335  41.1460  0.00  0.00     0.000 S
ENDBRANCH 41 51
BRANCH 37 57
ATOM     57  O4  IDS C   4      30.568   9.983  44.5280  0.00  0.00     0.000 O
BRANCH 57 61
ATOM     58  C1  IDS C   4      30.699   9.545  48.3050  0.00  0.00     0.000 C
ATOM     59  C2  IDS C   4      29.413   9.979  47.6760  0.00  0.00     0.000 C
ATOM     60  C3  IDS C   4      29.619  10.989  46.5440  0.00  0.00     0.000 C
ATOM     61  C4  IDS C   4      30.858  10.799  45.6800  0.00  0.00     0.000 C
ATOM     62  C5  IDS C   4      32.007  10.201  46.5000  0.00  0.00     0.000 C
ATOM     63  O5  IDS C   4      31.576   9.098  47.2840  0.00  0.00     0.000 O
ATOM     64   O  IDS C   4      29.709  12.250  47.1810  0.00  0.00     0.000 O
ATOM     66  HD  IDS C   4      30.507  12.576  47.0960  0.00  0.00     0.000 HD
BRANCH 59 66
ATOM     66   O  IDS C   4      28.682   8.839  47.0920  0.00  0.00     0.000 O
ATOM     67   S  IDS C   4      27.228   8.555  47.6720  0.00  0.00     0.000 S
ATOM     68   O  IDS C   4      26.484   9.730  47.2850  0.00  0.00     0.000 OA
ATOM     69   O  IDS C   4      26.804   7.325  47.0310  0.00  0.00     0.000 OA
ATOM     70   O  IDS C   4      27.354   8.451  49.1170  0.00  0.00     0.000 OA
ENDBRANCH 59 66
BRANCH 62 71
ATOM     71   C  IDS C   4      33.140   9.673  45.6400  0.00  0.00     0.000 C
ATOM     72   O  IDS C   4      33.402   8.486  45.6390  0.00  0.00     0.000 OA
ATOM     73   O  IDS C   4      33.850  10.493  45.0260  0.00  0.00     0.000 OA
ENDBRANCH 62 71
BRANCH 58 74
ATOM     74  O4  SGN C   5      31.175  10.376  49.2750  0.00  0.00     0.000 O
BRANCH 74 78
ATOM     75  C1  SGN C   5      33.018  10.667  53.0120  0.00  0.00     0.000 C
ATOM     76  C2  SGN C   5      33.944  10.337  51.8260  0.00  0.00     0.000 C
ATOM     77  C3  SGN C   5      33.229  10.594  50.4920  0.00  0.00     0.000 C
ATOM     78  C4  SGN C   5      31.841   9.970  50.4710  0.00  0.00     0.000 C
ATOM     79  C5  SGN C   5      31.062  10.423  51.6970  0.00  0.00     0.000 C
ATOM     80  O5  SGN C   5      31.764  10.007  52.8980  0.00  0.00     0.000 O
ATOM     81   O  SGN C   5      34.027  10.074  49.4330  0.00  0.00     0.000 O
ATOM     83  HD  SGN C   5      34.892  10.120  49.4510  0.00  0.00     0.000 HD
BRANCH 76 85
ATOM     83   N  SGN C   5      35.075  10.238  52.7570  0.00  0.00     0.000 N
ATOM     85  HD  SGN C   5      35.747  10.577  53.1860  0.00  0.00     0.000 HD
ATOM     85   S  SGN C   5      36.545  10.889  52.6520  0.00  0.00     0.000 S
ATOM     86   O  SGN C   5      37.312  10.570  53.8060  0.00  0.00     0.000 OA
ATOM     87   O  SGN C   5      37.082  10.511  51.3950  0.00  0.00     0.000 OA
ATOM     88   O  SGN C   5      36.086  12.344  52.6980  0.00  0.00     0.000 OA
ENDBRANCH 76 85
BRANCH 79 89
ATOM     89   C  SGN C   5      29.652   9.872  51.7540  0.00  0.00     0.000 C
ATOM     90   O  SGN C   5      28.848  10.676  52.6520  0.00  0.00     0.000 O
ATOM     91   S  SGN C   5      27.285  10.798  52.3070  0.00  0.00     0.000 S
ATOM     92   O  SGN C   5      27.204  11.226  50.9350  0.00  0.00     0.000 OA
ATOM     93   O  SGN C   5      26.703   9.496  52.5130  0.00  0.00     0.000 OA
ATOM     94   O  SGN C   5      26.816  11.784  53.2420  0.00  0.00     0.000 OA
ENDBRANCH 79 89
BRANCH 75 95
ATOM     95  O4  BDP C   6      32.830  12.020  52.9720  0.00  0.00     0.000 O
BRANCH 95 99
ATOM     96  C1  BDP C   6      32.295  14.737  56.2550  0.00  0.00     0.000 C
ATOM     97  C2  BDP C   6      32.973  13.420  56.5110  0.00  0.00     0.000 C
ATOM     98  C3  BDP C   6      33.457  12.700  55.2430  0.00  0.00     0.000 C
ATOM     99  C4  BDP C   6      32.365  12.649  54.1850  0.00  0.00     0.000 C
ATOM    100  C5  BDP C   6      31.797  14.078  54.0150  0.00  0.00     0.000 C
ATOM    101  O5  BDP C   6      31.288  14.395  55.3210  0.00  0.00     0.000 O
BRANCH 100 102
ATOM    102   C  BDP C   6      30.648  14.135  53.0420  0.00  0.00     0.000 C
ATOM    103   O  BDP C   6      29.483  13.872  53.3760  0.00  0.00     0.000 OA
ATOM    104   O  BDP C   6      30.914  14.472  51.8820  0.00  0.00     0.000 OA
ENDBRANCH 100 102
ENDBRANCH 95 99
ENDBRANCH 75 95
ENDBRANCH 74 78
ENDBRANCH 58 74
ENDBRANCH 57 61
ENDBRANCH 37 57
ENDBRANCH 36 40
ENDBRANCH 23 36
ENDBRANCH 22 26
ENDBRANCH 1 22
TORSDOF 20
ENDMDL
MODEL 77
REMARK VINA RESULT:      -3.5     15.272     20.089
ROOT
ATOM      1  C1  NGY C   1      31.464   8.534  39.3930  0.00  0.00     0.000 C
ATOM      2  C2  NGY C   1      30.429   8.008  38.4090  0.00  0.00     0.000 C
ATOM      3  C3  NGY C   1      30.360   6.485  38.4770  0.00  0.00     0.000 C
ATOM      4  C4  NGY C   1      31.757   5.936  38.2590  0.00  0.00     0.000 C
ATOM      5  C5  NGY C   1      32.672   6.473  39.3560  0.00  0.00     0.000 C
ATOM      6  O5  NGY C   1      32.725   7.918  39.2360  0.00  0.00     0.000 O
ATOM      7   O  NGY C   1      29.442   6.015  37.5010  0.00  0.00     0.000 O
ATOM      9  HD  NGY C   1      29.204   6.227  36.6960  0.00  0.00     0.000 HD
ATOM      9   O  NGY C   1      31.753   4.515  38.2780  0.00  0.00     0.000 O
ATOM     11  HD  NGY C   1      31.515   4.727  37.4730  0.00  0.00     0.000 HD
ENDROOT
BRANCH 2 13
ATOM     11   N  NGY C   1      29.521   9.129  38.4400  0.00  0.00     0.000 N
ATOM     13  HD  NGY C   1      28.909   8.822  37.9090  0.00  0.00     0.000 HD
ATOM     13   C  NGY C   1      28.384   9.127  37.7440  0.00  0.00     0.000 C
ATOM     14   O  NGY C   1      28.133   8.231  36.9370  0.00  0.00     0.000 OA
ATOM     15   C  NGY C   1      27.427  10.248  38.0160  0.00  0.00     0.000 C
ENDBRANCH 2 13
BRANCH 5 16
ATOM     16   C  NGY C   1      34.091   6.009  39.2820  0.00  0.00     0.000 C
ATOM     17   O  NGY C   1      36.983   8.129  40.0600  0.00  0.00     0.000 OA
ATOM     18   O  NGY C   1      34.953   7.140  39.4360  0.00  0.00     0.000 O
ATOM     19   S  NGY C   1      36.438   6.814  39.8320  0.00  0.00     0.000 S
ATOM     20   O  NGY C   1      37.045   6.158  38.7030  0.00  0.00     0.000 OA
ATOM     21   O  NGY C   1      36.327   5.965  41.0060  0.00  0.00     0.000 OA
ENDBRANCH 5 16
BRANCH 1 22
ATOM     22  O4  BDP C   2      30.977   8.407  40.6450  0.00  0.00     0.000 O
BRANCH 22 26
ATOM     23  C1  BDP C   2      30.719   9.617  44.5740  0.00  0.00     0.000 C
ATOM     24  C2  BDP C   2      30.135  10.572  43.5600  0.00  0.00     0.000 C
ATOM     25  C3  BDP C   2      29.962   9.866  42.2410  0.00  0.00     0.000 C
ATOM     26  C4  BDP C   2      31.274   9.217  41.8130  0.00  0.00     0.000 C
ATOM     27  C5  BDP C   2      31.859   8.421  42.9720  0.00  0.00     0.000 C
ATOM     28  O5  BDP C   2      32.059   9.227  44.1620  0.00  0.00     0.000 O
ATOM     29   O  BDP C   2      28.810  10.982  43.8980  0.00  0.00     0.000 O
ATOM     31  HD  BDP C   2      28.260  11.099  43.2390  0.00  0.00     0.000 HD
ATOM     31   O  BDP C   2      29.571  10.851  41.2920  0.00  0.00     0.000 O
ATOM     33  HD  BDP C   2      29.022  10.968  40.6330  0.00  0.00     0.000 HD
BRANCH 27 33
ATOM     33   C  BDP C   2      33.211   7.832  42.6440  0.00  0.00     0.000 C
ATOM     34   O  BDP C   2      34.158   8.536  42.2210  0.00  0.00     0.000 OA
ATOM     35   O  BDP C   2      33.364   6.628  42.7660  0.00  0.00     0.000 OA
ENDBRANCH 27 33
BRANCH 23 36
ATOM     36  O4  SGN C   3      30.802  10.094  45.8380  0.00  0.00     0.000 O
BRANCH 36 40
ATOM     37  C1  SGN C   3      30.481   9.055  49.8690  0.00  0.00     0.000 C
ATOM     38  C2  SGN C   3      31.886   9.072  49.2450  0.00  0.00     0.000 C
ATOM     39  C3  SGN C   3      31.884   9.870  47.9500  0.00  0.00     0.000 C
ATOM     40  C4  SGN C   3      30.846   9.286  47.0170  0.00  0.00     0.000 C
ATOM     41  C5  SGN C   3      29.505   9.287  47.7180  0.00  0.00     0.000 C
ATOM     42  O5  SGN C   3      29.584   8.503  48.9180  0.00  0.00     0.000 O
ATOM     43   O  SGN C   3      33.180   9.819  47.3660  0.00  0.00     0.000 O
ATOM     45  HD  SGN C   3      32.583   9.931  46.7490  0.00  0.00     0.000 HD
BRANCH 38 47
ATOM     45   N  SGN C   3      32.641   9.720  50.3320  0.00  0.00     0.000 N
ATOM     47  HD  SGN C   3      32.055   9.787  49.6980  0.00  0.00     0.000 HD
ATOM     47   S  SGN C   3      33.338   8.661  51.2900  0.00  0.00     0.000 S
ATOM     48   O  SGN C   3      32.377   7.900  52.0070  0.00  0.00     0.000 OA
ATOM     49   O  SGN C   3      34.263   7.930  50.4870  0.00  0.00     0.000 OA
ATOM     50   O  SGN C   3      34.023   9.529  52.2460  0.00  0.00     0.000 OA
ENDBRANCH 38 47
BRANCH 41 51
ATOM     51   C  SGN C   3      28.378   8.732  46.8900  0.00  0.00     0.000 C
ATOM     52   O  SGN C   3      24.810   9.805  46.9280  0.00  0.00     0.000 OA
ATOM     53   O  SGN C   3      26.143   9.007  45.1060  0.00  0.00     0.000 OA
ATOM     54   O  SGN C   3      25.631   7.570  46.9600  0.00  0.00     0.000 OA
ATOM     55   O  SGN C   3      27.202   9.455  47.1780  0.00  0.00     0.000 O
ATOM     56   S  SGN C   3      25.817   8.906  46.4770  0.00  0.00     0.000 S
ENDBRANCH 41 51
BRANCH 37 57
ATOM     57  O4  IDS C   4      30.011  10.272  50.2370  0.00  0.00     0.000 O
BRANCH 57 61
ATOM     58  C1  IDS C   4      29.116  12.418  53.2480  0.00  0.00     0.000 C
ATOM     59  C2  IDS C   4      30.081  11.290  53.4320  0.00  0.00     0.000 C
ATOM     60  C3  IDS C   4      29.683  10.037  52.6480  0.00  0.00     0.000 C
ATOM     61  C4  IDS C   4      29.029  10.260  51.2920  0.00  0.00     0.000 C
ATOM     62  C5  IDS C   4      28.209  11.556  51.2910  0.00  0.00     0.000 C
ATOM     63  O5  IDS C   4      28.932  12.637  51.8600  0.00  0.00     0.000 O
ATOM     64   O  IDS C   4      28.762   9.355  53.4790  0.00  0.00     0.000 O
ATOM     66  HD  IDS C   4      27.973   9.358  53.1230  0.00  0.00     0.000 HD
BRANCH 59 66
ATOM     66   O  IDS C   4      31.435  11.656  52.9750  0.00  0.00     0.000 O
ATOM     67   S  IDS C   4      32.315  12.521  53.9800  0.00  0.00     0.000 S
ATOM     68   O  IDS C   4      32.511  11.627  55.0970  0.00  0.00     0.000 OA
ATOM     69   O  IDS C   4      33.518  12.846  53.2390  0.00  0.00     0.000 OA
ATOM     70   O  IDS C   4      31.523  13.682  54.3550  0.00  0.00     0.000 OA
ENDBRANCH 59 66
BRANCH 62 71
ATOM     71   C  IDS C   4      27.820  12.012  49.8970  0.00  0.00     0.000 C
ATOM     72   O  IDS C   4      28.469  12.871  49.3330  0.00  0.00     0.000 OA
ATOM     73   O  IDS C   4      26.769  11.563  49.3970  0.00  0.00     0.000 OA
ENDBRANCH 62 71
BRANCH 58 74
ATOM     74  O4  SGN C   5      28.026  12.381  54.0670  0.00  0.00     0.000 O
BRANCH 74 78
ATOM     75  C1  SGN C   5      25.428  14.555  56.5100  0.00  0.00     0.000 C
ATOM     76  C2  SGN C   5      25.290  14.795  54.9950  0.00  0.00     0.000 C
ATOM     77  C3  SGN C   5      26.037  13.712  54.2040  0.00  0.00     0.000 C
ATOM     78  C4  SGN C   5      27.447  13.500  54.7380  0.00  0.00     0.000 C
ATOM     79  C5  SGN C   5      27.390  13.254  56.2380  0.00  0.00     0.000 C
ATOM     80  O5  SGN C   5      26.788  14.400  56.8950  0.00  0.00     0.000 O
ATOM     81   O  SGN C   5      26.073  14.086  52.8310  0.00  0.00     0.000 O
ATOM     83  HD  SGN C   5      25.405  14.485  52.4500  0.00  0.00     0.000 HD
BRANCH 76 85
ATOM     83   N  SGN C   5      23.850  14.763  54.7130  0.00  0.00     0.000 N
ATOM     85  HD  SGN C   5      23.137  15.067  54.3250  0.00  0.00     0.000 HD
ATOM     85   S  SGN C   5      22.805  15.982  54.5880  0.00  0.00     0.000 S
ATOM     86   O  SGN C   5      21.510  15.496  54.2570  0.00  0.00     0.000 OA
ATOM     87   O  SGN C   5      22.921  16.757  55.7710  0.00  0.00     0.000 OA
ATOM     88   O  SGN C   5      23.459  16.637  53.3730  0.00  0.00     0.000 OA
ENDBRANCH 76 85
BRANCH 79 89
ATOM     89   C  SGN C   5      28.748  13.006  56.8610  0.00  0.00     0.000 C
ATOM     90   O  SGN C   5      29.552  14.208  56.7770  0.00  0.00     0.000 O
ATOM     91   S  SGN C   5      30.613  14.451  57.9570  0.00  0.00     0.000 S
ATOM     92   O  SGN C   5      29.879  14.343  59.1910  0.00  0.00     0.000 OA
ATOM     93   O  SGN C   5      31.627  13.436  57.8300  0.00  0.00     0.000 OA
ATOM     94   O  SGN C   5      31.101  15.777  57.6950  0.00  0.00     0.000 OA
ENDBRANCH 79 89
BRANCH 75 95
ATOM     95  O4  BDP C   6      24.744  13.401  56.7680  0.00  0.00     0.000 O
BRANCH 95 99
ATOM     96  C1  BDP C   6      22.581  12.129  60.2530  0.00  0.00     0.000 C
ATOM     97  C2  BDP C   6      22.512  13.574  59.8500  0.00  0.00     0.000 C
ATOM     98  C3  BDP C   6      22.984  13.855  58.4150  0.00  0.00     0.000 C
ATOM     99  C4  BDP C   6      24.321  13.185  58.1320  0.00  0.00     0.000 C
ATOM    100  C5  BDP C   6      24.216  11.705  58.5670  0.00  0.00     0.000 C
ATOM    101  O5  BDP C   6      23.925  11.787  59.9710  0.00  0.00     0.000 O
BRANCH 100 102
ATOM    102   C  BDP C   6      25.515  10.957  58.4040  0.00  0.00     0.000 C
ATOM    103   O  BDP C   6      26.220  10.637  59.3720  0.00  0.00     0.000 OA
ATOM    104   O  BDP C   6      25.848  10.661  57.2510  0.00  0.00     0.000 OA
ENDBRANCH 100 102
ENDBRANCH 95 99
ENDBRANCH 75 95
ENDBRANCH 74 78
ENDBRANCH 58 74
ENDBRANCH 57 61
ENDBRANCH 37 57
ENDBRANCH 36 40
ENDBRANCH 23 36
ENDBRANCH 22 26
ENDBRANCH 1 22
TORSDOF 20
ENDMDL
MODEL 78
REMARK VINA RESULT:      -3.4     13.555     20.918
ROOT
ATOM      1  C1  NGY C   1      26.944  16.255  54.9620  0.00  0.00     0.000 C
ATOM      2  C2  NGY C   1      27.441  15.567  56.2250  0.00  0.00     0.000 C
ATOM      3  C3  NGY C   1      26.284  14.883  56.9460  0.00  0.00     0.000 C
ATOM      4  C4  NGY C   1      25.199  15.915  57.1900  0.00  0.00     0.000 C
ATOM      5  C5  NGY C   1      24.734  16.464  55.8450  0.00  0.00     0.000 C
ATOM      6  O5  NGY C   1      25.859  17.124  55.2090  0.00  0.00     0.000 O
ATOM      7   O  NGY C   1      26.759  14.311  58.1560  0.00  0.00     0.000 O
ATOM      9  HD  NGY C   1      27.337  14.509  58.7700  0.00  0.00     0.000 HD
ATOM      9   O  NGY C   1      24.103  15.345  57.8910  0.00  0.00     0.000 O
ATOM     11  HD  NGY C   1      24.681  15.543  58.5050  0.00  0.00     0.000 HD
ENDROOT
BRANCH 2 13
ATOM     11   N  NGY C   1      28.536  14.729  55.7950  0.00  0.00     0.000 N
ATOM     13  HD  NGY C   1      29.058  14.828  56.4780  0.00  0.00     0.000 HD
ATOM     13   C  NGY C   1      29.624  14.561  56.5450  0.00  0.00     0.000 C
ATOM     14   O  NGY C   1      29.801  15.226  57.5670  0.00  0.00     0.000 OA
ATOM     15   C  NGY C   1      30.595  13.513  56.0960  0.00  0.00     0.000 C
ENDBRANCH 2 13
BRANCH 5 16
ATOM     16   C  NGY C   1      23.651  17.493  55.9190  0.00  0.00     0.000 C
ATOM     17   O  NGY C   1      20.068  16.710  55.8280  0.00  0.00     0.000 OA
ATOM     18   O  NGY C   1      22.398  16.863  55.6390  0.00  0.00     0.000 O
ATOM     19   S  NGY C   1      21.121  17.655  56.0990  0.00  0.00     0.000 S
ATOM     20   O  NGY C   1      21.029  18.830  55.2730  0.00  0.00     0.000 OA
ATOM     21   O  NGY C   1      21.359  17.949  57.5030  0.00  0.00     0.000 OA
ENDBRANCH 5 16
BRANCH 1 22
ATOM     22  O4  BDP C   2      26.655  15.313  54.0390  0.00  0.00     0.000 O
BRANCH 22 26
ATOM     23  C1  BDP C   2      26.518  14.024  50.1300  0.00  0.00     0.000 C
ATOM     24  C2  BDP C   2      27.848  14.576  50.5860  0.00  0.00     0.000 C
ATOM     25  C3  BDP C   2      27.871  14.662  52.0890  0.00  0.00     0.000 C
ATOM     26  C4  BDP C   2      26.660  15.440  52.5930  0.00  0.00     0.000 C
ATOM     27  C5  BDP C   2      25.394  14.909  51.9330  0.00  0.00     0.000 C
ATOM     28  O5  BDP C   2      25.455  14.954  50.4840  0.00  0.00     0.000 O
ATOM     29   O  BDP C   2      28.933  13.700  50.2820  0.00  0.00     0.000 O
ATOM     31  HD  BDP C   2      29.577  13.666  50.8600  0.00  0.00     0.000 HD
ATOM     31   O  BDP C   2      29.069  15.339  52.4460  0.00  0.00     0.000 O
ATOM     33  HD  BDP C   2      29.713  15.305  53.0240  0.00  0.00     0.000 HD
BRANCH 27 33
ATOM     33   C  BDP C   2      24.167  15.702  52.3150  0.00  0.00     0.000 C
ATOM     34   O  BDP C   2      23.208  15.186  52.9370  0.00  0.00     0.000 OA
ATOM     35   O  BDP C   2      24.102  16.872  51.9740  0.00  0.00     0.000 OA
ENDBRANCH 27 33
BRANCH 23 36
ATOM     36  O4  SGN C   3      26.417  13.775  48.8030  0.00  0.00     0.000 O
BRANCH 36 40
ATOM     37  C1  SGN C   3      25.304  10.957  45.9310  0.00  0.00     0.000 C
ATOM     38  C2  SGN C   3      24.218  11.910  46.4560  0.00  0.00     0.000 C
ATOM     39  C3  SGN C   3      24.850  13.117  47.1320  0.00  0.00     0.000 C
ATOM     40  C4  SGN C   3      25.773  12.634  48.2300  0.00  0.00     0.000 C
ATOM     41  C5  SGN C   3      26.791  11.689  47.6300  0.00  0.00     0.000 C
ATOM     42  O5  SGN C   3      26.119  10.572  47.0270  0.00  0.00     0.000 O
ATOM     43   O  SGN C   3      23.824  13.949  47.6600  0.00  0.00     0.000 O
ATOM     45  HD  SGN C   3      24.550  14.047  48.1220  0.00  0.00     0.000 HD
BRANCH 38 47
ATOM     45   N  SGN C   3      23.420  12.346  45.2960  0.00  0.00     0.000 N
ATOM     47  HD  SGN C   3      24.137  12.433  45.7740  0.00  0.00     0.000 HD
ATOM     47   S  SGN C   3      22.265  11.313  44.9430  0.00  0.00     0.000 S
ATOM     48   O  SGN C   3      22.796  10.076  44.4910  0.00  0.00     0.000 OA
ATOM     49   O  SGN C   3      21.401  11.263  46.0760  0.00  0.00     0.000 OA
ATOM     50   O  SGN C   3      21.621  11.964  43.8030  0.00  0.00     0.000 OA
ENDBRANCH 38 47
BRANCH 41 51
ATOM     51   C  SGN C   3      27.778  11.137  48.6220  0.00  0.00     0.000 C
ATOM     52   O  SGN C   3      27.025   9.509  51.8870  0.00  0.00     0.000 OA
ATOM     53   O  SGN C   3      28.792   9.064  50.3340  0.00  0.00     0.000 OA
ATOM     54   O  SGN C   3      28.671  11.177  51.4680  0.00  0.00     0.000 OA
ATOM     55   O  SGN C   3      27.071  10.564  49.6990  0.00  0.00     0.000 O
ATOM     56   S  SGN C   3      27.976  10.030  50.9650  0.00  0.00     0.000 S
ENDBRANCH 41 51
BRANCH 37 57
ATOM     57  O4  IDS C   4      26.104  11.486  44.9730  0.00  0.00     0.000 O
BRANCH 57 61
ATOM     58  C1  IDS C   4      27.811  11.799  41.5870  0.00  0.00     0.000 C
ATOM     59  C2  IDS C   4      26.397  12.267  41.7250  0.00  0.00     0.000 C
ATOM     60  C3  IDS C   4      25.548  11.338  42.5970  0.00  0.00     0.000 C
ATOM     61  C4  IDS C   4      26.249  10.688  43.7820  0.00  0.00     0.000 C
ATOM     62  C5  IDS C   4      27.728  10.437  43.4670  0.00  0.00     0.000 C
ATOM     63  O5  IDS C   4      28.344  11.575  42.8820  0.00  0.00     0.000 O
ATOM     64   O  IDS C   4      25.103  10.315  41.7260  0.00  0.00     0.000 O
ATOM     66  HD  IDS C   4      25.460   9.556  41.9420  0.00  0.00     0.000 HD
BRANCH 59 66
ATOM     66   O  IDS C   4      26.326  13.604  42.3450  0.00  0.00     0.000 O
ATOM     67   S  IDS C   4      25.095  14.519  41.9210  0.00  0.00     0.000 S
ATOM     68   O  IDS C   4      23.956  13.795  42.4310  0.00  0.00     0.000 OA
ATOM     69   O  IDS C   4      25.343  15.797  42.5600  0.00  0.00     0.000 OA
ATOM     70   O  IDS C   4      25.086  14.581  40.4680  0.00  0.00     0.000 OA
ENDBRANCH 59 66
BRANCH 62 71
ATOM     71   C  IDS C   4      28.552  10.115  44.7000  0.00  0.00     0.000 C
ATOM     72   O  IDS C   4      29.396  10.898  45.0900  0.00  0.00     0.000 OA
ATOM     73   O  IDS C   4      28.414   8.995  45.2310  0.00  0.00     0.000 OA
ENDBRANCH 62 71
BRANCH 58 74
ATOM     74  O4  SGN C   5      28.017  10.869  40.6120  0.00  0.00     0.000 O
BRANCH 74 78
ATOM     75  C1  SGN C   5      30.855   8.642  38.5070  0.00  0.00     0.000 C
ATOM     76  C2  SGN C   5      30.312   7.998  39.7970  0.00  0.00     0.000 C
ATOM     77  C3  SGN C   5      29.055   8.733  40.2820  0.00  0.00     0.000 C
ATOM     78  C4  SGN C   5      29.262  10.242  40.3050  0.00  0.00     0.000 C
ATOM     79  C5  SGN C   5      29.774  10.704  38.9490  0.00  0.00     0.000 C
ATOM     80  O5  SGN C   5      31.035  10.045  38.6560  0.00  0.00     0.000 O
ATOM     81   O  SGN C   5      28.714   8.256  41.5800  0.00  0.00     0.000 O
ATOM     83  HD  SGN C   5      28.813   7.424  41.7980  0.00  0.00     0.000 HD
BRANCH 76 85
ATOM     83   N  SGN C   5      30.223   6.608  40.2610  0.00  0.00     0.000 N
ATOM     85  HD  SGN C   5      30.569   5.833  40.4330  0.00  0.00     0.000 HD
ATOM     85   S  SGN C   5      30.914   5.283  39.6610  0.00  0.00     0.000 S
ATOM     86   O  SGN C   5      30.590   4.150  40.4550  0.00  0.00     0.000 OA
ATOM     87   O  SGN C   5      30.579   5.223  38.2830  0.00  0.00     0.000 OA
ATOM     88   O  SGN C   5      32.355   5.721  39.9110  0.00  0.00     0.000 OA
ENDBRANCH 76 85
BRANCH 79 89
ATOM     89   C  SGN C   5      29.989  12.202  38.8630  0.00  0.00     0.000 C
ATOM     90   O  SGN C   5      29.379  12.715  37.6540  0.00  0.00     0.000 O
ATOM     91   S  SGN C   5      28.808  14.214  37.7160  0.00  0.00     0.000 S
ATOM     92   O  SGN C   5      27.937  14.271  38.8600  0.00  0.00     0.000 OA
ATOM     93   O  SGN C   5      29.942  15.094  37.8430  0.00  0.00     0.000 OA
ATOM     94   O  SGN C   5      28.117  14.356  36.4630  0.00  0.00     0.000 OA
ENDBRANCH 79 89
BRANCH 75 95
ATOM     95  O4  BDP C   6      29.916   8.400  37.5460  0.00  0.00     0.000 O
BRANCH 95 99
ATOM     96  C1  BDP C   6      30.373   7.761  33.3230  0.00  0.00     0.000 C
ATOM     97  C2  BDP C   6      31.465   7.297  34.2450  0.00  0.00     0.000 C
ATOM     98  C3  BDP C   6      31.054   7.216  35.7240  0.00  0.00     0.000 C
ATOM     99  C4  BDP C   6      30.351   8.489  36.1720  0.00  0.00     0.000 C
ATOM    100  C5  BDP C   6      29.241   8.809  35.1440  0.00  0.00     0.000 C
ATOM    101  O5  BDP C   6      29.961   8.980  33.9130  0.00  0.00     0.000 O
BRANCH 100 102
ATOM    102   C  BDP C   6      28.523  10.100  35.4460  0.00  0.00     0.000 C
ATOM    103   O  BDP C   6      27.548  10.153  36.2090  0.00  0.00     0.000 OA
ATOM    104   O  BDP C   6      28.961  11.122  34.9040  0.00  0.00     0.000 OA
ENDBRANCH 100 102
ENDBRANCH 95 99
ENDBRANCH 75 95
ENDBRANCH 74 78
ENDBRANCH 58 74
ENDBRANCH 57 61
ENDBRANCH 37 57
ENDBRANCH 36 40
ENDBRANCH 23 36
ENDBRANCH 22 26
ENDBRANCH 1 22
TORSDOF 20
ENDMDL
MODEL 79
REMARK VINA RESULT:      -3.4     16.715     21.274
ROOT
ATOM      1  C1  NGY C   1      33.304   5.723  37.8420  0.00  0.00     0.000 C
ATOM      2  C2  NGY C   1      34.612   5.981  37.1070  0.00  0.00     0.000 C
ATOM      3  C3  NGY C   1      34.409   7.032  36.0200  0.00  0.00     0.000 C
ATOM      4  C4  NGY C   1      33.275   6.574  35.1230  0.00  0.00     0.000 C
ATOM      5  C5  NGY C   1      32.010   6.434  35.9640  0.00  0.00     0.000 C
ATOM      6  O5  NGY C   1      32.242   5.410  36.9660  0.00  0.00     0.000 O
ATOM      7   O  NGY C   1      35.622   7.202  35.3030  0.00  0.00     0.000 O
ATOM      9  HD  NGY C   1      36.278   6.705  35.0320  0.00  0.00     0.000 HD
ATOM      9   O  NGY C   1      33.058   7.498  34.0660  0.00  0.00     0.000 O
ATOM     11  HD  NGY C   1      33.714   7.001  33.7950  0.00  0.00     0.000 HD
ENDROOT
BRANCH 2 13
ATOM     11   N  NGY C   1      35.670   6.496  37.9440  0.00  0.00     0.000 N
ATOM     13  HD  NGY C   1      36.264   5.882  37.8020  0.00  0.00     0.000 HD
ATOM     13   C  NGY C   1      36.838   5.866  38.0600  0.00  0.00     0.000 C
ATOM     14   O  NGY C   1      37.009   4.747  37.5720  0.00  0.00     0.000 OA
ATOM     15   C  NGY C   1      37.928   6.596  38.7840  0.00  0.00     0.000 C
ENDBRANCH 2 13
BRANCH 5 16
ATOM     16   C  NGY C   1      30.793   5.996  35.2140  0.00  0.00     0.000 C
ATOM     17   O  NGY C   1      27.565   7.734  35.3490  0.00  0.00     0.000 OA
ATOM     18   O  NGY C   1      29.674   6.764  35.6640  0.00  0.00     0.000 O
ATOM     19   S  NGY C   1      28.427   6.773  34.7080  0.00  0.00     0.000 S
ATOM     20   O  NGY C   1      27.872   5.445  34.7200  0.00  0.00     0.000 OA
ATOM     21   O  NGY C   1      28.960   7.168  33.4140  0.00  0.00     0.000 OA
ENDBRANCH 5 16
BRANCH 1 22
ATOM     22  O4  BDP C   2      33.032   6.784  38.6310  0.00  0.00     0.000 O
BRANCH 22 26
ATOM     23  C1  BDP C   2      31.604   8.369  42.1540  0.00  0.00     0.000 C
ATOM     24  C2  BDP C   2      32.569   7.216  42.3040  0.00  0.00     0.000 C
ATOM     25  C3  BDP C   2      33.281   6.981  40.9980  0.00  0.00     0.000 C
ATOM     26  C4  BDP C   2      32.271   6.814  39.8670  0.00  0.00     0.000 C
ATOM     27  C5  BDP C   2      31.245   7.938  39.9220  0.00  0.00     0.000 C
ATOM     28  O5  BDP C   2      30.563   8.014  41.2000  0.00  0.00     0.000 O
ATOM     29   O  BDP C   2      33.627   7.508  43.2170  0.00  0.00     0.000 O
ATOM     31  HD  BDP C   2      34.405   7.179  43.0250  0.00  0.00     0.000 HD
ATOM     31   O  BDP C   2      34.044   5.790  41.1520  0.00  0.00     0.000 O
ATOM     33  HD  BDP C   2      34.822   5.461  40.9600  0.00  0.00     0.000 HD
BRANCH 27 33
ATOM     33   C  BDP C   2      30.157   7.777  38.8860  0.00  0.00     0.000 C
ATOM     34   O  BDP C   2      29.445   6.747  38.8240  0.00  0.00     0.000 OA
ATOM     35   O  BDP C   2      29.998   8.668  38.0690  0.00  0.00     0.000 OA
ENDBRANCH 27 33
BRANCH 23 36
ATOM     36  O4  SGN C   3      30.994   8.766  43.2950  0.00  0.00     0.000 O
BRANCH 36 40
ATOM     37  C1  SGN C   3      28.717  11.770  45.0890  0.00  0.00     0.000 C
ATOM     38  C2  SGN C   3      28.268  11.261  43.7100  0.00  0.00     0.000 C
ATOM     39  C3  SGN C   3      28.908   9.915  43.4050  0.00  0.00     0.000 C
ATOM     40  C4  SGN C   3      30.412  10.055  43.5070  0.00  0.00     0.000 C
ATOM     41  C5  SGN C   3      30.760  10.581  44.8820  0.00  0.00     0.000 C
ATOM     42  O5  SGN C   3      30.133  11.856  45.0870  0.00  0.00     0.000 O
ATOM     43   O  SGN C   3      28.523   9.497  42.1010  0.00  0.00     0.000 O
ATOM     45  HD  SGN C   3      29.293   9.156  42.3050  0.00  0.00     0.000 HD
BRANCH 38 47
ATOM     45   N  SGN C   3      27.646  12.542  43.3310  0.00  0.00     0.000 N
ATOM     47  HD  SGN C   3      28.349  12.037  43.3410  0.00  0.00     0.000 HD
ATOM     47   S  SGN C   3      26.061  12.488  43.4250  0.00  0.00     0.000 S
ATOM     48   O  SGN C   3      25.515  11.596  42.4650  0.00  0.00     0.000 OA
ATOM     49   O  SGN C   3      25.741  12.232  44.7920  0.00  0.00     0.000 OA
ATOM     50   O  SGN C   3      25.693  13.847  43.0320  0.00  0.00     0.000 OA
ENDBRANCH 38 47
BRANCH 41 51
ATOM     51   C  SGN C   3      32.235  10.762  45.1160  0.00  0.00     0.000 C
ATOM     52   O  SGN C   3      34.796  11.845  42.6370  0.00  0.00     0.000 OA
ATOM     53   O  SGN C   3      34.675  12.275  44.9890  0.00  0.00     0.000 OA
ATOM     54   O  SGN C   3      34.971  10.035  44.1740  0.00  0.00     0.000 OA
ATOM     55   O  SGN C   3      32.831  11.231  43.9270  0.00  0.00     0.000 O
ATOM     56   S  SGN C   3      34.472  11.357  43.9340  0.00  0.00     0.000 S
ENDBRANCH 41 51
BRANCH 37 57
ATOM     57  O4  IDS C   4      28.341  10.988  46.1310  0.00  0.00     0.000 O
BRANCH 57 61
ATOM     58  C1  IDS C   4      27.505  11.539  49.8010  0.00  0.00     0.000 C
ATOM     59  C2  IDS C   4      27.634  12.731  48.9070  0.00  0.00     0.000 C
ATOM     60  C3  IDS C   4      28.790  12.602  47.9110  0.00  0.00     0.000 C
ATOM     61  C4  IDS C   4      29.061  11.209  47.3590  0.00  0.00     0.000 C
ATOM     62  C5  IDS C   4      28.715  10.136  48.3980  0.00  0.00     0.000 C
ATOM     63  O5  IDS C   4      27.449  10.372  48.9980  0.00  0.00     0.000 O
ATOM     64   O  IDS C   4      29.939  13.033  48.6160  0.00  0.00     0.000 O
ATOM     66  HD  IDS C   4      30.483  12.372  48.7420  0.00  0.00     0.000 HD
BRANCH 59 66
ATOM     66   O  IDS C   4      26.413  12.943  48.1050  0.00  0.00     0.000 O
ATOM     67   S  IDS C   4      25.644  14.317  48.3320  0.00  0.00     0.000 S
ATOM     68   O  IDS C   4      26.589  15.303  47.8650  0.00  0.00     0.000 OA
ATOM     69   O  IDS C   4      24.437  14.204  47.5380  0.00  0.00     0.000 OA
ATOM     70   O  IDS C   4      25.399  14.443  49.7600  0.00  0.00     0.000 OA
ENDBRANCH 59 66
BRANCH 62 71
ATOM     71   C  IDS C   4      28.634   8.741  47.8080  0.00  0.00     0.000 C
ATOM     72   O  IDS C   4      29.632   8.207  47.3650  0.00  0.00     0.000 OA
ATOM     73   O  IDS C   4      27.511   8.208  47.6950  0.00  0.00     0.000 OA
ENDBRANCH 62 71
BRANCH 58 74
ATOM     74  O4  SGN C   5      28.313  11.554  50.8990  0.00  0.00     0.000 O
BRANCH 74 78
ATOM     75  C1  SGN C   5      28.594  10.411  54.9060  0.00  0.00     0.000 C
ATOM     76  C2  SGN C   5      27.849   9.436  53.9760  0.00  0.00     0.000 C
ATOM     77  C3  SGN C   5      28.106   9.785  52.5040  0.00  0.00     0.000 C
ATOM     78  C4  SGN C   5      27.908  11.271  52.2380  0.00  0.00     0.000 C
ATOM     79  C5  SGN C   5      28.734  12.078  53.2280  0.00  0.00     0.000 C
ATOM     80  O5  SGN C   5      28.310  11.766  54.5820  0.00  0.00     0.000 O
ATOM     81   O  SGN C   5      27.236   9.010  51.6860  0.00  0.00     0.000 O
ATOM     83  HD  SGN C   5      27.035   8.192  51.8850  0.00  0.00     0.000 HD
BRANCH 76 85
ATOM     83   N  SGN C   5      28.215   8.025  54.1560  0.00  0.00     0.000 N
ATOM     85  HD  SGN C   5      28.026   7.202  54.3470  0.00  0.00     0.000 HD
ATOM     85   S  SGN C   5      27.747   6.983  55.2910  0.00  0.00     0.000 S
ATOM     86   O  SGN C   5      28.315   5.702  55.0550  0.00  0.00     0.000 OA
ATOM     87   O  SGN C   5      28.013   7.586  56.5480  0.00  0.00     0.000 OA
ATOM     88   O  SGN C   5      26.265   6.991  54.9220  0.00  0.00     0.000 OA
ENDBRANCH 76 85
BRANCH 79 89
ATOM     89   C  SGN C   5      28.622  13.576  53.0280  0.00  0.00     0.000 C
ATOM     90   O  SGN C   5      29.872  14.096  52.5120  0.00  0.00     0.000 O
ATOM     91   S  SGN C   5      29.777  15.373  51.5440  0.00  0.00     0.000 S
ATOM     92   O  SGN C   5      28.834  15.030  50.5110  0.00  0.00     0.000 OA
ATOM     93   O  SGN C   5      29.333  16.482  52.3490  0.00  0.00     0.000 OA
ATOM     94   O  SGN C   5      31.123  15.524  51.0630  0.00  0.00     0.000 OA
ENDBRANCH 79 89
BRANCH 75 95
ATOM     95  O4  BDP C   6      29.924  10.163  54.7170  0.00  0.00     0.000 O
BRANCH 95 99
ATOM     96  C1  BDP C   6      33.046  10.319  57.6620  0.00  0.00     0.000 C
ATOM     97  C2  BDP C   6      31.619  10.244  58.1270  0.00  0.00     0.000 C
ATOM     98  C3  BDP C   6      30.621   9.811  57.0420  0.00  0.00     0.000 C
ATOM     99  C4  BDP C   6      30.824  10.602  55.7580  0.00  0.00     0.000 C
ATOM    100  C5  BDP C   6      32.327  10.553  55.3980  0.00  0.00     0.000 C
ATOM    101  O5  BDP C   6      32.964  11.166  56.5310  0.00  0.00     0.000 O
BRANCH 100 102
ATOM    102   C  BDP C   6      32.661  11.372  54.1780  0.00  0.00     0.000 C
ATOM    103   O  BDP C   6      33.271  10.899  53.2090  0.00  0.00     0.000 OA
ATOM    104   O  BDP C   6      32.285  12.550  54.1760  0.00  0.00     0.000 OA
ENDBRANCH 100 102
ENDBRANCH 95 99
ENDBRANCH 75 95
ENDBRANCH 74 78
ENDBRANCH 58 74
ENDBRANCH 57 61
ENDBRANCH 37 57
ENDBRANCH 36 40
ENDBRANCH 23 36
ENDBRANCH 22 26
ENDBRANCH 1 22
TORSDOF 20
ENDMDL
MODEL 80
REMARK VINA RESULT:      -3.1      8.048     17.523
ROOT
ATOM      1  C1  NGY C   1      15.266  12.357  45.5390  0.00  0.00     0.000 C
ATOM      2  C2  NGY C   1      15.876  12.607  44.1670  0.00  0.00     0.000 C
ATOM      3  C3  NGY C   1      15.129  13.728  43.4520  0.00  0.00     0.000 C
ATOM      4  C4  NGY C   1      13.655  13.371  43.4180  0.00  0.00     0.000 C
ATOM      5  C5  NGY C   1      13.151  13.231  44.8520  0.00  0.00     0.000 C
ATOM      6  O5  NGY C   1      13.872  12.140  45.4820  0.00  0.00     0.000 O
ATOM      7   O  NGY C   1      15.669  13.892  42.1490  0.00  0.00     0.000 O
ATOM      9  HD  NGY C   1      15.991  13.386  41.5240  0.00  0.00     0.000 HD
ATOM      9   O  NGY C   1      12.907  14.364  42.7330  0.00  0.00     0.000 O
ATOM     11  HD  NGY C   1      13.229  13.859  42.1080  0.00  0.00     0.000 HD
ENDROOT
BRANCH 2 13
ATOM     11   N  NGY C   1      17.282  12.575  44.4950  0.00  0.00     0.000 N
ATOM     13  HD  NGY C   1      17.600  12.413  43.7060  0.00  0.00     0.000 HD
ATOM     13   C  NGY C   1      18.210  12.345  43.5680  0.00  0.00     0.000 C
ATOM     14   O  NGY C   1      17.899  12.009  42.4240  0.00  0.00     0.000 OA
ATOM     15   C  NGY C   1      19.637  12.543  43.9810  0.00  0.00     0.000 C
ENDBRANCH 2 13
BRANCH 5 16
ATOM     16   C  NGY C   1      11.702  12.887  44.9850  0.00  0.00     0.000 C
ATOM     17   O  NGY C   1      10.176   9.858  43.5870  0.00  0.00     0.000 OA
ATOM     18   O  NGY C   1      11.416  11.765  44.1460  0.00  0.00     0.000 O
ATOM     19   S  NGY C   1      10.092  10.988  44.4780  0.00  0.00     0.000 S
ATOM     20   O  NGY C   1       8.994  11.861  44.1540  0.00  0.00     0.000 OA
ATOM     21   O  NGY C   1      10.192  10.682  45.8960  0.00  0.00     0.000 OA
ENDBRANCH 5 16
BRANCH 1 22
ATOM     22  O4  BDP C   2      15.599  13.379  46.3560  0.00  0.00     0.000 O
BRANCH 22 26
ATOM     23  C1  BDP C   2      16.714  14.710  50.0910  0.00  0.00     0.000 C
ATOM     24  C2  BDP C   2      17.280  13.370  49.6820  0.00  0.00     0.000 C
ATOM     25  C3  BDP C   2      17.105  13.178  48.1990  0.00  0.00     0.000 C
ATOM     26  C4  BDP C   2      15.647  13.392  47.8070  0.00  0.00     0.000 C
ATOM     27  C5  BDP C   2      15.132  14.688  48.4190  0.00  0.00     0.000 C
ATOM     28  O5  BDP C   2      15.277  14.723  49.8620  0.00  0.00     0.000 O
ATOM     29   O  BDP C   2      18.694  13.298  49.8670  0.00  0.00     0.000 O
ATOM     31  HD  BDP C   2      19.138  12.843  49.2790  0.00  0.00     0.000 HD
ATOM     31   O  BDP C   2      17.499  11.844  47.9050  0.00  0.00     0.000 O
ATOM     33  HD  BDP C   2      17.944  11.389  47.3170  0.00  0.00     0.000 HD
BRANCH 27 33
ATOM     33   C  BDP C   2      13.663  14.910  48.1500  0.00  0.00     0.000 C
ATOM     34   O  BDP C   2      13.215  16.019  47.7710  0.00  0.00     0.000 OA
ATOM     35   O  BDP C   2      12.891  13.985  48.3420  0.00  0.00     0.000 OA
ENDBRANCH 27 33
BRANCH 23 36
ATOM     36  O4  SGN C   3      16.926  15.060  51.3810  0.00  0.00     0.000 O
BRANCH 36 40
ATOM     37  C1  SGN C   3      18.842  18.144  53.4410  0.00  0.00     0.000 C
ATOM     38  C2  SGN C   3      17.397  17.808  53.8420  0.00  0.00     0.000 C
ATOM     39  C3  SGN C   3      17.010  16.427  53.3310  0.00  0.00     0.000 C
ATOM     40  C4  SGN C   3      17.219  16.385  51.8330  0.00  0.00     0.000 C
ATOM     41  C5  SGN C   3      18.656  16.749  51.5300  0.00  0.00     0.000 C
ATOM     42  O5  SGN C   3      18.937  18.067  52.0270  0.00  0.00     0.000 O
ATOM     43   O  SGN C   3      15.652  16.168  53.6640  0.00  0.00     0.000 O
ATOM     45  HD  SGN C   3      15.871  15.725  52.9530  0.00  0.00     0.000 HD
BRANCH 38 47
ATOM     45   N  SGN C   3      16.405  18.503  54.6820  0.00  0.00     0.000 N
ATOM     47  HD  SGN C   3      16.571  17.911  54.0720  0.00  0.00     0.000 HD
ATOM     47   S  SGN C   3      17.088  19.300  55.8750  0.00  0.00     0.000 S
ATOM     48   O  SGN C   3      17.700  18.418  56.8050  0.00  0.00     0.000 OA
ATOM     49   O  SGN C   3      17.928  20.287  55.2800  0.00  0.00     0.000 OA
ATOM     50   O  SGN C   3      15.929  19.904  56.5300  0.00  0.00     0.000 OA
ENDBRANCH 38 47
BRANCH 41 51
ATOM     51   C  SGN C   3      18.997  16.739  50.0650  0.00  0.00     0.000 C
ATOM     52   O  SGN C   3      17.593  18.939  47.4060  0.00  0.00     0.000 OA
ATOM     53   O  SGN C   3      19.793  18.020  47.6190  0.00  0.00     0.000 OA
ATOM     54   O  SGN C   3      17.899  16.580  47.2950  0.00  0.00     0.000 OA
ATOM     55   O  SGN C   3      18.276  17.767  49.4220  0.00  0.00     0.000 O
ATOM     56   S  SGN C   3      18.402  17.831  47.7820  0.00  0.00     0.000 S
ENDBRANCH 41 51
BRANCH 37 57
ATOM     57  O4  IDS C   4      19.782  17.325  53.9740  0.00  0.00     0.000 O
BRANCH 57 61
ATOM     58  C1  IDS C   4      22.833  16.456  56.0730  0.00  0.00     0.000 C
ATOM     59  C2  IDS C   4      21.655  17.085  56.7450  0.00  0.00     0.000 C
ATOM     60  C3  IDS C   4      21.012  18.189  55.9020  0.00  0.00     0.000 C
ATOM     61  C4  IDS C   4      20.998  17.974  54.3950  0.00  0.00     0.000 C
ATOM     62  C5  IDS C   4      22.228  17.175  53.9480  0.00  0.00     0.000 C
ATOM     63  O5  IDS C   4      22.447  16.040  54.7740  0.00  0.00     0.000 O
ATOM     64   O  IDS C   4      21.765  19.355  56.1780  0.00  0.00     0.000 O
ATOM     66  HD  IDS C   4      22.203  19.607  55.4740  0.00  0.00     0.000 HD
BRANCH 59 66
ATOM     66   O  IDS C   4      20.594  16.097  57.0190  0.00  0.00     0.000 O
ATOM     67   S  IDS C   4      20.385  15.682  58.5410  0.00  0.00     0.000 S
ATOM     68   O  IDS C   4      19.939  16.908  59.1580  0.00  0.00     0.000 OA
ATOM     69   O  IDS C   4      19.398  14.621  58.5060  0.00  0.00     0.000 OA
ATOM     70   O  IDS C   4      21.680  15.263  59.0540  0.00  0.00     0.000 OA
ENDBRANCH 59 66
BRANCH 62 71
ATOM     71   C  IDS C   4      22.105  16.635  52.5360  0.00  0.00     0.000 C
ATOM     72   O  IDS C   4      22.204  17.387  51.5850  0.00  0.00     0.000 OA
ATOM     73   O  IDS C   4      21.800  15.436  52.3830  0.00  0.00     0.000 OA
ENDBRANCH 62 71
BRANCH 58 74
ATOM     74  O4  SGN C   5      24.012  17.121  56.2360  0.00  0.00     0.000 O
BRANCH 74 78
ATOM     75  C1  SGN C   5      28.127  16.810  56.8820  0.00  0.00     0.000 C
ATOM     76  C2  SGN C   5      27.636  16.450  55.4670  0.00  0.00     0.000 C
ATOM     77  C3  SGN C   5      26.192  16.925  55.2570  0.00  0.00     0.000 C
ATOM     78  C4  SGN C   5      25.294  16.518  56.4170  0.00  0.00     0.000 C
ATOM     79  C5  SGN C   5      25.919  16.974  57.7270  0.00  0.00     0.000 C
ATOM     80  O5  SGN C   5      27.224  16.356  57.8820  0.00  0.00     0.000 O
ATOM     81   O  SGN C   5      25.702  16.386  54.0330  0.00  0.00     0.000 O
ATOM     83  HD  SGN C   5      26.211  16.301  53.3380  0.00  0.00     0.000 HD
BRANCH 76 85
ATOM     83   N  SGN C   5      28.293  16.595  54.1620  0.00  0.00     0.000 N
ATOM     85  HD  SGN C   5      28.888  16.371  53.5740  0.00  0.00     0.000 HD
ATOM     85   S  SGN C   5      29.860  16.535  53.7930  0.00  0.00     0.000 S
ATOM     86   O  SGN C   5      30.046  16.681  52.3910  0.00  0.00     0.000 OA
ATOM     87   O  SGN C   5      30.523  17.467  54.6340  0.00  0.00     0.000 OA
ATOM     88   O  SGN C   5      30.074  15.084  54.2170  0.00  0.00     0.000 OA
ENDBRANCH 76 85
BRANCH 79 89
ATOM     89   C  SGN C   5      25.084  16.636  58.9450  0.00  0.00     0.000 C
ATOM     90   O  SGN C   5      25.270  17.649  59.9630  0.00  0.00     0.000 O
ATOM     91   S  SGN C   5      24.018  17.943  60.9250  0.00  0.00     0.000 S
ATOM     92   O  SGN C   5      22.895  18.203  60.0620  0.00  0.00     0.000 OA
ATOM     93   O  SGN C   5      23.826  16.771  61.7400  0.00  0.00     0.000 OA
ATOM     94   O  SGN C   5      24.441  19.094  61.6750  0.00  0.00     0.000 OA
ENDBRANCH 79 89
BRANCH 75 95
ATOM     95  O4  BDP C   6      28.200  18.174  56.9150  0.00  0.00     0.000 O
BRANCH 95 99
ATOM     96  C1  BDP C   6      30.924  20.500  59.2840  0.00  0.00     0.000 C
ATOM     97  C2  BDP C   6      31.149  19.018  59.1730  0.00  0.00     0.000 C
ATOM     98  C3  BDP C   6      30.380  18.345  58.0260  0.00  0.00     0.000 C
ATOM     99  C4  BDP C   6      28.916  18.761  58.0220  0.00  0.00     0.000 C
ATOM    100  C5  BDP C   6      28.858  20.305  58.1050  0.00  0.00     0.000 C
ATOM    101  O5  BDP C   6      29.514  20.600  59.3490  0.00  0.00     0.000 O
BRANCH 100 102
ATOM    102   C  BDP C   6      27.448  20.830  58.1870  0.00  0.00     0.000 C
ATOM    103   O  BDP C   6      26.556  20.457  57.4110  0.00  0.00     0.000 OA
ATOM    104   O  BDP C   6      27.208  21.651  59.0810  0.00  0.00     0.000 OA
ENDBRANCH 100 102
ENDBRANCH 95 99
ENDBRANCH 75 95
ENDBRANCH 74 78
ENDBRANCH 58 74
ENDBRANCH 57 61
ENDBRANCH 37 57
ENDBRANCH 36 40
ENDBRANCH 23 36
ENDBRANCH 22 26
ENDBRANCH 1 22
TORSDOF 20
ENDMDL
MODEL 81
REMARK VINA RESULT:      -3.1      6.022     19.366
ROOT
ATOM      1  C1  NGY C   1      13.756  12.367  48.4130  0.00  0.00     0.000 C
ATOM      2  C2  NGY C   1      12.951  11.603  47.3710  0.00  0.00     0.000 C
ATOM      3  C3  NGY C   1      12.486  12.546  46.2670  0.00  0.00     0.000 C
ATOM      4  C4  NGY C   1      11.732  13.695  46.9100  0.00  0.00     0.000 C
ATOM      5  C5  NGY C   1      12.673  14.424  47.8650  0.00  0.00     0.000 C
ATOM      6  O5  NGY C   1      13.070  13.496  48.9080  0.00  0.00     0.000 O
ATOM      7   O  NGY C   1      11.677  11.826  45.3470  0.00  0.00     0.000 O
ATOM      9  HD  NGY C   1      11.092  11.189  45.3770  0.00  0.00     0.000 HD
ATOM      9   O  NGY C   1      11.242  14.595  45.9260  0.00  0.00     0.000 O
ATOM     11  HD  NGY C   1      10.657  13.958  45.9560  0.00  0.00     0.000 HD
ENDROOT
BRANCH 2 13
ATOM     11   N  NGY C   1      13.792  10.455  47.1230  0.00  0.00     0.000 N
ATOM     13  HD  NGY C   1      13.181   9.891  46.8800  0.00  0.00     0.000 HD
ATOM     13   C  NGY C   1      13.284   9.293  46.7140  0.00  0.00     0.000 C
ATOM     14   O  NGY C   1      12.066   9.111  46.6710  0.00  0.00     0.000 OA
ATOM     15   C  NGY C   1      14.264   8.242  46.2890  0.00  0.00     0.000 C
ENDBRANCH 2 13
BRANCH 5 16
ATOM     16   C  NGY C   1      12.075  15.597  48.5740  0.00  0.00     0.000 C
ATOM     17   O  NGY C   1      12.509  16.268  52.1550  0.00  0.00     0.000 OA
ATOM     18   O  NGY C   1      12.263  15.428  49.9820  0.00  0.00     0.000 O
ATOM     19   S  NGY C   1      12.114  16.730  50.8490  0.00  0.00     0.000 S
ATOM     20   O  NGY C   1      10.728  17.117  50.8000  0.00  0.00     0.000 OA
ATOM     21   O  NGY C   1      13.007  17.691  50.2220  0.00  0.00     0.000 OA
ENDBRANCH 5 16
BRANCH 1 22
ATOM     22  O4  BDP C   2      14.960  12.679  47.8890  0.00  0.00     0.000 O
BRANCH 22 26
ATOM     23  C1  BDP C   2      18.978  13.501  48.2740  0.00  0.00     0.000 C
ATOM     24  C2  BDP C   2      18.570  12.085  48.6030  0.00  0.00     0.000 C
ATOM     25  C3  BDP C   2      17.182  11.824  48.0790  0.00  0.00     0.000 C
ATOM     26  C4  BDP C   2      16.217  12.891  48.5850  0.00  0.00     0.000 C
ATOM     27  C5  BDP C   2      16.811  14.275  48.3580  0.00  0.00     0.000 C
ATOM     28  O5  BDP C   2      18.112  14.435  48.9800  0.00  0.00     0.000 O
ATOM     29   O  BDP C   2      19.372  11.117  47.9260  0.00  0.00     0.000 O
ATOM     31  HD  BDP C   2      18.971  10.395  47.6660  0.00  0.00     0.000 HD
ATOM     31   O  BDP C   2      16.792  10.544  48.5610  0.00  0.00     0.000 O
ATOM     33  HD  BDP C   2      16.391   9.822  48.3010  0.00  0.00     0.000 HD
BRANCH 27 33
ATOM     33   C  BDP C   2      15.947  15.375  48.9260  0.00  0.00     0.000 C
ATOM     34   O  BDP C   2      15.484  15.323  50.0910  0.00  0.00     0.000 OA
ATOM     35   O  BDP C   2      15.668  16.322  48.2100  0.00  0.00     0.000 OA
ENDBRANCH 27 33
BRANCH 23 36
ATOM     36  O4  SGN C   3      20.257  13.821  48.5770  0.00  0.00     0.000 O
BRANCH 36 40
ATOM     37  C1  SGN C   3      23.391  15.397  46.3130  0.00  0.00     0.000 C
ATOM     38  C2  SGN C   3      23.280  15.836  47.7820  0.00  0.00     0.000 C
ATOM     39  C3  SGN C   3      22.397  14.872  48.5600  0.00  0.00     0.000 C
ATOM     40  C4  SGN C   3      21.048  14.788  47.8800  0.00  0.00     0.000 C
ATOM     41  C5  SGN C   3      21.253  14.374  46.4390  0.00  0.00     0.000 C
ATOM     42  O5  SGN C   3      22.081  15.339  45.7710  0.00  0.00     0.000 O
ATOM     43   O  SGN C   3      22.264  15.334  49.8990  0.00  0.00     0.000 O
ATOM     45  HD  SGN C   3      21.568  14.870  49.6770  0.00  0.00     0.000 HD
BRANCH 38 47
ATOM     45   N  SGN C   3      23.866  17.043  48.3920  0.00  0.00     0.000 N
ATOM     47  HD  SGN C   3      23.209  16.481  48.3520  0.00  0.00     0.000 HD
ATOM     47   S  SGN C   3      25.412  17.192  48.0540  0.00  0.00     0.000 S
ATOM     48   O  SGN C   3      26.176  16.155  48.6530  0.00  0.00     0.000 OA
ATOM     49   O  SGN C   3      25.510  17.323  46.6370  0.00  0.00     0.000 OA
ATOM     50   O  SGN C   3      25.746  18.442  48.7350  0.00  0.00     0.000 OA
ENDBRANCH 38 47
BRANCH 41 51
ATOM     51   C  SGN C   3      19.980  14.249  45.6480  0.00  0.00     0.000 C
ATOM     52   O  SGN C   3      18.436  16.819  43.4370  0.00  0.00     0.000 OA
ATOM     53   O  SGN C   3      18.452  14.435  43.2210  0.00  0.00     0.000 OA
ATOM     54   O  SGN C   3      17.327  15.483  45.0660  0.00  0.00     0.000 OA
ATOM     55   O  SGN C   3      19.785  15.433  44.9070  0.00  0.00     0.000 O
ATOM     56   S  SGN C   3      18.366  15.553  44.0820  0.00  0.00     0.000 S
ENDBRANCH 41 51
BRANCH 37 57
ATOM     57  O4  IDS C   4      23.981  14.191  46.1250  0.00  0.00     0.000 O
BRANCH 57 61
ATOM     58  C1  IDS C   4      26.946  12.575  44.3740  0.00  0.00     0.000 C
ATOM     59  C2  IDS C   4      26.974  14.050  44.6200  0.00  0.00     0.000 C
ATOM     60  C3  IDS C   4      25.615  14.715  44.3840  0.00  0.00     0.000 C
ATOM     61  C4  IDS C   4      24.385  13.906  44.7720  0.00  0.00     0.000 C
ATOM     62  C5  IDS C   4      24.638  12.406  44.5810  0.00  0.00     0.000 C
ATOM     63  O5  IDS C   4      25.887  12.008  45.1270  0.00  0.00     0.000 O
ATOM     64   O  IDS C   4      25.561  14.969  42.9930  0.00  0.00     0.000 O
ATOM     66  HD  IDS C   4      24.952  14.480  42.6190  0.00  0.00     0.000 HD
BRANCH 59 66
ATOM     66   O  IDS C   4      27.357  14.361  46.0100  0.00  0.00     0.000 O
ATOM     67   S  IDS C   4      28.855  14.843  46.2430  0.00  0.00     0.000 S
ATOM     68   O  IDS C   4      28.910  16.100  45.5360  0.00  0.00     0.000 OA
ATOM     69   O  IDS C   4      28.995  14.945  47.6830  0.00  0.00     0.000 OA
ATOM     70   O  IDS C   4      29.727  13.848  45.6380  0.00  0.00     0.000 OA
ENDBRANCH 59 66
BRANCH 62 71
ATOM     71   C  IDS C   4      23.598  11.536  45.2610  0.00  0.00     0.000 C
ATOM     72   O  IDS C   4      22.481  11.441  44.7910  0.00  0.00     0.000 OA
ATOM     73   O  IDS C   4      23.886  11.013  46.3560  0.00  0.00     0.000 OA
ENDBRANCH 62 71
BRANCH 58 74
ATOM     74  O4  SGN C   5      27.109  12.205  43.0720  0.00  0.00     0.000 O
BRANCH 74 78
ATOM     75  C1  SGN C   5      28.472   9.160  40.5590  0.00  0.00     0.000 C
ATOM     76  C2  SGN C   5      26.944   9.277  40.7120  0.00  0.00     0.000 C
ATOM     77  C3  SGN C   5      26.564  10.613  41.3650  0.00  0.00     0.000 C
ATOM     78  C4  SGN C   5      27.399  10.887  42.6080  0.00  0.00     0.000 C
ATOM     79  C5  SGN C   5      28.876  10.753  42.2660  0.00  0.00     0.000 C
ATOM     80  O5  SGN C   5      29.143   9.408  41.7880  0.00  0.00     0.000 O
ATOM     81   O  SGN C   5      25.178  10.591  41.6890  0.00  0.00     0.000 O
ATOM     83  HD  SGN C   5      24.597  10.205  41.1750  0.00  0.00     0.000 HD
BRANCH 76 85
ATOM     83   N  SGN C   5      26.839   8.132  39.7990  0.00  0.00     0.000 N
ATOM     85  HD  SGN C   5      26.718   7.786  39.0140  0.00  0.00     0.000 HD
ATOM     85   S  SGN C   5      25.810   7.883  38.5850  0.00  0.00     0.000 S
ATOM     86   O  SGN C   5      26.099   6.653  37.9330  0.00  0.00     0.000 OA
ATOM     87   O  SGN C   5      24.500   8.046  39.1060  0.00  0.00     0.000 OA
ATOM     88   O  SGN C   5      26.270   9.064  37.7330  0.00  0.00     0.000 OA
ENDBRANCH 76 85
BRANCH 79 89
ATOM     89   C  SGN C   5      29.795  11.032  43.4390  0.00  0.00     0.000 C
ATOM     90   O  SGN C   5      29.408  10.213  44.5700  0.00  0.00     0.000 O
ATOM     91   S  SGN C   5      30.583   9.757  45.5640  0.00  0.00     0.000 S
ATOM     92   O  SGN C   5      31.597   9.149  44.7420  0.00  0.00     0.000 OA
ATOM     93   O  SGN C   5      31.054  10.941  46.2350  0.00  0.00     0.000 OA
ATOM     94   O  SGN C   5      29.928   8.828  46.4440  0.00  0.00     0.000 OA
ENDBRANCH 79 89
BRANCH 75 95
ATOM     95  O4  BDP C   6      28.828  10.109  39.6430  0.00  0.00     0.000 O
BRANCH 95 99
ATOM     96  C1  BDP C   6      31.868  10.114  36.6090  0.00  0.00     0.000 C
ATOM     97  C2  BDP C   6      31.096   8.849  36.8550  0.00  0.00     0.000 C
ATOM     98  C3  BDP C   6      29.803   9.041  37.6620  0.00  0.00     0.000 C
ATOM     99  C4  BDP C   6      30.049   9.880  38.9080  0.00  0.00     0.000 C
ATOM    100  C5  BDP C   6      30.816  11.154  38.4820  0.00  0.00     0.000 C
ATOM    101  O5  BDP C   6      32.031  10.641  37.9130  0.00  0.00     0.000 O
BRANCH 100 102
ATOM    102   C  BDP C   6      31.185  12.029  39.6540  0.00  0.00     0.000 C
ATOM    103   O  BDP C   6      32.120  11.751  40.4190  0.00  0.00     0.000 OA
ATOM    104   O  BDP C   6      30.516  13.056  39.8160  0.00  0.00     0.000 OA
ENDBRANCH 100 102
ENDBRANCH 95 99
ENDBRANCH 75 95
ENDBRANCH 74 78
ENDBRANCH 58 74
ENDBRANCH 57 61
ENDBRANCH 37 57
ENDBRANCH 36 40
ENDBRANCH 23 36
ENDBRANCH 22 26
ENDBRANCH 1 22
TORSDOF 20
ENDMDL
MODEL 82
REMARK VINA RESULT:      -3.1     13.691     18.379
ROOT
ATOM      1  C1  NGY C   1      30.273   9.319  39.5460  0.00  0.00     0.000 C
ATOM      2  C2  NGY C   1      29.469   8.391  38.6460  0.00  0.00     0.000 C
ATOM      3  C3  NGY C   1      30.109   7.008  38.6060  0.00  0.00     0.000 C
ATOM      4  C4  NGY C   1      31.560   7.167  38.1910  0.00  0.00     0.000 C
ATOM      5  C5  NGY C   1      32.269   8.047  39.2170  0.00  0.00     0.000 C
ATOM      6  O5  NGY C   1      31.642   9.356  39.2030  0.00  0.00     0.000 O
ATOM      7   O  NGY C   1      29.384   6.184  37.7050  0.00  0.00     0.000 O
ATOM      9  HD  NGY C   1      28.970   6.275  36.9500  0.00  0.00     0.000 HD
ATOM      9   O  NGY C   1      32.205   5.905  38.1020  0.00  0.00     0.000 O
ATOM     11  HD  NGY C   1      31.791   5.996  37.3470  0.00  0.00     0.000 HD
ENDROOT
BRANCH 2 13
ATOM     11   N  NGY C   1      28.130   8.749  39.0530  0.00  0.00     0.000 N
ATOM     13  HD  NGY C   1      27.694   8.427  38.3780  0.00  0.00     0.000 HD
ATOM     13   C  NGY C   1      27.070   8.454  38.3020  0.00  0.00     0.000 C
ATOM     14   O  NGY C   1      27.202   7.994  37.1670  0.00  0.00     0.000 OA
ATOM     15   C  NGY C   1      25.724   8.684  38.9190  0.00  0.00     0.000 C
ENDBRANCH 2 13
BRANCH 5 16
ATOM     16   C  NGY C   1      33.719   8.291  38.9500  0.00  0.00     0.000 C
ATOM     17   O  NGY C   1      36.430   7.120  41.1270  0.00  0.00     0.000 OA
ATOM     18   O  NGY C   1      34.472   7.892  40.0980  0.00  0.00     0.000 O
ATOM     19   S  NGY C   1      36.005   7.650  39.8560  0.00  0.00     0.000 S
ATOM     20   O  NGY C   1      36.598   8.930  39.5710  0.00  0.00     0.000 OA
ATOM     21   O  NGY C   1      36.058   6.724  38.7370  0.00  0.00     0.000 OA
ENDBRANCH 5 16
BRANCH 1 22
ATOM     22  O4  BDP C   2      30.070   8.961  40.8320  0.00  0.00     0.000 O
BRANCH 22 26
ATOM     23  C1  BDP C   2      29.541  10.070  44.7630  0.00  0.00     0.000 C
ATOM     24  C2  BDP C   2      28.960  11.015  43.7380  0.00  0.00     0.000 C
ATOM     25  C3  BDP C   2      28.896  10.329  42.3980  0.00  0.00     0.000 C
ATOM     26  C4  BDP C   2      30.262   9.760  42.0290  0.00  0.00     0.000 C
ATOM     27  C5  BDP C   2      30.827   8.970  43.2020  0.00  0.00     0.000 C
ATOM     28  O5  BDP C   2      30.920   9.759  44.4160  0.00  0.00     0.000 O
ATOM     29   O  BDP C   2      27.599  11.346  44.0120  0.00  0.00     0.000 O
ATOM     31  HD  BDP C   2      27.080  11.449  43.3270  0.00  0.00     0.000 HD
ATOM     31   O  BDP C   2      28.503  11.313  41.4490  0.00  0.00     0.000 O
ATOM     33  HD  BDP C   2      27.984  11.415  40.7630  0.00  0.00     0.000 HD
BRANCH 27 33
ATOM     33   C  BDP C   2      32.223   8.461  42.9370  0.00  0.00     0.000 C
ATOM     34   O  BDP C   2      33.232   9.198  43.0430  0.00  0.00     0.000 OA
ATOM     35   O  BDP C   2      32.360   7.304  42.5740  0.00  0.00     0.000 OA
ENDBRANCH 27 33
BRANCH 23 36
ATOM     36  O4  SGN C   3      29.531  10.522  46.0390  0.00  0.00     0.000 O
BRANCH 36 40
ATOM     37  C1  SGN C   3      28.691   9.593  50.0210  0.00  0.00     0.000 C
ATOM     38  C2  SGN C   3      29.977   9.015  49.4090  0.00  0.00     0.000 C
ATOM     39  C3  SGN C   3      30.356   9.777  48.1480  0.00  0.00     0.000 C
ATOM     40  C4  SGN C   3      29.189   9.737  47.1840  0.00  0.00     0.000 C
ATOM     41  C5  SGN C   3      27.967  10.300  47.8750  0.00  0.00     0.000 C
ATOM     42  O5  SGN C   3      27.666   9.520  49.0420  0.00  0.00     0.000 O
ATOM     43   O  SGN C   3      31.513   9.184  47.5710  0.00  0.00     0.000 O
ATOM     45  HD  SGN C   3      31.040   9.567  46.9550  0.00  0.00     0.000 HD
BRANCH 38 47
ATOM     45   N  SGN C   3      30.431   7.742  49.9970  0.00  0.00     0.000 N
ATOM     47  HD  SGN C   3      30.174   8.182  49.2970  0.00  0.00     0.000 HD
ATOM     47   S  SGN C   3      31.055   7.942  51.4450  0.00  0.00     0.000 S
ATOM     48   O  SGN C   3      32.259   8.692  51.3920  0.00  0.00     0.000 OA
ATOM     49   O  SGN C   3      30.013   8.460  52.2700  0.00  0.00     0.000 OA
ATOM     50   O  SGN C   3      31.400   6.569  51.8120  0.00  0.00     0.000 OA
ENDBRANCH 38 47
BRANCH 41 51
ATOM     51   C  SGN C   3      26.731  10.322  47.0170  0.00  0.00     0.000 C
ATOM     52   O  SGN C   3      24.438  13.200  46.4360  0.00  0.00     0.000 OA
ATOM     53   O  SGN C   3      25.076  11.435  44.9490  0.00  0.00     0.000 OA
ATOM     54   O  SGN C   3      23.817  10.957  46.9370  0.00  0.00     0.000 OA
ATOM     55   O  SGN C   3      26.187  11.623  47.0340  0.00  0.00     0.000 O
ATOM     56   S  SGN C   3      24.744  11.820  46.2680  0.00  0.00     0.000 S
ENDBRANCH 41 51
BRANCH 37 57
ATOM     57  O4  IDS C   4      28.791  10.879  50.4360  0.00  0.00     0.000 O
BRANCH 57 61
ATOM     58  C1  IDS C   4      27.822  13.131  53.3450  0.00  0.00     0.000 C
ATOM     59  C2  IDS C   4      27.835  11.650  53.5570  0.00  0.00     0.000 C
ATOM     60  C3  IDS C   4      27.280  10.876  52.3580  0.00  0.00     0.000 C
ATOM     61  C4  IDS C   4      27.584  11.447  50.9800  0.00  0.00     0.000 C
ATOM     62  C5  IDS C   4      27.673  12.977  51.0320  0.00  0.00     0.000 C
ATOM     63  O5  IDS C   4      28.472  13.421  52.1190  0.00  0.00     0.000 O
ATOM     64   O  IDS C   4      25.876  10.868  52.5370  0.00  0.00     0.000 O
ATOM     66  HD  IDS C   4      25.489  11.338  51.9220  0.00  0.00     0.000 HD
BRANCH 59 66
ATOM     66   O  IDS C   4      29.203  11.146  53.7820  0.00  0.00     0.000 O
ATOM     67   S  IDS C   4      29.496  10.499  55.2070  0.00  0.00     0.000 S
ATOM     68   O  IDS C   4      28.647   9.332  55.2190  0.00  0.00     0.000 OA
ATOM     69   O  IDS C   4      30.918  10.220  55.2040  0.00  0.00     0.000 OA
ATOM     70   O  IDS C   4      29.089  11.469  56.2110  0.00  0.00     0.000 OA
ENDBRANCH 59 66
BRANCH 62 71
ATOM     71   C  IDS C   4      28.302  13.579  49.7900  0.00  0.00     0.000 C
ATOM     72   O  IDS C   4      27.681  13.607  48.7450  0.00  0.00     0.000 OA
ATOM     73   O  IDS C   4      29.494  13.942  49.8440  0.00  0.00     0.000 OA
ENDBRANCH 62 71
BRANCH 58 74
ATOM     74  O4  SGN C   5      26.638  13.743  53.6330  0.00  0.00     0.000 O
BRANCH 74 78
ATOM     75  C1  SGN C   5      24.945  17.259  55.1200  0.00  0.00     0.000 C
ATOM     76  C2  SGN C   5      26.251  17.424  54.3190  0.00  0.00     0.000 C
ATOM     77  C3  SGN C   5      26.581  16.138  53.5490  0.00  0.00     0.000 C
ATOM     78  C4  SGN C   5      26.475  14.908  54.4410  0.00  0.00     0.000 C
ATOM     79  C5  SGN C   5      25.119  14.896  55.1300  0.00  0.00     0.000 C
ATOM     80  O5  SGN C   5      24.973  16.095  55.9360  0.00  0.00     0.000 O
ATOM     81   O  SGN C   5      27.892  16.249  53.0050  0.00  0.00     0.000 O
ATOM     83  HD  SGN C   5      28.194  17.001  52.6980  0.00  0.00     0.000 HD
BRANCH 76 85
ATOM     83   N  SGN C   5      26.620  18.514  53.4080  0.00  0.00     0.000 N
ATOM     85  HD  SGN C   5      26.933  19.305  53.2460  0.00  0.00     0.000 HD
ATOM     85   S  SGN C   5      26.410  20.102  53.5750  0.00  0.00     0.000 S
ATOM     86   O  SGN C   5      26.963  20.797  52.4650  0.00  0.00     0.000 OA
ATOM     87   O  SGN C   5      25.035  20.317  53.8510  0.00  0.00     0.000 OA
ATOM     88   O  SGN C   5      27.302  20.258  54.8050  0.00  0.00     0.000 OA
ENDBRANCH 76 85
BRANCH 79 89
ATOM     89   C  SGN C   5      24.907  13.692  56.0250  0.00  0.00     0.000 C
ATOM     90   O  SGN C   5      24.887  14.110  57.4120  0.00  0.00     0.000 O
ATOM     91   S  SGN C   5      23.964  13.256  58.4090  0.00  0.00     0.000 S
ATOM     92   O  SGN C   5      22.655  13.209  57.8110  0.00  0.00     0.000 OA
ATOM     93   O  SGN C   5      24.563  11.952  58.5280  0.00  0.00     0.000 OA
ATOM     94   O  SGN C   5      24.008  14.014  59.6300  0.00  0.00     0.000 OA
ENDBRANCH 79 89
BRANCH 75 95
ATOM     95  O4  BDP C   6      23.950  17.144  54.1900  0.00  0.00     0.000 O
BRANCH 95 99
ATOM     96  C1  BDP C   6      20.017  18.713  54.9060  0.00  0.00     0.000 C
ATOM     97  C2  BDP C   6      21.024  18.753  56.0210  0.00  0.00     0.000 C
ATOM     98  C3  BDP C   6      22.476  18.535  55.5720  0.00  0.00     0.000 C
ATOM     99  C4  BDP C   6      22.597  17.323  54.6590  0.00  0.00     0.000 C
ATOM    100  C5  BDP C   6      21.523  17.450  53.5530  0.00  0.00     0.000 C
ATOM    101  O5  BDP C   6      20.287  17.471  54.2850  0.00  0.00     0.000 O
BRANCH 100 102
ATOM    102   C  BDP C   6      21.497  16.258  52.6300  0.00  0.00     0.000 C
ATOM    103   O  BDP C   6      21.071  15.151  52.9900  0.00  0.00     0.000 OA
ATOM    104   O  BDP C   6      21.911  16.434  51.4780  0.00  0.00     0.000 OA
ENDBRANCH 100 102
ENDBRANCH 95 99
ENDBRANCH 75 95
ENDBRANCH 74 78
ENDBRANCH 58 74
ENDBRANCH 57 61
ENDBRANCH 37 57
ENDBRANCH 36 40
ENDBRANCH 23 36
ENDBRANCH 22 26
ENDBRANCH 1 22
TORSDOF 20
ENDMDL
MODEL 83
REMARK VINA RESULT:      -2.8      6.161     10.340
ROOT
ATOM      1  C1  NGY C   1      26.497  14.660  56.9080  0.00  0.00     0.000 C
ATOM      2  C2  NGY C   1      27.326  15.695  57.6560  0.00  0.00     0.000 C
ATOM      3  C3  NGY C   1      28.354  16.324  56.7210  0.00  0.00     0.000 C
ATOM      4  C4  NGY C   1      29.172  15.211  56.0950  0.00  0.00     0.000 C
ATOM      5  C5  NGY C   1      28.236  14.296  55.3110  0.00  0.00     0.000 C
ATOM      6  O5  NGY C   1      27.293  13.704  56.2420  0.00  0.00     0.000 O
ATOM      7   O  NGY C   1      29.162  17.230  57.4580  0.00  0.00     0.000 O
ATOM      9  HD  NGY C   1      29.503  17.279  58.2530  0.00  0.00     0.000 HD
ATOM      9   O  NGY C   1      30.173  15.737  55.2360  0.00  0.00     0.000 O
ATOM     11  HD  NGY C   1      30.514  15.785  56.0310  0.00  0.00     0.000 HD
ENDROOT
BRANCH 2 13
ATOM     11   N  NGY C   1      27.560  16.635  58.7260  0.00  0.00     0.000 N
ATOM     13  HD  NGY C   1      26.745  16.725  59.0070  0.00  0.00     0.000 HD
ATOM     13   C  NGY C   1      26.563  17.095  59.4820  0.00  0.00     0.000 C
ATOM     14   O  NGY C   1      25.388  16.847  59.2050  0.00  0.00     0.000 OA
ATOM     15   C  NGY C   1      26.948  17.897  60.6870  0.00  0.00     0.000 C
ENDBRANCH 2 13
BRANCH 5 16
ATOM     16   C  NGY C   1      28.899  13.147  54.6220  0.00  0.00     0.000 C
ATOM     17   O  NGY C   1      27.432   9.796  54.3490  0.00  0.00     0.000 OA
ATOM     18   O  NGY C   1      28.155  11.956  54.8930  0.00  0.00     0.000 O
ATOM     19   S  NGY C   1      28.420  10.752  53.9190  0.00  0.00     0.000 S
ATOM     20   O  NGY C   1      29.765  10.297  54.1610  0.00  0.00     0.000 OA
ATOM     21   O  NGY C   1      28.226  11.306  52.5900  0.00  0.00     0.000 OA
ENDBRANCH 5 16
BRANCH 1 22
ATOM     22  O4  BDP C   2      25.651  15.302  56.0740  0.00  0.00     0.000 O
BRANCH 22 26
ATOM     23  C1  BDP C   2      22.060  15.580  54.0750  0.00  0.00     0.000 C
ATOM     24  C2  BDP C   2      21.961  15.495  55.5800  0.00  0.00     0.000 C
ATOM     25  C3  BDP C   2      23.311  15.766  56.1920  0.00  0.00     0.000 C
ATOM     26  C4  BDP C   2      24.364  14.850  55.5760  0.00  0.00     0.000 C
ATOM     27  C5  BDP C   2      24.254  14.884  54.0580  0.00  0.00     0.000 C
ATOM     28  O5  BDP C   2      22.932  14.524  53.5820  0.00  0.00     0.000 O
ATOM     29   O  BDP C   2      21.131  16.518  56.1290  0.00  0.00     0.000 O
ATOM     31  HD  BDP C   2      21.372  16.842  56.8950  0.00  0.00     0.000 HD
ATOM     31   O  BDP C   2      23.193  15.508  57.5850  0.00  0.00     0.000 O
ATOM     33  HD  BDP C   2      23.433  15.833  58.3510  0.00  0.00     0.000 HD
BRANCH 27 33
ATOM     33   C  BDP C   2      25.207  13.922  53.3880  0.00  0.00     0.000 C
ATOM     34   O  BDP C   2      25.280  12.716  53.7250  0.00  0.00     0.000 OA
ATOM     35   O  BDP C   2      25.947  14.349  52.5180  0.00  0.00     0.000 OA
ENDBRANCH 27 33
BRANCH 23 36
ATOM     36  O4  SGN C   3      20.885  15.484  53.4110  0.00  0.00     0.000 O
BRANCH 36 40
ATOM     37  C1  SGN C   3      18.567  16.995  50.2850  0.00  0.00     0.000 C
ATOM     38  C2  SGN C   3      19.987  16.508  49.9510  0.00  0.00     0.000 C
ATOM     39  C3  SGN C   3      20.516  15.610  51.0590  0.00  0.00     0.000 C
ATOM     40  C4  SGN C   3      20.458  16.366  52.3690  0.00  0.00     0.000 C
ATOM     41  C5  SGN C   3      19.036  16.825  52.6050  0.00  0.00     0.000 C
ATOM     42  O5  SGN C   3      18.617  17.677  51.5280  0.00  0.00     0.000 O
ATOM     43   O  SGN C   3      21.850  15.224  50.7530  0.00  0.00     0.000 O
ATOM     45  HD  SGN C   3      21.733  15.223  51.6110  0.00  0.00     0.000 HD
BRANCH 38 47
ATOM     45   N  SGN C   3      19.586  17.350  48.8090  0.00  0.00     0.000 N
ATOM     47  HD  SGN C   3      19.717  17.275  49.6620  0.00  0.00     0.000 HD
ATOM     47   S  SGN C   3      19.990  16.699  47.4160  0.00  0.00     0.000 S
ATOM     48   O  SGN C   3      21.401  16.639  47.2630  0.00  0.00     0.000 OA
ATOM     49   O  SGN C   3      19.283  15.464  47.3210  0.00  0.00     0.000 OA
ATOM     50   O  SGN C   3      19.480  17.687  46.4670  0.00  0.00     0.000 OA
ENDBRANCH 38 47
BRANCH 41 51
ATOM     51   C  SGN C   3      18.841  17.590  53.8860  0.00  0.00     0.000 C
ATOM     52   O  SGN C   3      15.744  19.316  55.0320  0.00  0.00     0.000 OA
ATOM     53   O  SGN C   3      17.424  18.188  56.3120  0.00  0.00     0.000 OA
ATOM     54   O  SGN C   3      17.964  20.178  55.0820  0.00  0.00     0.000 OA
ATOM     55   O  SGN C   3      17.505  18.039  53.9490  0.00  0.00     0.000 O
ATOM     56   S  SGN C   3      17.125  19.023  55.2120  0.00  0.00     0.000 S
ENDBRANCH 41 51
BRANCH 37 57
ATOM     57  O4  IDS C   4      17.639  16.011  50.3780  0.00  0.00     0.000 O
BRANCH 57 61
ATOM     58  C1  IDS C   4      14.575  13.993  49.3730  0.00  0.00     0.000 C
ATOM     59  C2  IDS C   4      15.770  13.980  48.4740  0.00  0.00     0.000 C
ATOM     60  C3  IDS C   4      16.436  15.353  48.3540  0.00  0.00     0.000 C
ATOM     61  C4  IDS C   4      16.440  16.219  49.6060  0.00  0.00     0.000 C
ATOM     62  C5  IDS C   4      15.190  15.955  50.4540  0.00  0.00     0.000 C
ATOM     63  O5  IDS C   4      14.947  14.565  50.6160  0.00  0.00     0.000 O
ATOM     64   O  IDS C   4      15.711  16.032  47.3460  0.00  0.00     0.000 O
ATOM     66  HD  IDS C   4      15.277  16.701  47.6830  0.00  0.00     0.000 HD
BRANCH 59 66
ATOM     66   O  IDS C   4      16.808  13.053  48.9640  0.00  0.00     0.000 O
ATOM     67   S  IDS C   4      17.133  11.798  48.0420  0.00  0.00     0.000 S
ATOM     68   O  IDS C   4      17.684  12.400  46.8510  0.00  0.00     0.000 OA
ATOM     69   O  IDS C   4      18.068  11.001  48.8120  0.00  0.00     0.000 OA
ATOM     70   O  IDS C   4      15.872  11.125  47.7700  0.00  0.00     0.000 OA
ENDBRANCH 59 66
BRANCH 62 71
ATOM     71   C  IDS C   4      15.295  16.518  51.8590  0.00  0.00     0.000 C
ATOM     72   O  IDS C   4      15.463  15.771  52.8040  0.00  0.00     0.000 OA
ATOM     73   O  IDS C   4      15.101  17.738  52.0260  0.00  0.00     0.000 OA
ENDBRANCH 62 71
BRANCH 58 74
ATOM     74  O4  SGN C   5      13.412  14.387  48.7800  0.00  0.00     0.000 O
BRANCH 74 78
ATOM     75  C1  SGN C   5       9.248  14.073  48.7650  0.00  0.00     0.000 C
ATOM     76  C2  SGN C   5       9.843  15.118  49.7280  0.00  0.00     0.000 C
ATOM     77  C3  SGN C   5      11.319  15.379  49.3990  0.00  0.00     0.000 C
ATOM     78  C4  SGN C   5      12.095  14.079  49.2350  0.00  0.00     0.000 C
ATOM     79  C5  SGN C   5      11.379  13.184  48.2350  0.00  0.00     0.000 C
ATOM     80  O5  SGN C   5      10.040  12.893  48.7160  0.00  0.00     0.000 O
ATOM     81   O  SGN C   5      11.889  16.174  50.4340  0.00  0.00     0.000 O
ATOM     83  HD  SGN C   5      11.438  16.801  50.8250  0.00  0.00     0.000 HD
BRANCH 76 85
ATOM     83   N  SGN C   5       8.750  16.047  49.4140  0.00  0.00     0.000 N
ATOM     85  HD  SGN C   5       8.297  16.772  49.5500  0.00  0.00     0.000 HD
ATOM     85   S  SGN C   5       7.778  16.857  50.4110  0.00  0.00     0.000 S
ATOM     86   O  SGN C   5       6.885  17.682  49.6740  0.00  0.00     0.000 OA
ATOM     87   O  SGN C   5       7.201  15.909  51.2950  0.00  0.00     0.000 OA
ATOM     88   O  SGN C   5       8.873  17.697  51.0630  0.00  0.00     0.000 OA
ENDBRANCH 76 85
BRANCH 79 89
ATOM     89   C  SGN C   5      12.090  11.869  47.9840  0.00  0.00     0.000 C
ATOM     90   O  SGN C   5      11.308  11.055  47.0760  0.00  0.00     0.000 O
ATOM     91   S  SGN C   5      12.125  10.072  46.1050  0.00  0.00     0.000 S
ATOM     92   O  SGN C   5      13.108  10.884  45.4380  0.00  0.00     0.000 OA
ATOM     93   O  SGN C   5      12.721   9.056  46.9350  0.00  0.00     0.000 OA
ATOM     94   O  SGN C   5      11.111   9.561  45.2240  0.00  0.00     0.000 OA
ENDBRANCH 79 89
BRANCH 75 95
ATOM     95  O4  BDP C   6       9.232  14.667  47.5350  0.00  0.00     0.000 O
BRANCH 95 99
ATOM     96  C1  BDP C   6       6.630  13.905  44.2040  0.00  0.00     0.000 C
ATOM     97  C2  BDP C   6       6.144  13.580  45.5880  0.00  0.00     0.000 C
ATOM     98  C3  BDP C   6       6.962  14.228  46.7150  0.00  0.00     0.000 C
ATOM     99  C4  BDP C   6       8.454  14.015  46.5070  0.00  0.00     0.000 C
ATOM    100  C5  BDP C   6       8.798  14.425  45.0560  0.00  0.00     0.000 C
ATOM    101  O5  BDP C   6       7.997  13.540  44.2570  0.00  0.00     0.000 O
BRANCH 100 102
ATOM    102   C  BDP C   6      10.245  14.182  44.7100  0.00  0.00     0.000 C
ATOM    103   O  BDP C   6      10.698  13.044  44.5200  0.00  0.00     0.000 OA
ATOM    104   O  BDP C   6      10.970  15.178  44.6090  0.00  0.00     0.000 OA
ENDBRANCH 100 102
ENDBRANCH 95 99
ENDBRANCH 75 95
ENDBRANCH 74 78
ENDBRANCH 58 74
ENDBRANCH 57 61
ENDBRANCH 37 57
ENDBRANCH 36 40
ENDBRANCH 23 36
ENDBRANCH 22 26
ENDBRANCH 1 22
TORSDOF 20
ENDMDL
MODEL 84
REMARK VINA RESULT:      -2.7      4.645     17.596
ROOT
ATOM      1  C1  NGY C   1       9.056  14.027  47.1760  0.00  0.00     0.000 C
ATOM      2  C2  NGY C   1       8.165  14.233  48.3930  0.00  0.00     0.000 C
ATOM      3  C3  NGY C   1       7.692  12.888  48.9360  0.00  0.00     0.000 C
ATOM      4  C4  NGY C   1       7.028  12.126  47.8060  0.00  0.00     0.000 C
ATOM      5  C5  NGY C   1       8.048  11.916  46.6900  0.00  0.00     0.000 C
ATOM      6  O5  NGY C   1       8.449  13.218  46.1910  0.00  0.00     0.000 O
ATOM      7   O  NGY C   1       6.807  13.109  50.0240  0.00  0.00     0.000 O
ATOM      9  HD  NGY C   1       6.193  13.681  50.2410  0.00  0.00     0.000 HD
ATOM      9   O  NGY C   1       6.534  10.873  48.2580  0.00  0.00     0.000 O
ATOM     11  HD  NGY C   1       5.921  11.445  48.4740  0.00  0.00     0.000 HD
ENDROOT
BRANCH 2 13
ATOM     11   N  NGY C   1       8.898  15.292  49.0460  0.00  0.00     0.000 N
ATOM     13  HD  NGY C   1       8.289  15.552  49.6050  0.00  0.00     0.000 HD
ATOM     13   C  NGY C   1       8.353  16.020  50.0200  0.00  0.00     0.000 C
ATOM     14   O  NGY C   1       7.159  15.913  50.3030  0.00  0.00     0.000 OA
ATOM     15   C  NGY C   1       9.270  16.944  50.7620  0.00  0.00     0.000 C
ENDBRANCH 2 13
BRANCH 5 16
ATOM     16   C  NGY C   1       7.542  11.165  45.5000  0.00  0.00     0.000 C
ATOM     17   O  NGY C   1       7.276  12.598  42.1330  0.00  0.00     0.000 OA
ATOM     18   O  NGY C   1       7.371  12.083  44.4160  0.00  0.00     0.000 O
ATOM     19   S  NGY C   1       7.283  11.437  42.9860  0.00  0.00     0.000 S
ATOM     20   O  NGY C   1       6.045  10.705  42.9260  0.00  0.00     0.000 OA
ATOM     21   O  NGY C   1       8.463  10.592  42.8930  0.00  0.00     0.000 OA
ENDBRANCH 5 16
BRANCH 1 22
ATOM     22  O4  BDP C   2      10.247  13.541  47.5860  0.00  0.00     0.000 O
BRANCH 22 26
ATOM     23  C1  BDP C   2      14.035  14.687  46.4460  0.00  0.00     0.000 C
ATOM     24  C2  BDP C   2      12.958  14.874  45.4040  0.00  0.00     0.000 C
ATOM     25  C3  BDP C   2      11.603  14.771  46.0530  0.00  0.00     0.000 C
ATOM     26  C4  BDP C   2      11.494  13.473  46.8450  0.00  0.00     0.000 C
ATOM     27  C5  BDP C   2      12.719  13.305  47.7340  0.00  0.00     0.000 C
ATOM     28  O5  BDP C   2      13.962  13.337  46.9860  0.00  0.00     0.000 O
ATOM     29   O  BDP C   2      12.964  16.188  44.8450  0.00  0.00     0.000 O
ATOM     31  HD  BDP C   2      12.193  16.528  44.6460  0.00  0.00     0.000 HD
ATOM     31   O  BDP C   2      10.640  14.787  45.0060  0.00  0.00     0.000 O
ATOM     33  HD  BDP C   2       9.869  15.127  44.8080  0.00  0.00     0.000 HD
BRANCH 27 33
ATOM     33   C  BDP C   2      12.720  11.989  48.4740  0.00  0.00     0.000 C
ATOM     34   O  BDP C   2      13.408  11.012  48.0940  0.00  0.00     0.000 OA
ATOM     35   O  BDP C   2      11.999  11.872  49.4510  0.00  0.00     0.000 OA
ENDBRANCH 27 33
BRANCH 23 36
ATOM     36  O4  SGN C   3      15.301  14.886  46.0130  0.00  0.00     0.000 O
BRANCH 36 40
ATOM     37  C1  SGN C   3      19.073  16.272  47.1460  0.00  0.00     0.000 C
ATOM     38  C2  SGN C   3      18.253  15.499  48.1910  0.00  0.00     0.000 C
ATOM     39  C3  SGN C   3      17.143  14.707  47.5160  0.00  0.00     0.000 C
ATOM     40  C4  SGN C   3      16.291  15.656  46.7010  0.00  0.00     0.000 C
ATOM     41  C5  SGN C   3      17.179  16.388  45.7190  0.00  0.00     0.000 C
ATOM     42  O5  SGN C   3      18.188  17.121  46.4320  0.00  0.00     0.000 O
ATOM     43   O  SGN C   3      16.365  14.050  48.5100  0.00  0.00     0.000 O
ATOM     45  HD  SGN C   3      15.880  14.204  47.8090  0.00  0.00     0.000 HD
BRANCH 38 47
ATOM     45   N  SGN C   3      19.196  16.240  49.0480  0.00  0.00     0.000 N
ATOM     47  HD  SGN C   3      18.535  16.259  48.4880  0.00  0.00     0.000 HD
ATOM     47   S  SGN C   3      19.937  15.288  50.0820  0.00  0.00     0.000 S
ATOM     48   O  SGN C   3      19.030  14.750  51.0330  0.00  0.00     0.000 OA
ATOM     49   O  SGN C   3      20.687  14.352  49.3110  0.00  0.00     0.000 OA
ATOM     50   O  SGN C   3      20.808  16.231  50.7820  0.00  0.00     0.000 OA
ENDBRANCH 38 47
BRANCH 41 51
ATOM     51   C  SGN C   3      16.449  17.365  44.8390  0.00  0.00     0.000 C
ATOM     52   O  SGN C   3      15.718  17.016  41.2030  0.00  0.00     0.000 OA
ATOM     53   O  SGN C   3      14.422  18.058  42.9250  0.00  0.00     0.000 OA
ATOM     54   O  SGN C   3      16.567  18.945  42.3110  0.00  0.00     0.000 OA
ATOM     55   O  SGN C   3      16.347  16.822  43.5420  0.00  0.00     0.000 O
ATOM     56   S  SGN C   3      15.704  17.804  42.3880  0.00  0.00     0.000 S
ENDBRANCH 41 51
BRANCH 37 57
ATOM     57  O4  IDS C   4      19.727  15.493  46.2500  0.00  0.00     0.000 O
BRANCH 57 61
ATOM     58  C1  IDS C   4      22.769  14.122  44.4220  0.00  0.00     0.000 C
ATOM     59  C2  IDS C   4      22.705  13.988  45.9100  0.00  0.00     0.000 C
ATOM     60  C3  IDS C   4      22.134  15.233  46.5930  0.00  0.00     0.000 C
ATOM     61  C4  IDS C   4      21.027  15.969  45.8510  0.00  0.00     0.000 C
ATOM     62  C5  IDS C   4      21.214  15.846  44.3340  0.00  0.00     0.000 C
ATOM     63  O5  IDS C   4      21.491  14.509  43.9450  0.00  0.00     0.000 O
ATOM     64   O  IDS C   4      23.232  16.113  46.7410  0.00  0.00     0.000 O
ATOM     66  HD  IDS C   4      23.130  16.813  46.2410  0.00  0.00     0.000 HD
BRANCH 59 66
ATOM     66   O  IDS C   4      21.847  12.858  46.3170  0.00  0.00     0.000 O
ATOM     67   S  IDS C   4      22.428  11.398  46.0640  0.00  0.00     0.000 S
ATOM     68   O  IDS C   4      23.576  11.346  46.9370  0.00  0.00     0.000 OA
ATOM     69   O  IDS C   4      21.348  10.500  46.4210  0.00  0.00     0.000 OA
ATOM     70   O  IDS C   4      22.816  11.326  44.6640  0.00  0.00     0.000 OA
ENDBRANCH 59 66
BRANCH 62 71
ATOM     71   C  IDS C   4      19.982  16.253  43.5480  0.00  0.00     0.000 C
ATOM     72   O  IDS C   4      19.322  15.413  42.9690  0.00  0.00     0.000 OA
ATOM     73   O  IDS C   4      19.730  17.469  43.4280  0.00  0.00     0.000 OA
ENDBRANCH 62 71
BRANCH 58 74
ATOM     74  O4  SGN C   5      23.877  14.760  43.9490  0.00  0.00     0.000 O
BRANCH 74 78
ATOM     75  C1  SGN C   5      26.491  15.176  40.7180  0.00  0.00     0.000 C
ATOM     76  C2  SGN C   5      25.310  16.164  40.7630  0.00  0.00     0.000 C
ATOM     77  C3  SGN C   5      24.636  16.141  42.1420  0.00  0.00     0.000 C
ATOM     78  C4  SGN C   5      24.356  14.718  42.6050  0.00  0.00     0.000 C
ATOM     79  C5  SGN C   5      25.634  13.896  42.5180  0.00  0.00     0.000 C
ATOM     80  O5  SGN C   5      26.105  13.876  41.1440  0.00  0.00     0.000 O
ATOM     81   O  SGN C   5      23.428  16.892  42.0770  0.00  0.00     0.000 O
ATOM     83  HD  SGN C   5      23.366  17.613  41.6020  0.00  0.00     0.000 HD
BRANCH 76 85
ATOM     83   N  SGN C   5      26.176  17.253  40.2940  0.00  0.00     0.000 N
ATOM     85  HD  SGN C   5      26.304  18.054  39.9920  0.00  0.00     0.000 HD
ATOM     85   S  SGN C   5      25.958  18.278  39.0710  0.00  0.00     0.000 S
ATOM     86   O  SGN C   5      27.033  19.206  39.0030  0.00  0.00     0.000 OA
ATOM     87   O  SGN C   5      25.704  17.498  37.9120  0.00  0.00     0.000 OA
ATOM     88   O  SGN C   5      24.706  18.945  39.6340  0.00  0.00     0.000 OA
ENDBRANCH 76 85
BRANCH 79 89
ATOM     89   C  SGN C   5      25.463  12.464  42.9830  0.00  0.00     0.000 C
ATOM     90   O  SGN C   5      25.140  11.617  41.8530  0.00  0.00     0.000 O
ATOM     91   S  SGN C   5      25.657  10.098  41.9190  0.00  0.00     0.000 S
ATOM     92   O  SGN C   5      27.068  10.161  42.1970  0.00  0.00     0.000 OA
ATOM     93   O  SGN C   5      24.918   9.445  42.9680  0.00  0.00     0.000 OA
ATOM     94   O  SGN C   5      25.354   9.589  40.6090  0.00  0.00     0.000 OA
ENDBRANCH 79 89
BRANCH 75 95
ATOM     95  O4  BDP C   6      27.430  15.680  41.5740  0.00  0.00     0.000 O
BRANCH 95 99
ATOM     96  C1  BDP C   6      31.721  15.508  41.5800  0.00  0.00     0.000 C
ATOM     97  C2  BDP C   6      31.017  15.898  40.3120  0.00  0.00     0.000 C
ATOM     98  C3  BDP C   6      29.546  16.300  40.5010  0.00  0.00     0.000 C
ATOM     99  C4  BDP C   6      28.799  15.281  41.3480  0.00  0.00     0.000 C
ATOM    100  C5  BDP C   6      29.632  15.017  42.6240  0.00  0.00     0.000 C
ATOM    101  O5  BDP C   6      30.875  14.508  42.1150  0.00  0.00     0.000 O
BRANCH 100 102
ATOM    102   C  BDP C   6      29.023  13.958  43.5080  0.00  0.00     0.000 C
ATOM    103   O  BDP C   6      29.018  12.758  43.1960  0.00  0.00     0.000 OA
ATOM    104   O  BDP C   6      28.533  14.337  44.5780  0.00  0.00     0.000 OA
ENDBRANCH 100 102
ENDBRANCH 95 99
ENDBRANCH 75 95
ENDBRANCH 74 78
ENDBRANCH 58 74
ENDBRANCH 57 61
ENDBRANCH 37 57
ENDBRANCH 36 40
ENDBRANCH 23 36
ENDBRANCH 22 26
ENDBRANCH 1 22
TORSDOF 20
ENDMDL
MODEL 85
REMARK VINA RESULT:      -2.7     14.405     21.704
ROOT
ATOM      1  C1  NGY C   1      28.497  15.521  53.9870  0.00  0.00     0.000 C
ATOM      2  C2  NGY C   1      29.305  14.730  55.0060  0.00  0.00     0.000 C
ATOM      3  C3  NGY C   1      28.393  13.790  55.7890  0.00  0.00     0.000 C
ATOM      4  C4  NGY C   1      27.270  14.611  56.3930  0.00  0.00     0.000 C
ATOM      5  C5  NGY C   1      26.493  15.284  55.2650  0.00  0.00     0.000 C
ATOM      6  O5  NGY C   1      27.392  16.183  54.5660  0.00  0.00     0.000 O
ATOM      7   O  NGY C   1      29.156  13.117  56.7800  0.00  0.00     0.000 O
ATOM      9  HD  NGY C   1      29.817  13.301  57.3080  0.00  0.00     0.000 HD
ATOM      9   O  NGY C   1      26.402  13.795  57.1650  0.00  0.00     0.000 O
ATOM     11  HD  NGY C   1      27.063  13.978  57.6940  0.00  0.00     0.000 HD
ENDROOT
BRANCH 2 13
ATOM     11   N  NGY C   1      30.462  14.404  54.2050  0.00  0.00     0.000 N
ATOM     13  HD  NGY C   1      31.009  14.190  54.8410  0.00  0.00     0.000 HD
ATOM     13   C  NGY C   1      31.605  14.006  54.7600  0.00  0.00     0.000 C
ATOM     14   O  NGY C   1      31.765  14.037  55.9820  0.00  0.00     0.000 OA
ATOM     15   C  NGY C   1      32.663  13.497  53.8300  0.00  0.00     0.000 C
ENDBRANCH 2 13
BRANCH 5 16
ATOM     16   C  NGY C   1      25.339  16.127  55.7040  0.00  0.00     0.000 C
ATOM     17   O  NGY C   1      22.982  15.164  58.3450  0.00  0.00     0.000 OA
ATOM     18   O  NGY C   1      24.516  15.359  56.5860  0.00  0.00     0.000 O
ATOM     19   S  NGY C   1      23.530  16.185  57.4880  0.00  0.00     0.000 S
ATOM     20   O  NGY C   1      22.538  16.760  56.6180  0.00  0.00     0.000 OA
ATOM     21   O  NGY C   1      24.372  17.173  58.1420  0.00  0.00     0.000 OA
ENDBRANCH 5 16
BRANCH 1 22
ATOM     22  O4  BDP C   2      28.140  14.696  52.9800  0.00  0.00     0.000 O
BRANCH 22 26
ATOM     23  C1  BDP C   2      27.295  13.989  49.0120  0.00  0.00     0.000 C
ATOM     24  C2  BDP C   2      28.675  14.532  49.2950  0.00  0.00     0.000 C
ATOM     25  C3  BDP C   2      28.980  14.398  50.7650  0.00  0.00     0.000 C
ATOM     26  C4  BDP C   2      27.869  15.034  51.5940  0.00  0.00     0.000 C
ATOM     27  C5  BDP C   2      26.513  14.545  51.1040  0.00  0.00     0.000 C
ATOM     28  O5  BDP C   2      26.300  14.804  49.6920  0.00  0.00     0.000 O
ATOM     29   O  BDP C   2      29.702  13.764  48.6680  0.00  0.00     0.000 O
ATOM     31  HD  BDP C   2      30.444  13.677  49.1060  0.00  0.00     0.000 HD
ATOM     31   O  BDP C   2      30.210  15.073  50.9950  0.00  0.00     0.000 O
ATOM     33  HD  BDP C   2      30.952  14.986  51.4340  0.00  0.00     0.000 HD
BRANCH 27 33
ATOM     33   C  BDP C   2      25.364  15.213  51.8210  0.00  0.00     0.000 C
ATOM     34   O  BDP C   2      24.625  14.590  52.6200  0.00  0.00     0.000 OA
ATOM     35   O  BDP C   2      25.136  16.387  51.5830  0.00  0.00     0.000 OA
ENDBRANCH 27 33
BRANCH 23 36
ATOM     36  O4  SGN C   3      26.952  13.932  47.7040  0.00  0.00     0.000 O
BRANCH 36 40
ATOM     37  C1  SGN C   3      25.596  11.180  44.8720  0.00  0.00     0.000 C
ATOM     38  C2  SGN C   3      24.698  12.389  45.1810  0.00  0.00     0.000 C
ATOM     39  C3  SGN C   3      25.498  13.485  45.8690  0.00  0.00     0.000 C
ATOM     40  C4  SGN C   3      26.142  12.912  47.1120  0.00  0.00     0.000 C
ATOM     41  C5  SGN C   3      26.985  11.719  46.7190  0.00  0.00     0.000 C
ATOM     42  O5  SGN C   3      26.158  10.726  46.0930  0.00  0.00     0.000 O
ATOM     43   O  SGN C   3      24.631  14.564  46.1950  0.00  0.00     0.000 O
ATOM     45  HD  SGN C   3      25.296  14.542  46.7490  0.00  0.00     0.000 HD
BRANCH 38 47
ATOM     45   N  SGN C   3      23.254  12.536  44.9210  0.00  0.00     0.000 N
ATOM     47  HD  SGN C   3      23.936  12.714  45.4240  0.00  0.00     0.000 HD
ATOM     47   S  SGN C   3      22.866  12.099  43.4430  0.00  0.00     0.000 S
ATOM     48   O  SGN C   3      23.433  12.974  42.4790  0.00  0.00     0.000 OA
ATOM     49   O  SGN C   3      23.195  10.717  43.3250  0.00  0.00     0.000 OA
ATOM     50   O  SGN C   3      21.419  12.310  43.4410  0.00  0.00     0.000 OA
ENDBRANCH 38 47
BRANCH 41 51
ATOM     51   C  SGN C   3      27.689  11.056  47.8720  0.00  0.00     0.000 C
ATOM     52   O  SGN C   3      31.285  10.106  48.0740  0.00  0.00     0.000 OA
ATOM     53   O  SGN C   3      29.811  10.865  49.8000  0.00  0.00     0.000 OA
ATOM     54   O  SGN C   3      29.416   8.768  48.6980  0.00  0.00     0.000 OA
ATOM     55   O  SGN C   3      29.056  10.921  47.5550  0.00  0.00     0.000 O
ATOM     56   S  SGN C   3      29.977  10.086  48.6330  0.00  0.00     0.000 S
ENDBRANCH 41 51
BRANCH 37 57
ATOM     57  O4  IDS C   4      26.609  11.435  44.0080  0.00  0.00     0.000 O
BRANCH 57 61
ATOM     58  C1  IDS C   4      28.572  11.181  40.7590  0.00  0.00     0.000 C
ATOM     59  C2  IDS C   4      27.216  11.811  40.7310  0.00  0.00     0.000 C
ATOM     60  C3  IDS C   4      26.207  11.083  41.6220  0.00  0.00     0.000 C
ATOM     61  C4  IDS C   4      26.743  10.498  42.9220  0.00  0.00     0.000 C
ATOM     62  C5  IDS C   4      28.202  10.055  42.7570  0.00  0.00     0.000 C
ATOM     63  O5  IDS C   4      28.984  11.048  42.1090  0.00  0.00     0.000 O
ATOM     64   O  IDS C   4      25.707  10.022  40.8290  0.00  0.00     0.000 O
ATOM     66  HD  IDS C   4      25.959   9.259  41.1510  0.00  0.00     0.000 HD
BRANCH 59 66
ATOM     66   O  IDS C   4      27.257  13.209  41.2020  0.00  0.00     0.000 O
ATOM     67   S  IDS C   4      27.908  14.273  40.2140  0.00  0.00     0.000 S
ATOM     68   O  IDS C   4      27.006  14.270  39.0880  0.00  0.00     0.000 OA
ATOM     69   O  IDS C   4      27.941  15.511  40.9680  0.00  0.00     0.000 OA
ATOM     70   O  IDS C   4      29.224  13.771  39.8490  0.00  0.00     0.000 OA
ENDBRANCH 59 66
BRANCH 62 71
ATOM     71   C  IDS C   4      28.895   9.787  44.0790  0.00  0.00     0.000 C
ATOM     72   O  IDS C   4      29.896  10.408  44.3800  0.00  0.00     0.000 OA
ATOM     73   O  IDS C   4      28.476   8.852  44.7900  0.00  0.00     0.000 OA
ENDBRANCH 62 71
BRANCH 58 74
ATOM     74  O4  SGN C   5      28.737  10.131  39.9050  0.00  0.00     0.000 O
BRANCH 74 78
ATOM     75  C1  SGN C   5      31.443   7.477  38.1530  0.00  0.00     0.000 C
ATOM     76  C2  SGN C   5      30.922   7.086  39.5490  0.00  0.00     0.000 C
ATOM     77  C3  SGN C   5      29.702   7.937  39.9290  0.00  0.00     0.000 C
ATOM     78  C4  SGN C   5      29.953   9.418  39.6820  0.00  0.00     0.000 C
ATOM     79  C5  SGN C   5      30.436   9.619  38.2540  0.00  0.00     0.000 C
ATOM     80  O5  SGN C   5      31.668   8.877  38.0490  0.00  0.00     0.000 O
ATOM     81   O  SGN C   5      29.387   7.705  41.2980  0.00  0.00     0.000 O
ATOM     83  HD  SGN C   5      29.469   6.921  41.6570  0.00  0.00     0.000 HD
BRANCH 76 85
ATOM     83   N  SGN C   5      31.167   5.727  39.0510  0.00  0.00     0.000 N
ATOM     85  HD  SGN C   5      31.062   4.868  39.0830  0.00  0.00     0.000 HD
ATOM     85   S  SGN C   5      31.441   4.370  39.8750  0.00  0.00     0.000 S
ATOM     86   O  SGN C   5      31.582   3.269  38.9870  0.00  0.00     0.000 OA
ATOM     87   O  SGN C   5      32.520   4.628  40.7600  0.00  0.00     0.000 OA
ATOM     88   O  SGN C   5      30.086   4.326  40.5760  0.00  0.00     0.000 OA
ENDBRANCH 76 85
BRANCH 79 89
ATOM     89   C  SGN C   5      30.692  11.071  37.9010  0.00  0.00     0.000 C
ATOM     90   O  SGN C   5      30.635  11.243  36.4640  0.00  0.00     0.000 O
ATOM     91   S  SGN C   5      30.113  12.663  35.9280  0.00  0.00     0.000 S
ATOM     92   O  SGN C   5      28.852  12.904  36.5800  0.00  0.00     0.000 OA
ATOM     93   O  SGN C   5      31.110  13.641  36.2800  0.00  0.00     0.000 OA
ATOM     94   O  SGN C   5      29.994  12.458  34.5100  0.00  0.00     0.000 OA
ENDBRANCH 79 89
BRANCH 75 95
ATOM     95  O4  BDP C   6      30.468   7.102  37.2730  0.00  0.00     0.000 O
BRANCH 95 99
ATOM     96  C1  BDP C   6      31.168   5.835  33.2290  0.00  0.00     0.000 C
ATOM     97  C2  BDP C   6      32.351   6.075  34.1250  0.00  0.00     0.000 C
ATOM     98  C3  BDP C   6      32.009   6.146  35.6210  0.00  0.00     0.000 C
ATOM     99  C4  BDP C   6      30.828   7.072  35.8750  0.00  0.00     0.000 C
ATOM    100  C5  BDP C   6      29.691   6.674  34.9050  0.00  0.00     0.000 C
ATOM    101  O5  BDP C   6      30.274   6.865  33.6060  0.00  0.00     0.000 O
BRANCH 100 102
ATOM    102   C  BDP C   6      28.491   7.580  35.0140  0.00  0.00     0.000 C
ATOM    103   O  BDP C   6      27.880   7.992  34.0170  0.00  0.00     0.000 OA
ATOM    104   O  BDP C   6      28.127   7.891  36.1540  0.00  0.00     0.000 OA
ENDBRANCH 100 102
ENDBRANCH 95 99
ENDBRANCH 75 95
ENDBRANCH 74 78
ENDBRANCH 58 74
ENDBRANCH 57 61
ENDBRANCH 37 57
ENDBRANCH 36 40
ENDBRANCH 23 36
ENDBRANCH 22 26
ENDBRANCH 1 22
TORSDOF 20
ENDMDL
MODEL 86
REMARK VINA RESULT:      -2.7      8.501     13.081
ROOT
ATOM      1  C1  NGY C   1       4.561  11.669  40.4850  0.00  0.00     0.000 C
ATOM      2  C2  NGY C   1       3.728  10.404  40.3380  0.00  0.00     0.000 C
ATOM      3  C3  NGY C   1       3.694   9.637  41.6560  0.00  0.00     0.000 C
ATOM      4  C4  NGY C   1       5.123   9.388  42.0980  0.00  0.00     0.000 C
ATOM      5  C5  NGY C   1       5.819  10.733  42.2870  0.00  0.00     0.000 C
ATOM      6  O5  NGY C   1       5.848  11.414  41.0060  0.00  0.00     0.000 O
ATOM      7   O  NGY C   1       2.972   8.427  41.4730  0.00  0.00     0.000 O
ATOM      9  HD  NGY C   1       2.871   7.834  40.8510  0.00  0.00     0.000 HD
ATOM      9   O  NGY C   1       5.159   8.645  43.3080  0.00  0.00     0.000 O
ATOM     11  HD  NGY C   1       5.057   8.051  42.6850  0.00  0.00     0.000 HD
ENDROOT
BRANCH 2 13
ATOM     11   N  NGY C   1       2.362   9.999  40.1010  0.00  0.00     0.000 N
ATOM     13  HD  NGY C   1       2.306  10.198  39.2600  0.00  0.00     0.000 HD
ATOM     13   C  NGY C   1       1.795  10.120  38.9020  0.00  0.00     0.000 C
ATOM     14   O  NGY C   1       2.366  10.714  37.9850  0.00  0.00     0.000 OA
ATOM     15   C  NGY C   1       0.453   9.478  38.7240  0.00  0.00     0.000 C
ENDBRANCH 2 13
BRANCH 5 16
ATOM     16   C  NGY C   1       7.243  10.653  42.7350  0.00  0.00     0.000 C
ATOM     17   O  NGY C   1       8.326  11.090  46.2130  0.00  0.00     0.000 OA
ATOM     18   O  NGY C   1       7.322  11.083  44.0970  0.00  0.00     0.000 O
ATOM     19   S  NGY C   1       8.621  10.656  44.8710  0.00  0.00     0.000 S
ATOM     20   O  NGY C   1       9.720  11.381  44.2890  0.00  0.00     0.000 OA
ATOM     21   O  NGY C   1       8.706   9.218  44.6770  0.00  0.00     0.000 OA
ENDBRANCH 5 16
BRANCH 1 22
ATOM     22  O4  BDP C   2       3.869  12.562  41.2240  0.00  0.00     0.000 O
BRANCH 22 26
ATOM     23  C1  BDP C   2       2.817  16.430  42.1700  0.00  0.00     0.000 C
ATOM     24  C2  BDP C   2       2.536  16.009  40.7470  0.00  0.00     0.000 C
ATOM     25  C3  BDP C   2       2.618  14.510  40.6370  0.00  0.00     0.000 C
ATOM     26  C4  BDP C   2       3.949  14.011  41.1900  0.00  0.00     0.000 C
ATOM     27  C5  BDP C   2       4.208  14.637  42.5540  0.00  0.00     0.000 C
ATOM     28  O5  BDP C   2       4.188  16.087  42.5190  0.00  0.00     0.000 O
ATOM     29   O  BDP C   2       1.197  16.303  40.3470  0.00  0.00     0.000 O
ATOM     31  HD  BDP C   2       0.817  15.734  39.8170  0.00  0.00     0.000 HD
ATOM     31   O  BDP C   2       2.512  14.190  39.2550  0.00  0.00     0.000 O
ATOM     33  HD  BDP C   2       2.133  13.620  38.7250  0.00  0.00     0.000 HD
BRANCH 27 33
ATOM     33   C  BDP C   2       5.559  14.260  43.1150  0.00  0.00     0.000 C
ATOM     34   O  BDP C   2       5.695  13.812  44.2780  0.00  0.00     0.000 OA
ATOM     35   O  BDP C   2       6.545  14.434  42.4190  0.00  0.00     0.000 OA
ENDBRANCH 27 33
BRANCH 23 36
ATOM     36  O4  SGN C   3       2.645  17.747  42.4300  0.00  0.00     0.000 O
BRANCH 36 40
ATOM     37  C1  SGN C   3       0.297  17.806  45.8820  0.00  0.00     0.000 C
ATOM     38  C2  SGN C   3      -0.312  18.383  44.5930  0.00  0.00     0.000 C
ATOM     39  C3  SGN C   3       0.462  17.900  43.3760  0.00  0.00     0.000 C
ATOM     40  C4  SGN C   3       1.919  18.275  43.5440  0.00  0.00     0.000 C
ATOM     41  C5  SGN C   3       2.427  17.688  44.8420  0.00  0.00     0.000 C
ATOM     42  O5  SGN C   3       1.659  18.202  45.9400  0.00  0.00     0.000 O
ATOM     43   O  SGN C   3      -0.085  18.496  42.2060  0.00  0.00     0.000 O
ATOM     45  HD  SGN C   3       0.752  18.313  42.0800  0.00  0.00     0.000 HD
BRANCH 38 47
ATOM     45   N  SGN C   3      -1.145  18.956  45.6660  0.00  0.00     0.000 N
ATOM     47  HD  SGN C   3      -0.363  18.870  45.3040  0.00  0.00     0.000 HD
ATOM     47   S  SGN C   3      -2.697  18.846  45.3390  0.00  0.00     0.000 S
ATOM     48   O  SGN C   3      -3.050  19.652  44.2250  0.00  0.00     0.000 OA
ATOM     49   O  SGN C   3      -2.997  17.455  45.2450  0.00  0.00     0.000 OA
ATOM     50   O  SGN C   3      -3.294  19.447  46.5310  0.00  0.00     0.000 OA
ENDBRANCH 38 47
BRANCH 41 51
ATOM     51   C  SGN C   3       3.874  17.985  45.1270  0.00  0.00     0.000 C
ATOM     52   O  SGN C   3       5.315  19.367  48.2720  0.00  0.00     0.000 OA
ATOM     53   O  SGN C   3       6.253  17.797  46.7280  0.00  0.00     0.000 OA
ATOM     54   O  SGN C   3       5.813  20.057  46.0480  0.00  0.00     0.000 OA
ATOM     55   O  SGN C   3       3.991  18.449  46.4540  0.00  0.00     0.000 O
ATOM     56   S  SGN C   3       5.483  18.967  46.9170  0.00  0.00     0.000 S
ENDBRANCH 41 51
BRANCH 37 57
ATOM     57  O4  IDS C   4       0.244  16.455  45.9770  0.00  0.00     0.000 O
BRANCH 57 61
ATOM     58  C1  IDS C   4      -0.936  13.219  47.5910  0.00  0.00     0.000 C
ATOM     59  C2  IDS C   4      -1.939  14.297  47.3270  0.00  0.00     0.000 C
ATOM     60  C3  IDS C   4      -1.395  15.697  47.6240  0.00  0.00     0.000 C
ATOM     61  C4  IDS C   4       0.075  15.937  47.3100  0.00  0.00     0.000 C
ATOM     62  C5  IDS C   4       0.889  14.653  47.5070  0.00  0.00     0.000 C
ATOM     63  O5  IDS C   4       0.261  13.533  46.9010  0.00  0.00     0.000 O
ATOM     64   O  IDS C   4      -1.591  15.885  49.0130  0.00  0.00     0.000 O
ATOM     66  HD  IDS C   4      -0.829  15.923  49.4240  0.00  0.00     0.000 HD
BRANCH 59 66
ATOM     66   O  IDS C   4      -2.367  14.306  45.9150  0.00  0.00     0.000 O
ATOM     67   S  IDS C   4      -3.846  13.801  45.6170  0.00  0.00     0.000 S
ATOM     68   O  IDS C   4      -4.669  14.786  46.2770  0.00  0.00     0.000 OA
ATOM     69   O  IDS C   4      -3.952  13.785  44.1720  0.00  0.00     0.000 OA
ATOM     70   O  IDS C   4      -3.984  12.489  46.2310  0.00  0.00     0.000 OA
ENDBRANCH 59 66
BRANCH 62 71
ATOM     71   C  IDS C   4       2.274  14.727  46.8920  0.00  0.00     0.000 C
ATOM     72   O  IDS C   4       3.140  15.398  47.4190  0.00  0.00     0.000 OA
ATOM     73   O  IDS C   4       2.465  14.174  45.7900  0.00  0.00     0.000 OA
ENDBRANCH 62 71
BRANCH 58 74
ATOM     74  O4  SGN C   5      -0.869  12.802  48.8870  0.00  0.00     0.000 O
BRANCH 74 78
ATOM     75  C1  SGN C   5      -0.592   9.547  51.4900  0.00  0.00     0.000 C
ATOM     76  C2  SGN C   5       0.690   9.900  50.7110  0.00  0.00     0.000 C
ATOM     77  C3  SGN C   5       0.568  11.288  50.0680  0.00  0.00     0.000 C
ATOM     78  C4  SGN C   5      -0.751  11.448  49.3240  0.00  0.00     0.000 C
ATOM     79  C5  SGN C   5      -1.902  11.083  50.2500  0.00  0.00     0.000 C
ATOM     80  O5  SGN C   5      -1.754   9.706  50.6880  0.00  0.00     0.000 O
ATOM     81   O  SGN C   5       1.667  11.485  49.1840  0.00  0.00     0.000 O
ATOM     83  HD  SGN C   5       2.458  11.186  49.3690  0.00  0.00     0.000 HD
BRANCH 76 85
ATOM     83   N  SGN C   5       1.718   8.863  50.8640  0.00  0.00     0.000 N
ATOM     85  HD  SGN C   5       2.175   8.301  51.3380  0.00  0.00     0.000 HD
ATOM     85   S  SGN C   5       2.806   8.668  52.0350  0.00  0.00     0.000 S
ATOM     86   O  SGN C   5       3.579   7.497  51.8040  0.00  0.00     0.000 OA
ATOM     87   O  SGN C   5       3.512   9.893  52.1600  0.00  0.00     0.000 OA
ATOM     88   O  SGN C   5       1.800   8.435  53.1590  0.00  0.00     0.000 OA
ENDBRANCH 76 85
BRANCH 79 89
ATOM     89   C  SGN C   5      -3.266  11.234  49.6060  0.00  0.00     0.000 C
ATOM     90   O  SGN C   5      -4.024  10.011  49.7720  0.00  0.00     0.000 O
ATOM     91   S  SGN C   5      -5.617  10.161  49.8940  0.00  0.00     0.000 S
ATOM     92   O  SGN C   5      -5.856  11.124  50.9370  0.00  0.00     0.000 OA
ATOM     93   O  SGN C   5      -6.100  10.608  48.6120  0.00  0.00     0.000 OA
ATOM     94   O  SGN C   5      -6.050   8.833  50.2320  0.00  0.00     0.000 OA
ENDBRANCH 79 89
BRANCH 75 95
ATOM     95  O4  BDP C   6      -0.638  10.417  52.5430  0.00  0.00     0.000 O
BRANCH 95 99
ATOM     96  C1  BDP C   6      -2.882   9.727  56.1390  0.00  0.00     0.000 C
ATOM     97  C2  BDP C   6      -2.849   8.650  55.0920  0.00  0.00     0.000 C
ATOM     98  C3  BDP C   6      -1.739   8.819  54.0440  0.00  0.00     0.000 C
ATOM     99  C4  BDP C   6      -1.713  10.236  53.4900  0.00  0.00     0.000 C
ATOM    100  C5  BDP C   6      -1.715  11.217  54.6850  0.00  0.00     0.000 C
ATOM    101  O5  BDP C   6      -2.942  10.912  55.3690  0.00  0.00     0.000 O
BRANCH 100 102
ATOM    102   C  BDP C   6      -1.770  12.660  54.2530  0.00  0.00     0.000 C
ATOM    103   O  BDP C   6      -2.120  13.568  55.0210  0.00  0.00     0.000 OA
ATOM    104   O  BDP C   6      -1.434  12.908  53.0890  0.00  0.00     0.000 OA
ENDBRANCH 100 102
ENDBRANCH 95 99
ENDBRANCH 75 95
ENDBRANCH 74 78
ENDBRANCH 58 74
ENDBRANCH 57 61
ENDBRANCH 37 57
ENDBRANCH 36 40
ENDBRANCH 23 36
ENDBRANCH 22 26
ENDBRANCH 1 22
TORSDOF 20
ENDMDL
MODEL 87
REMARK VINA RESULT:      -2.6     10.396     16.879
ROOT
ATOM      1  C1  NGY C   1       3.202  12.512  51.0910  0.00  0.00     0.000 C
ATOM      2  C2  NGY C   1       2.780  13.249  52.3550  0.00  0.00     0.000 C
ATOM      3  C3  NGY C   1       3.672  14.465  52.5810  0.00  0.00     0.000 C
ATOM      4  C4  NGY C   1       5.116  14.000  52.5890  0.00  0.00     0.000 C
ATOM      5  C5  NGY C   1       5.431  13.357  51.2420  0.00  0.00     0.000 C
ATOM      6  O5  NGY C   1       4.577  12.195  51.0820  0.00  0.00     0.000 O
ATOM      7   O  NGY C   1       3.306  15.092  53.8010  0.00  0.00     0.000 O
ATOM      9  HD  NGY C   1       3.035  14.849  54.5870  0.00  0.00     0.000 HD
ATOM      9   O  NGY C   1       5.999  15.087  52.8300  0.00  0.00     0.000 O
ATOM     11  HD  NGY C   1       5.727  14.843  53.6150  0.00  0.00     0.000 HD
ENDROOT
BRANCH 2 13
ATOM     11   N  NGY C   1       1.347  13.129  52.2220  0.00  0.00     0.000 N
ATOM     13  HD  NGY C   1       1.116  13.381  53.0170  0.00  0.00     0.000 HD
ATOM     13   C  NGY C   1       0.525  13.418  53.2300  0.00  0.00     0.000 C
ATOM     14   O  NGY C   1       0.961  13.660  54.3570  0.00  0.00     0.000 OA
ATOM     15   C  NGY C   1      -0.939  13.458  52.9140  0.00  0.00     0.000 C
ENDBRANCH 2 13
BRANCH 5 16
ATOM     16   C  NGY C   1       6.831  12.853  51.0900  0.00  0.00     0.000 C
ATOM     17   O  NGY C   1       8.035  10.992  48.1670  0.00  0.00     0.000 OA
ATOM     18   O  NGY C   1       6.890  11.996  49.9470  0.00  0.00     0.000 O
ATOM     19   S  NGY C   1       8.327  11.734  49.3670  0.00  0.00     0.000 S
ATOM     20   O  NGY C   1       9.040  10.947  50.3380  0.00  0.00     0.000 OA
ATOM     21   O  NGY C   1       8.889  13.060  49.1680  0.00  0.00     0.000 OA
ENDBRANCH 5 16
BRANCH 1 22
ATOM     22  O4  BDP C   2       2.830  13.242  50.0180  0.00  0.00     0.000 O
BRANCH 22 26
ATOM     23  C1  BDP C   2       1.398  13.495  46.1650  0.00  0.00     0.000 C
ATOM     24  C2  BDP C   2       0.612  12.599  47.0930  0.00  0.00     0.000 C
ATOM     25  C3  BDP C   2       1.007  12.878  48.5190  0.00  0.00     0.000 C
ATOM     26  C4  BDP C   2       2.520  12.777  48.6780  0.00  0.00     0.000 C
ATOM     27  C5  BDP C   2       3.209  13.580  47.5820  0.00  0.00     0.000 C
ATOM     28  O5  BDP C   2       2.813  13.165  46.2500  0.00  0.00     0.000 O
ATOM     29   O  BDP C   2      -0.787  12.884  47.0690  0.00  0.00     0.000 O
ATOM     31  HD  BDP C   2      -1.211  12.806  47.8200  0.00  0.00     0.000 HD
ATOM     31   O  BDP C   2       0.364  11.898  49.3250  0.00  0.00     0.000 O
ATOM     33  HD  BDP C   2      -0.060  11.819  50.0760  0.00  0.00     0.000 HD
BRANCH 27 33
ATOM     33   C  BDP C   2       4.713  13.442  47.6240  0.00  0.00     0.000 C
ATOM     34   O  BDP C   2       5.457  14.380  47.9970  0.00  0.00     0.000 OA
ATOM     35   O  BDP C   2       5.210  12.392  47.2500  0.00  0.00     0.000 OA
ENDBRANCH 27 33
BRANCH 23 36
ATOM     36  O4  SGN C   3       1.041  13.434  44.8610  0.00  0.00     0.000 O
BRANCH 36 40
ATOM     37  C1  SGN C   3       0.870  15.483  41.2280  0.00  0.00     0.000 C
ATOM     38  C2  SGN C   3       2.256  15.080  41.7550  0.00  0.00     0.000 C
ATOM     39  C3  SGN C   3       2.128  13.995  42.8140  0.00  0.00     0.000 C
ATOM     40  C4  SGN C   3       1.214  14.492  43.9140  0.00  0.00     0.000 C
ATOM     41  C5  SGN C   3      -0.113  14.887  43.3040  0.00  0.00     0.000 C
ATOM     42  O5  SGN C   3       0.090  15.922  42.3290  0.00  0.00     0.000 O
ATOM     43   O  SGN C   3       3.418  13.685  43.3260  0.00  0.00     0.000 O
ATOM     45  HD  SGN C   3       2.815  13.523  43.9270  0.00  0.00     0.000 HD
BRANCH 38 47
ATOM     45   N  SGN C   3       2.619  16.178  40.8410  0.00  0.00     0.000 N
ATOM     47  HD  SGN C   3       2.227  15.923  41.5700  0.00  0.00     0.000 HD
ATOM     47   S  SGN C   3       3.740  15.742  39.8010  0.00  0.00     0.000 S
ATOM     48   O  SGN C   3       4.974  15.475  40.4510  0.00  0.00     0.000 OA
ATOM     49   O  SGN C   3       3.184  14.686  39.0200  0.00  0.00     0.000 OA
ATOM     50   O  SGN C   3       3.905  16.963  39.0140  0.00  0.00     0.000 OA
ENDBRANCH 38 47
BRANCH 41 51
ATOM     51   C  SGN C   3      -1.121  15.397  44.2980  0.00  0.00     0.000 C
ATOM     52   O  SGN C   3      -4.253  13.709  45.4030  0.00  0.00     0.000 OA
ATOM     53   O  SGN C   3      -2.765  15.120  46.6380  0.00  0.00     0.000 OA
ATOM     54   O  SGN C   3      -4.004  15.993  44.7760  0.00  0.00     0.000 OA
ATOM     55   O  SGN C   3      -2.130  14.425  44.4640  0.00  0.00     0.000 O
ATOM     56   S  SGN C   3      -3.407  14.854  45.4080  0.00  0.00     0.000 S
ENDBRANCH 41 51
BRANCH 37 57
ATOM     57  O4  IDS C   4       0.194  14.492  40.5970  0.00  0.00     0.000 O
BRANCH 57 61
ATOM     58  C1  IDS C   4      -1.761  12.762  37.8300  0.00  0.00     0.000 C
ATOM     59  C2  IDS C   4      -0.276  12.595  37.8720  0.00  0.00     0.000 C
ATOM     60  C3  IDS C   4       0.455  13.888  38.2430  0.00  0.00     0.000 C
ATOM     61  C4  IDS C   4      -0.233  14.793  39.2550  0.00  0.00     0.000 C
ATOM     62  C5  IDS C   4      -1.758  14.689  39.1280  0.00  0.00     0.000 C
ATOM     63  O5  IDS C   4      -2.189  13.337  39.0530  0.00  0.00     0.000 O
ATOM     64   O  IDS C   4       0.591  14.600  37.0280  0.00  0.00     0.000 O
ATOM     66  HD  IDS C   4       0.113  15.322  37.0440  0.00  0.00     0.000 HD
BRANCH 59 66
ATOM     66   O  IDS C   4       0.129  11.585  38.8690  0.00  0.00     0.000 O
ATOM     67   S  IDS C   4       0.990  10.360  38.3310  0.00  0.00     0.000 S
ATOM     68   O  IDS C   4       2.216  10.986  37.8960  0.00  0.00     0.000 OA
ATOM     69   O  IDS C   4       1.128   9.473  39.4690  0.00  0.00     0.000 OA
ATOM     70   O  IDS C   4       0.260   9.778  37.2160  0.00  0.00     0.000 OA
ENDBRANCH 59 66
BRANCH 62 71
ATOM     71   C  IDS C   4      -2.495  15.287  40.3110  0.00  0.00     0.000 C
ATOM     72   O  IDS C   4      -3.104  14.568  41.0790  0.00  0.00     0.000 OA
ATOM     73   O  IDS C   4      -2.546  16.530  40.4120  0.00  0.00     0.000 OA
ENDBRANCH 62 71
BRANCH 58 74
ATOM     74  O4  SGN C   5      -2.252  13.251  36.6560  0.00  0.00     0.000 O
BRANCH 74 78
ATOM     75  C1  SGN C   5      -5.402  13.217  33.9130  0.00  0.00     0.000 C
ATOM     76  C2  SGN C   5      -5.660  13.973  35.2300  0.00  0.00     0.000 C
ATOM     77  C3  SGN C   5      -4.347  14.207  35.9880  0.00  0.00     0.000 C
ATOM     78  C4  SGN C   5      -3.520  12.932  36.0830  0.00  0.00     0.000 C
ATOM     79  C5  SGN C   5      -3.344  12.337  34.6940  0.00  0.00     0.000 C
ATOM     80  O5  SGN C   5      -4.647  12.031  34.1290  0.00  0.00     0.000 O
ATOM     81   O  SGN C   5      -4.647  14.706  37.2880  0.00  0.00     0.000 O
ATOM     83  HD  SGN C   5      -5.303  15.255  37.4230  0.00  0.00     0.000 HD
BRANCH 76 85
ATOM     83   N  SGN C   5      -6.289  15.236  34.8220  0.00  0.00     0.000 N
ATOM     85  HD  SGN C   5      -6.874  15.867  34.9170  0.00  0.00     0.000 HD
ATOM     85   S  SGN C   5      -7.848  15.638  34.7880  0.00  0.00     0.000 S
ATOM     86   O  SGN C   5      -8.005  16.987  34.3650  0.00  0.00     0.000 OA
ATOM     87   O  SGN C   5      -8.522  14.643  34.0340  0.00  0.00     0.000 OA
ATOM     88   O  SGN C   5      -8.083  15.516  36.2920  0.00  0.00     0.000 OA
ENDBRANCH 76 85
BRANCH 79 89
ATOM     89   C  SGN C   5      -2.510  11.072  34.6800  0.00  0.00     0.000 C
ATOM     90   O  SGN C   5      -3.225  10.007  35.3530  0.00  0.00     0.000 O
ATOM     91   S  SGN C   5      -2.959   8.515  34.8250  0.00  0.00     0.000 S
ATOM     92   O  SGN C   5      -3.185   8.540  33.4040  0.00  0.00     0.000 OA
ATOM     93   O  SGN C   5      -1.598   8.183  35.1600  0.00  0.00     0.000 OA
ATOM     94   O  SGN C   5      -3.927   7.733  35.5450  0.00  0.00     0.000 OA
ENDBRANCH 79 89
BRANCH 75 95
ATOM     95  O4  BDP C   6      -4.691  14.076  33.1240  0.00  0.00     0.000 O
BRANCH 95 99
ATOM     96  C1  BDP C   6      -4.735  14.133  28.8290  0.00  0.00     0.000 C
ATOM     97  C2  BDP C   6      -5.730  13.268  29.5490  0.00  0.00     0.000 C
ATOM     98  C3  BDP C   6      -5.895  13.598  31.0410  0.00  0.00     0.000 C
ATOM     99  C4  BDP C   6      -4.545  13.713  31.7330  0.00  0.00     0.000 C
ATOM    100  C5  BDP C   6      -3.655  14.659  30.8920  0.00  0.00     0.000 C
ATOM    101  O5  BDP C   6      -3.569  13.996  29.6200  0.00  0.00     0.000 O
BRANCH 100 102
ATOM    102   C  BDP C   6      -2.259  14.788  31.4450  0.00  0.00     0.000 C
ATOM    103   O  BDP C   6      -1.848  15.833  31.9690  0.00  0.00     0.000 OA
ATOM    104   O  BDP C   6      -1.532  13.790  31.3650  0.00  0.00     0.000 OA
ENDBRANCH 100 102
ENDBRANCH 95 99
ENDBRANCH 75 95
ENDBRANCH 74 78
ENDBRANCH 58 74
ENDBRANCH 57 61
ENDBRANCH 37 57
ENDBRANCH 36 40
ENDBRANCH 23 36
ENDBRANCH 22 26
ENDBRANCH 1 22
TORSDOF 20
ENDMDL
MODEL 88
REMARK VINA RESULT:      -2.6      7.449     11.501
ROOT
ATOM      1  C1  NGY C   1      14.251  12.792  46.3870  0.00  0.00     0.000 C
ATOM      2  C2  NGY C   1      14.928  13.122  47.7090  0.00  0.00     0.000 C
ATOM      3  C3  NGY C   1      15.274  14.607  47.7690  0.00  0.00     0.000 C
ATOM      4  C4  NGY C   1      16.103  14.952  46.5460  0.00  0.00     0.000 C
ATOM      5  C5  NGY C   1      15.280  14.651  45.2960  0.00  0.00     0.000 C
ATOM      6  O5  NGY C   1      14.997  13.228  45.2700  0.00  0.00     0.000 O
ATOM      7   O  NGY C   1      15.969  14.876  48.9780  0.00  0.00     0.000 O
ATOM      9  HD  NGY C   1      16.550  14.477  49.4820  0.00  0.00     0.000 HD
ATOM      9   O  NGY C   1      16.486  16.319  46.5610  0.00  0.00     0.000 O
ATOM     11  HD  NGY C   1      17.067  15.920  47.0650  0.00  0.00     0.000 HD
ENDROOT
BRANCH 2 13
ATOM     11   N  NGY C   1      15.352  12.657  49.0090  0.00  0.00     0.000 N
ATOM     13  HD  NGY C   1      14.601  12.324  49.2830  0.00  0.00     0.000 HD
ATOM     13   C  NGY C   1      14.508  12.050  49.8420  0.00  0.00     0.000 C
ATOM     14   O  NGY C   1      13.303  11.991  49.5960  0.00  0.00     0.000 OA
ATOM     15   C  NGY C   1      15.105  11.427  51.0670  0.00  0.00     0.000 C
ENDBRANCH 2 13
BRANCH 5 16
ATOM     16   C  NGY C   1      15.962  14.950  44.0000  0.00  0.00     0.000 C
ATOM     17   O  NGY C   1      18.881  13.114  42.7470  0.00  0.00     0.000 OA
ATOM     18   O  NGY C   1      17.176  14.197  43.9340  0.00  0.00     0.000 O
ATOM     19   S  NGY C   1      17.794  14.027  42.4990  0.00  0.00     0.000 S
ATOM     20   O  NGY C   1      18.253  15.324  42.0770  0.00  0.00     0.000 OA
ATOM     21   O  NGY C   1      16.704  13.505  41.6910  0.00  0.00     0.000 OA
ENDBRANCH 5 16
BRANCH 1 22
ATOM     22  O4  BDP C   2      12.998  13.294  46.4030  0.00  0.00     0.000 O
BRANCH 22 26
ATOM     23  C1  BDP C   2       9.013  13.076  45.3860  0.00  0.00     0.000 C
ATOM     24  C2  BDP C   2       9.573  11.858  46.0820  0.00  0.00     0.000 C
ATOM     25  C3  BDP C   2      10.897  12.202  46.7130  0.00  0.00     0.000 C
ATOM     26  C4  BDP C   2      11.831  12.822  45.6800  0.00  0.00     0.000 C
ATOM     27  C5  BDP C   2      11.102  13.922  44.9190  0.00  0.00     0.000 C
ATOM     28  O5  BDP C   2       9.885  13.453  44.2830  0.00  0.00     0.000 O
ATOM     29   O  BDP C   2       8.770  11.446  47.1870  0.00  0.00     0.000 O
ATOM     31  HD  BDP C   2       9.190  11.128  47.8750  0.00  0.00     0.000 HD
ATOM     31   O  BDP C   2      11.449  10.986  47.2030  0.00  0.00     0.000 O
ATOM     33  HD  BDP C   2      11.869  10.668  47.8910  0.00  0.00     0.000 HD
BRANCH 27 33
ATOM     33   C  BDP C   2      11.942  14.513  43.8120  0.00  0.00     0.000 C
ATOM     34   O  BDP C   2      12.017  15.750  43.6210  0.00  0.00     0.000 OA
ATOM     35   O  BDP C   2      12.534  13.752  43.0640  0.00  0.00     0.000 OA
ENDBRANCH 27 33
BRANCH 23 36
ATOM     36  O4  SGN C   3       7.762  12.934  44.8880  0.00  0.00     0.000 O
BRANCH 36 40
ATOM     37  C1  SGN C   3       4.131  14.992  44.7740  0.00  0.00     0.000 C
ATOM     38  C2  SGN C   3       5.381  15.772  45.2150  0.00  0.00     0.000 C
ATOM     39  C3  SGN C   3       6.644  15.037  44.7900  0.00  0.00     0.000 C
ATOM     40  C4  SGN C   3       6.608  13.635  45.3590  0.00  0.00     0.000 C
ATOM     41  C5  SGN C   3       5.340  12.953  44.8960  0.00  0.00     0.000 C
ATOM     42  O5  SGN C   3       4.197  13.695  45.3470  0.00  0.00     0.000 O
ATOM     43   O  SGN C   3       7.781  15.750  45.2610  0.00  0.00     0.000 O
ATOM     45  HD  SGN C   3       7.970  14.908  45.1860  0.00  0.00     0.000 HD
BRANCH 38 47
ATOM     45   N  SGN C   3       5.317  16.978  46.0600  0.00  0.00     0.000 N
ATOM     47  HD  SGN C   3       5.690  16.215  45.8870  0.00  0.00     0.000 HD
ATOM     47   S  SGN C   3       4.453  18.131  45.3900  0.00  0.00     0.000 S
ATOM     48   O  SGN C   3       5.073  18.625  44.2110  0.00  0.00     0.000 OA
ATOM     49   O  SGN C   3       3.128  17.622  45.2510  0.00  0.00     0.000 OA
ATOM     50   O  SGN C   3       4.523  19.182  46.4040  0.00  0.00     0.000 OA
ENDBRANCH 38 47
BRANCH 41 51
ATOM     51   C  SGN C   3       5.185  11.541  45.3920  0.00  0.00     0.000 C
ATOM     52   O  SGN C   3       5.698  10.303  48.8680  0.00  0.00     0.000 OA
ATOM     53   O  SGN C   3       4.139   9.571  47.2040  0.00  0.00     0.000 OA
ATOM     54   O  SGN C   3       6.501   9.303  46.8610  0.00  0.00     0.000 OA
ATOM     55   O  SGN C   3       5.424  11.517  46.7820  0.00  0.00     0.000 O
ATOM     56   S  SGN C   3       5.443  10.034  47.4940  0.00  0.00     0.000 S
ENDBRANCH 41 51
BRANCH 37 57
ATOM     57  O4  IDS C   4       3.993  14.855  43.4330  0.00  0.00     0.000 O
BRANCH 57 61
ATOM     58  C1  IDS C   4       1.486  15.432  40.6300  0.00  0.00     0.000 C
ATOM     59  C2  IDS C   4       1.297  16.159  41.9240  0.00  0.00     0.000 C
ATOM     60  C3  IDS C   4       1.604  15.286  43.1440  0.00  0.00     0.000 C
ATOM     61  C4  IDS C   4       2.743  14.287  42.9960  0.00  0.00     0.000 C
ATOM     62  C5  IDS C   4       2.844  13.787  41.5500  0.00  0.00     0.000 C
ATOM     63  O5  IDS C   4       2.781  14.856  40.6180  0.00  0.00     0.000 O
ATOM     64   O  IDS C   4       0.411  14.567  43.3970  0.00  0.00     0.000 O
ATOM     66  HD  IDS C   4       0.529  13.722  43.2470  0.00  0.00     0.000 HD
BRANCH 59 66
ATOM     66   O  IDS C   4       2.180  17.336  42.0190  0.00  0.00     0.000 O
ATOM     67   S  IDS C   4       1.467  18.758  42.0710  0.00  0.00     0.000 S
ATOM     68   O  IDS C   4       0.742  18.717  43.3180  0.00  0.00     0.000 OA
ATOM     69   O  IDS C   4       2.550  19.721  42.0250  0.00  0.00     0.000 OA
ATOM     70   O  IDS C   4       0.568  18.829  40.9290  0.00  0.00     0.000 OA
ENDBRANCH 59 66
BRANCH 62 71
ATOM     71   C  IDS C   4       4.147  13.067  41.2590  0.00  0.00     0.000 C
ATOM     72   O  IDS C   4       4.996  13.597  40.5680  0.00  0.00     0.000 OA
ATOM     73   O  IDS C   4       4.278  11.892  41.6560  0.00  0.00     0.000 OA
ENDBRANCH 62 71
BRANCH 58 74
ATOM     74  O4  SGN C   5       0.420  14.682  40.2300  0.00  0.00     0.000 O
BRANCH 74 78
ATOM     75  C1  SGN C   5      -1.627  13.053  36.9750  0.00  0.00     0.000 C
ATOM     76  C2  SGN C   5      -0.525  12.170  37.5900  0.00  0.00     0.000 C
ATOM     77  C3  SGN C   5      -0.094  12.716  38.9580  0.00  0.00     0.000 C
ATOM     78  C4  SGN C   5       0.179  14.213  38.9040  0.00  0.00     0.000 C
ATOM     79  C5  SGN C   5      -1.020  14.925  38.2940  0.00  0.00     0.000 C
ATOM     80  O5  SGN C   5      -1.250  14.424  36.9510  0.00  0.00     0.000 O
ATOM     81   O  SGN C   5       1.066  12.012  39.3920  0.00  0.00     0.000 O
ATOM     83  HD  SGN C   5       1.169  11.167  39.2360  0.00  0.00     0.000 HD
BRANCH 76 85
ATOM     83   N  SGN C   5      -1.024  11.177  36.6320  0.00  0.00     0.000 N
ATOM     85  HD  SGN C   5      -1.425  10.435  36.4350  0.00  0.00     0.000 HD
ATOM     85   S  SGN C   5      -0.988   9.569  36.7130  0.00  0.00     0.000 S
ATOM     86   O  SGN C   5      -1.630   8.999  35.5790  0.00  0.00     0.000 OA
ATOM     87   O  SGN C   5       0.359   9.191  36.9510  0.00  0.00     0.000 OA
ATOM     88   O  SGN C   5      -1.875   9.446  37.9500  0.00  0.00     0.000 OA
ENDBRANCH 76 85
BRANCH 79 89
ATOM     89   C  SGN C   5      -0.854  16.429  38.2190  0.00  0.00     0.000 C
ATOM     90   O  SGN C   5       0.480  16.753  37.7570  0.00  0.00     0.000 O
ATOM     91   S  SGN C   5       0.639  18.100  36.8980  0.00  0.00     0.000 S
ATOM     92   O  SGN C   5      -0.327  18.019  35.8330  0.00  0.00     0.000 OA
ATOM     93   O  SGN C   5       0.385  19.202  37.7890  0.00  0.00     0.000 OA
ATOM     94   O  SGN C   5       2.001  18.041  36.4410  0.00  0.00     0.000 OA
ENDBRANCH 79 89
BRANCH 75 95
ATOM     95  O4  BDP C   6      -2.722  12.893  37.7750  0.00  0.00     0.000 O
BRANCH 95 99
ATOM     96  C1  BDP C   6      -6.828  13.153  36.5400  0.00  0.00     0.000 C
ATOM     97  C2  BDP C   6      -5.760  13.080  35.4850  0.00  0.00     0.000 C
ATOM     98  C3  BDP C   6      -4.391  12.610  36.0000  0.00  0.00     0.000 C
ATOM     99  C4  BDP C   6      -3.984  13.366  37.2550  0.00  0.00     0.000 C
ATOM    100  C5  BDP C   6      -5.169  13.319  38.2480  0.00  0.00     0.000 C
ATOM    101  O5  BDP C   6      -6.233  13.968  37.5330  0.00  0.00     0.000 O
BRANCH 100 102
ATOM    102   C  BDP C   6      -4.906  14.108  39.5060  0.00  0.00     0.000 C
ATOM    103   O  BDP C   6      -3.872  13.963  40.1740  0.00  0.00     0.000 OA
ATOM    104   O  BDP C   6      -5.769  14.927  39.8430  0.00  0.00     0.000 OA
ENDBRANCH 100 102
ENDBRANCH 95 99
ENDBRANCH 75 95
ENDBRANCH 74 78
ENDBRANCH 58 74
ENDBRANCH 57 61
ENDBRANCH 37 57
ENDBRANCH 36 40
ENDBRANCH 23 36
ENDBRANCH 22 26
ENDBRANCH 1 22
TORSDOF 20
ENDMDL
MODEL 89
REMARK VINA RESULT:      -2.4      5.410     19.236
ROOT
ATOM      1  C1  NGY C   1      12.610  10.729  46.9130  0.00  0.00     0.000 C
ATOM      2  C2  NGY C   1      12.018   9.697  45.9640  0.00  0.00     0.000 C
ATOM      3  C3  NGY C   1      11.644  10.351  44.6380  0.00  0.00     0.000 C
ATOM      4  C4  NGY C   1      10.726  11.523  44.9280  0.00  0.00     0.000 C
ATOM      5  C5  NGY C   1      11.467  12.518  45.8170  0.00  0.00     0.000 C
ATOM      6  O5  NGY C   1      11.780  11.860  47.0720  0.00  0.00     0.000 O
ATOM      7   O  NGY C   1      11.028   9.386  43.7980  0.00  0.00     0.000 O
ATOM      9  HD  NGY C   1      10.493   8.711  43.8890  0.00  0.00     0.000 HD
ATOM      9   O  NGY C   1      10.314  12.156  43.7250  0.00  0.00     0.000 O
ATOM     11  HD  NGY C   1       9.779  11.482  43.8160  0.00  0.00     0.000 HD
ENDROOT
BRANCH 2 13
ATOM     11   N  NGY C   1      12.960   8.610  46.0930  0.00  0.00     0.000 N
ATOM     13  HD  NGY C   1      12.439   7.954  45.8740  0.00  0.00     0.000 HD
ATOM     13   C  NGY C   1      12.608   7.348  45.8520  0.00  0.00     0.000 C
ATOM     14   O  NGY C   1      11.431   7.043  45.6500  0.00  0.00     0.000 OA
ATOM     15   C  NGY C   1      13.712   6.337  45.8140  0.00  0.00     0.000 C
ENDBRANCH 2 13
BRANCH 5 16
ATOM     16   C  NGY C   1      10.691  13.742  46.1860  0.00  0.00     0.000 C
ATOM     17   O  NGY C   1      10.109  14.839  49.6380  0.00  0.00     0.000 OA
ATOM     18   O  NGY C   1      10.480  13.744  47.6000  0.00  0.00     0.000 O
ATOM     19   S  NGY C   1      10.091  15.131  48.2270  0.00  0.00     0.000 S
ATOM     20   O  NGY C   1       8.772  15.458  47.7520  0.00  0.00     0.000 OA
ATOM     21   O  NGY C   1      11.120  16.046  47.7590  0.00  0.00     0.000 OA
ENDBRANCH 5 16
BRANCH 1 22
ATOM     22  O4  BDP C   2      13.850  11.051  46.4860  0.00  0.00     0.000 O
BRANCH 22 26
ATOM     23  C1  BDP C   2      17.715  12.287  47.1930  0.00  0.00     0.000 C
ATOM     24  C2  BDP C   2      17.321  10.980  47.8420  0.00  0.00     0.000 C
ATOM     25  C3  BDP C   2      16.048  10.471  47.2200  0.00  0.00     0.000 C
ATOM     26  C4  BDP C   2      14.969  11.548  47.2670  0.00  0.00     0.000 C
ATOM     27  C5  BDP C   2      15.532  12.866  46.7500  0.00  0.00     0.000 C
ATOM     28  O5  BDP C   2      16.708  13.298  47.4810  0.00  0.00     0.000 O
ATOM     29   O  BDP C   2      18.263   9.939  47.5820  0.00  0.00     0.000 O
ATOM     31  HD  BDP C   2      17.940   9.142  47.4790  0.00  0.00     0.000 HD
ATOM     31   O  BDP C   2      15.641   9.339  47.9790  0.00  0.00     0.000 O
ATOM     33  HD  BDP C   2      15.318   8.542  47.8760  0.00  0.00     0.000 HD
BRANCH 27 33
ATOM     33   C  BDP C   2      14.541  14.000  46.8620  0.00  0.00     0.000 C
ATOM     34   O  BDP C   2      14.285  14.757  45.8960  0.00  0.00     0.000 OA
ATOM     35   O  BDP C   2      14.005  14.198  47.9400  0.00  0.00     0.000 OA
ENDBRANCH 27 33
BRANCH 23 36
ATOM     36  O4  SGN C   3      18.915  12.784  47.5740  0.00  0.00     0.000 O
BRANCH 36 40
ATOM     37  C1  SGN C   3      22.354  14.224  45.6960  0.00  0.00     0.000 C
ATOM     38  C2  SGN C   3      21.737  15.082  46.8120  0.00  0.00     0.000 C
ATOM     39  C3  SGN C   3      20.794  14.248  47.6660  0.00  0.00     0.000 C
ATOM     40  C4  SGN C   3      19.745  13.626  46.7690  0.00  0.00     0.000 C
ATOM     41  C5  SGN C   3      20.439  12.822  45.6910  0.00  0.00     0.000 C
ATOM     42  O5  SGN C   3      21.296  13.681  44.9230  0.00  0.00     0.000 O
ATOM     43   O  SGN C   3      20.194  15.079  48.6510  0.00  0.00     0.000 O
ATOM     45  HD  SGN C   3      19.668  14.416  48.4650  0.00  0.00     0.000 HD
BRANCH 38 47
ATOM     45   N  SGN C   3      21.943  16.515  47.0930  0.00  0.00     0.000 N
ATOM     47  HD  SGN C   3      21.417  15.827  47.1100  0.00  0.00     0.000 HD
ATOM     47   S  SGN C   3      23.479  16.918  47.0440  0.00  0.00     0.000 S
ATOM     48   O  SGN C   3      24.211  16.301  48.0920  0.00  0.00     0.000 OA
ATOM     49   O  SGN C   3      23.927  16.662  45.7130  0.00  0.00     0.000 OA
ATOM     50   O  SGN C   3      23.419  18.352  47.3250  0.00  0.00     0.000 OA
ENDBRANCH 38 47
BRANCH 41 51
ATOM     51   C  SGN C   3      19.502  12.144  44.7290  0.00  0.00     0.000 C
ATOM     52   O  SGN C   3      17.462  13.750  42.0570  0.00  0.00     0.000 OA
ATOM     53   O  SGN C   3      18.507  11.596  42.0900  0.00  0.00     0.000 OA
ATOM     54   O  SGN C   3      16.731  12.111  43.6230  0.00  0.00     0.000 OA
ATOM     55   O  SGN C   3      18.971  13.112  43.8520  0.00  0.00     0.000 O
ATOM     56   S  SGN C   3      17.808  12.593  42.8090  0.00  0.00     0.000 S
ENDBRANCH 41 51
BRANCH 37 57
ATOM     57  O4  IDS C   4      23.129  13.201  46.1320  0.00  0.00     0.000 O
BRANCH 57 61
ATOM     58  C1  IDS C   4      26.538  11.559  46.5270  0.00  0.00     0.000 C
ATOM     59  C2  IDS C   4      26.432  13.041  46.6930  0.00  0.00     0.000 C
ATOM     60  C3  IDS C   4      25.482  13.684  45.6780  0.00  0.00     0.000 C
ATOM     61  C4  IDS C   4      24.252  12.876  45.2900  0.00  0.00     0.000 C
ATOM     62  C5  IDS C   4      24.553  11.373  45.3340  0.00  0.00     0.000 C
ATOM     63  O5  IDS C   4      25.232  11.006  46.5260  0.00  0.00     0.000 O
ATOM     64   O  IDS C   4      26.264  13.892  44.5170  0.00  0.00     0.000 O
ATOM     66  HD  IDS C   4      25.989  13.384  43.8720  0.00  0.00     0.000 HD
BRANCH 59 66
ATOM     66   O  IDS C   4      25.922  13.402  48.0300  0.00  0.00     0.000 O
ATOM     67   S  IDS C   4      26.983  13.989  49.0600  0.00  0.00     0.000 S
ATOM     68   O  IDS C   4      27.381  15.234  48.4490  0.00  0.00     0.000 OA
ATOM     69   O  IDS C   4      26.256  14.125  50.3070  0.00  0.00     0.000 OA
ATOM     70   O  IDS C   4      28.088  13.044  49.1240  0.00  0.00     0.000 OA
ENDBRANCH 59 66
BRANCH 62 71
ATOM     71   C  IDS C   4      23.303  10.515  45.2960  0.00  0.00     0.000 C
ATOM     72   O  IDS C   4      22.675  10.398  44.2610  0.00  0.00     0.000 OA
ATOM     73   O  IDS C   4      22.885  10.026  46.3650  0.00  0.00     0.000 OA
ENDBRANCH 62 71
BRANCH 58 74
ATOM     74  O4  SGN C   5      27.435  11.148  45.5860  0.00  0.00     0.000 O
BRANCH 74 78
ATOM     75  C1  SGN C   5      31.531  10.728  44.8820  0.00  0.00     0.000 C
ATOM     76  C2  SGN C   5      31.089  10.673  46.3570  0.00  0.00     0.000 C
ATOM     77  C3  SGN C   5      29.569  10.494  46.4620  0.00  0.00     0.000 C
ATOM     78  C4  SGN C   5      28.826  11.470  45.5610  0.00  0.00     0.000 C
ATOM     79  C5  SGN C   5      29.373  11.371  44.1450  0.00  0.00     0.000 C
ATOM     80  O5  SGN C   5      30.789  11.693  44.1480  0.00  0.00     0.000 O
ATOM     81   O  SGN C   5      29.176  10.668  47.8200  0.00  0.00     0.000 O
ATOM     83  HD  SGN C   5      29.669  10.388  48.4750  0.00  0.00     0.000 HD
BRANCH 76 85
ATOM     83   N  SGN C   5      31.643   9.782  47.3850  0.00  0.00     0.000 N
ATOM     85  HD  SGN C   5      32.202   9.598  48.0200  0.00  0.00     0.000 HD
ATOM     85   S  SGN C   5      33.179   9.511  47.7830  0.00  0.00     0.000 S
ATOM     86   O  SGN C   5      33.257   8.600  48.8730  0.00  0.00     0.000 OA
ATOM     87   O  SGN C   5      33.864   9.154  46.5930  0.00  0.00     0.000 OA
ATOM     88   O  SGN C   5      33.483  10.933  48.2490  0.00  0.00     0.000 OA
ENDBRANCH 76 85
BRANCH 79 89
ATOM     89   C  SGN C   5      28.677  12.292  43.1630  0.00  0.00     0.000 C
ATOM     90   O  SGN C   5      28.287  11.546  41.9840  0.00  0.00     0.000 O
ATOM     91   S  SGN C   5      26.958  12.036  41.2290  0.00  0.00     0.000 S
ATOM     92   O  SGN C   5      25.923  12.101  42.2280  0.00  0.00     0.000 OA
ATOM     93   O  SGN C   5      27.248  13.323  40.6520  0.00  0.00     0.000 OA
ATOM     94   O  SGN C   5      26.740  11.009  40.2460  0.00  0.00     0.000 OA
ENDBRANCH 79 89
BRANCH 75 95
ATOM     95  O4  BDP C   6      31.291   9.482  44.3760  0.00  0.00     0.000 O
BRANCH 95 99
ATOM     96  C1  BDP C   6      33.394   7.245  41.3730  0.00  0.00     0.000 C
ATOM     97  C2  BDP C   6      34.178   8.154  42.2760  0.00  0.00     0.000 C
ATOM     98  C3  BDP C   6      33.421   8.604  43.5350  0.00  0.00     0.000 C
ATOM     99  C4  BDP C   6      32.027   9.108  43.1910  0.00  0.00     0.000 C
ATOM    100  C5  BDP C   6      31.344   8.050  42.2930  0.00  0.00     0.000 C
ATOM    101  O5  BDP C   6      32.205   7.977  41.1450  0.00  0.00     0.000 O
BRANCH 100 102
ATOM    102   C  BDP C   6      29.978   8.480  41.8230  0.00  0.00     0.000 C
ATOM    103   O  BDP C   6      29.806   9.086  40.7560  0.00  0.00     0.000 OA
ATOM    104   O  BDP C   6      29.020   8.189  42.5500  0.00  0.00     0.000 OA
ENDBRANCH 100 102
ENDBRANCH 95 99
ENDBRANCH 75 95
ENDBRANCH 74 78
ENDBRANCH 58 74
ENDBRANCH 57 61
ENDBRANCH 37 57
ENDBRANCH 36 40
ENDBRANCH 23 36
ENDBRANCH 22 26
ENDBRANCH 1 22
TORSDOF 20
ENDMDL
MODEL 90
REMARK VINA RESULT:      -2.3     16.251     22.894
ROOT
ATOM      1  C1  NGY C   1      29.889  14.169  55.3890  0.00  0.00     0.000 C
ATOM      2  C2  NGY C   1      31.118  14.094  56.2840  0.00  0.00     0.000 C
ATOM      3  C3  NGY C   1      31.195  12.731  56.9650  0.00  0.00     0.000 C
ATOM      4  C4  NGY C   1      29.885  12.488  57.6910  0.00  0.00     0.000 C
ATOM      5  C5  NGY C   1      28.749  12.507  56.6730  0.00  0.00     0.000 C
ATOM      6  O5  NGY C   1      28.700  13.826  56.0700  0.00  0.00     0.000 O
ATOM      7   O  NGY C   1      32.307  12.712  57.8480  0.00  0.00     0.000 O
ATOM      9  HD  NGY C   1      32.707  13.265  58.3800  0.00  0.00     0.000 HD
ATOM      9   O  NGY C   1      29.907  11.244  58.3760  0.00  0.00     0.000 O
ATOM     11  HD  NGY C   1      30.308  11.798  58.9080  0.00  0.00     0.000 HD
ENDROOT
BRANCH 2 13
ATOM     11   N  NGY C   1      32.392  14.214  55.6150  0.00  0.00     0.000 N
ATOM     13  HD  NGY C   1      32.686  14.925  56.0130  0.00  0.00     0.000 HD
ATOM     13   C  NGY C   1      33.240  15.202  55.9000  0.00  0.00     0.000 C
ATOM     14   O  NGY C   1      32.910  16.131  56.6390  0.00  0.00     0.000 OA
ATOM     15   C  NGY C   1      34.610  15.106  55.3000  0.00  0.00     0.000 C
ENDBRANCH 2 13
BRANCH 5 16
ATOM     16   C  NGY C   1      27.385  12.271  57.2380  0.00  0.00     0.000 C
ATOM     17   O  NGY C   1      25.645  14.628  59.4460  0.00  0.00     0.000 OA
ATOM     18   O  NGY C   1      27.112  13.278  58.2160  0.00  0.00     0.000 O
ATOM     19   S  NGY C   1      25.598  13.470  58.5890  0.00  0.00     0.000 S
ATOM     20   O  NGY C   1      25.179  12.285  59.2900  0.00  0.00     0.000 OA
ATOM     21   O  NGY C   1      24.927  13.657  57.3120  0.00  0.00     0.000 OA
ENDBRANCH 5 16
BRANCH 1 22
ATOM     22  O4  BDP C   2      30.100  13.405  54.2970  0.00  0.00     0.000 O
BRANCH 22 26
ATOM     23  C1  BDP C   2      29.607  12.607  50.2860  0.00  0.00     0.000 C
ATOM     24  C2  BDP C   2      30.351  13.881  50.6080  0.00  0.00     0.000 C
ATOM     25  C3  BDP C   2      30.777  13.866  52.0530  0.00  0.00     0.000 C
ATOM     26  C4  BDP C   2      29.578  13.592  52.9550  0.00  0.00     0.000 C
ATOM     27  C5  BDP C   2      28.803  12.389  52.4320  0.00  0.00     0.000 C
ATOM     28  O5  BDP C   2      28.373  12.554  51.0560  0.00  0.00     0.000 O
ATOM     29   O  BDP C   2      31.584  13.986  49.8960  0.00  0.00     0.000 O
ATOM     31  HD  BDP C   2      32.243  14.359  50.3150  0.00  0.00     0.000 HD
ATOM     31   O  BDP C   2      31.319  15.150  52.3380  0.00  0.00     0.000 O
ATOM     33  HD  BDP C   2      31.978  15.522  52.7570  0.00  0.00     0.000 HD
BRANCH 27 33
ATOM     33   C  BDP C   2      27.546  12.123  53.2250  0.00  0.00     0.000 C
ATOM     34   O  BDP C   2      26.688  13.015  53.4320  0.00  0.00     0.000 OA
ATOM     35   O  BDP C   2      27.386  11.013  53.7040  0.00  0.00     0.000 OA
ENDBRANCH 27 33
BRANCH 23 36
ATOM     36  O4  SGN C   3      29.283  12.439  48.9830  0.00  0.00     0.000 O
BRANCH 36 40
ATOM     37  C1  SGN C   3      28.057   9.628  46.1500  0.00  0.00     0.000 C
ATOM     38  C2  SGN C   3      26.977  10.516  46.7890  0.00  0.00     0.000 C
ATOM     39  C3  SGN C   3      27.609  11.739  47.4380  0.00  0.00     0.000 C
ATOM     40  C4  SGN C   3      28.646  11.280  48.4400  0.00  0.00     0.000 C
ATOM     41  C5  SGN C   3      29.650  10.397  47.7320  0.00  0.00     0.000 C
ATOM     42  O5  SGN C   3      28.981   9.261  47.1620  0.00  0.00     0.000 O
ATOM     43   O  SGN C   3      26.595  12.510  48.0710  0.00  0.00     0.000 O
ATOM     45  HD  SGN C   3      27.353  12.633  48.4710  0.00  0.00     0.000 HD
BRANCH 38 47
ATOM     45   N  SGN C   3      26.071   9.405  46.4460  0.00  0.00     0.000 N
ATOM     47  HD  SGN C   3      26.689   9.721  46.9640  0.00  0.00     0.000 HD
ATOM     47   S  SGN C   3      24.930   9.855  45.4350  0.00  0.00     0.000 S
ATOM     48   O  SGN C   3      24.044  10.788  46.0360  0.00  0.00     0.000 OA
ATOM     49   O  SGN C   3      25.586  10.272  44.2390  0.00  0.00     0.000 OA
ATOM     50   O  SGN C   3      24.197   8.606  45.2400  0.00  0.00     0.000 OA
ENDBRANCH 38 47
BRANCH 41 51
ATOM     51   C  SGN C   3      30.745   9.875  48.6220  0.00  0.00     0.000 C
ATOM     52   O  SGN C   3      34.247  11.123  48.8600  0.00  0.00     0.000 OA
ATOM     53   O  SGN C   3      32.835  10.210  50.5650  0.00  0.00     0.000 OA
ATOM     54   O  SGN C   3      33.546   8.852  48.7160  0.00  0.00     0.000 OA
ATOM     55   O  SGN C   3      31.899  10.663  48.4360  0.00  0.00     0.000 O
ATOM     56   S  SGN C   3      33.259  10.163  49.2170  0.00  0.00     0.000 S
ENDBRANCH 41 51
BRANCH 37 57
ATOM     57  O4  IDS C   4      28.746  10.213  45.1390  0.00  0.00     0.000 O
BRANCH 57 61
ATOM     58  C1  IDS C   4      30.003  10.503  41.5610  0.00  0.00     0.000 C
ATOM     59  C2  IDS C   4      28.535  10.335  41.7950  0.00  0.00     0.000 C
ATOM     60  C3  IDS C   4      28.224   9.340  42.9160  0.00  0.00     0.000 C
ATOM     61  C4  IDS C   4      29.186   9.323  44.0960  0.00  0.00     0.000 C
ATOM     62  C5  IDS C   4      30.609   9.671  43.6430  0.00  0.00     0.000 C
ATOM     63  O5  IDS C   4      30.628  10.810  42.7950  0.00  0.00     0.000 O
ATOM     64   O  IDS C   4      28.250   8.066  42.3010  0.00  0.00     0.000 O
ATOM     66  HD  IDS C   4      28.917   7.600  42.5980  0.00  0.00     0.000 HD
BRANCH 59 66
ATOM     66   O  IDS C   4      27.897  11.609  42.1780  0.00  0.00     0.000 O
ATOM     67   S  IDS C   4      26.918  12.264  41.1080  0.00  0.00     0.000 S
ATOM     68   O  IDS C   4      25.843  11.305  41.0180  0.00  0.00     0.000 OA
ATOM     69   O  IDS C   4      26.548  13.545  41.6760  0.00  0.00     0.000 OA
ATOM     70   O  IDS C   4      27.653  12.365  39.8570  0.00  0.00     0.000 OA
ENDBRANCH 59 66
BRANCH 62 71
ATOM     71   C  IDS C   4      31.535  10.004  44.7970  0.00  0.00     0.000 C
ATOM     72   O  IDS C   4      31.804  11.163  45.0480  0.00  0.00     0.000 OA
ATOM     73   O  IDS C   4      32.089   9.066  45.4040  0.00  0.00     0.000 OA
ENDBRANCH 62 71
BRANCH 58 74
ATOM     74  O4  SGN C   5      30.565   9.568  40.7430  0.00  0.00     0.000 O
BRANCH 74 78
ATOM     75  C1  SGN C   5      33.539   8.739  37.9300  0.00  0.00     0.000 C
ATOM     76  C2  SGN C   5      34.002   8.829  39.3970  0.00  0.00     0.000 C
ATOM     77  C3  SGN C   5      32.799   8.792  40.3490  0.00  0.00     0.000 C
ATOM     78  C4  SGN C   5      31.711   9.764  39.9140  0.00  0.00     0.000 C
ATOM     79  C5  SGN C   5      31.363   9.516  38.4540  0.00  0.00     0.000 C
ATOM     80  O5  SGN C   5      32.545   9.712  37.6340  0.00  0.00     0.000 O
ATOM     81   O  SGN C   5      33.244   9.096  41.6670  0.00  0.00     0.000 O
ATOM     83  HD  SGN C   5      34.010   8.821  41.9620  0.00  0.00     0.000 HD
BRANCH 76 85
ATOM     83   N  SGN C   5      35.202   8.223  38.8070  0.00  0.00     0.000 N
ATOM     85  HD  SGN C   5      35.823   7.620  38.7800  0.00  0.00     0.000 HD
ATOM     85   S  SGN C   5      36.492   7.591  39.5350  0.00  0.00     0.000 S
ATOM     86   O  SGN C   5      37.402   7.073  38.5730  0.00  0.00     0.000 OA
ATOM     87   O  SGN C   5      36.990   8.572  40.4310  0.00  0.00     0.000 OA
ATOM     88   O  SGN C   5      35.748   6.457  40.2360  0.00  0.00     0.000 OA
ENDBRANCH 76 85
BRANCH 79 89
ATOM     89   C  SGN C   5      30.266  10.423  37.9320  0.00  0.00     0.000 C
ATOM     90   O  SGN C   5      29.634   9.813  36.7800  0.00  0.00     0.000 O
ATOM     91   S  SGN C   5      28.078  10.138  36.5570  0.00  0.00     0.000 S
ATOM     92   O  SGN C   5      27.416   9.830  37.7970  0.00  0.00     0.000 OA
ATOM     93   O  SGN C   5      27.981  11.533  36.2130  0.00  0.00     0.000 OA
ATOM     94   O  SGN C   5      27.709   9.261  35.4780  0.00  0.00     0.000 OA
ENDBRANCH 79 89
BRANCH 75 95
ATOM     95  O4  BDP C   6      33.015   7.487  37.7810  0.00  0.00     0.000 O
BRANCH 95 99
ATOM     96  C1  BDP C   6      32.077   5.391  34.1520  0.00  0.00     0.000 C
ATOM     97  C2  BDP C   6      33.097   6.493  34.1050  0.00  0.00     0.000 C
ATOM     98  C3  BDP C   6      33.639   6.913  35.4800  0.00  0.00     0.000 C
ATOM     99  C4  BDP C   6      32.510   7.143  36.4730  0.00  0.00     0.000 C
ATOM    100  C5  BDP C   6      31.574   5.912  36.4260  0.00  0.00     0.000 C
ATOM    101  O5  BDP C   6      31.117   5.889  35.0640  0.00  0.00     0.000 O
BRANCH 100 102
ATOM    102   C  BDP C   6      30.369   6.064  37.3180  0.00  0.00     0.000 C
ATOM    103   O  BDP C   6      30.336   5.608  38.4700  0.00  0.00     0.000 OA
ATOM    104   O  BDP C   6      29.403   6.681  36.8530  0.00  0.00     0.000 OA
ENDBRANCH 100 102
ENDBRANCH 95 99
ENDBRANCH 75 95
ENDBRANCH 74 78
ENDBRANCH 58 74
ENDBRANCH 57 61
ENDBRANCH 37 57
ENDBRANCH 36 40
ENDBRANCH 23 36
ENDBRANCH 22 26
ENDBRANCH 1 22
TORSDOF 20
ENDMDL
MODEL 91
REMARK VINA RESULT:      -2.2      4.625     15.680
ROOT
ATOM      1  C1  NGY C   1       3.408  14.340  50.7710  0.00  0.00     0.000 C
ATOM      2  C2  NGY C   1       2.772  14.123  52.1370  0.00  0.00     0.000 C
ATOM      3  C3  NGY C   1       3.296  12.836  52.7660  0.00  0.00     0.000 C
ATOM      4  C4  NGY C   1       3.063  11.700  51.7880  0.00  0.00     0.000 C
ATOM      5  C5  NGY C   1       3.819  12.002  50.4970  0.00  0.00     0.000 C
ATOM      6  O5  NGY C   1       3.272  13.218  49.9250  0.00  0.00     0.000 O
ATOM      7   O  NGY C   1       2.635  12.619  54.0040  0.00  0.00     0.000 O
ATOM      9  HD  NGY C   1       1.842  12.738  54.3330  0.00  0.00     0.000 HD
ATOM      9   O  NGY C   1       3.501  10.464  52.3330  0.00  0.00     0.000 O
ATOM     11  HD  NGY C   1       2.709  10.583  52.6610  0.00  0.00     0.000 HD
ENDROOT
BRANCH 2 13
ATOM     11   N  NGY C   1       1.808  14.738  53.0190  0.00  0.00     0.000 N
ATOM     13  HD  NGY C   1       2.280  15.414  53.2840  0.00  0.00     0.000 HD
ATOM     13   C  NGY C   1       2.088  15.855  53.6900  0.00  0.00     0.000 C
ATOM     14   O  NGY C   1       3.227  16.326  53.6950  0.00  0.00     0.000 OA
ATOM     15   C  NGY C   1       0.949  16.513  54.4060  0.00  0.00     0.000 C
ENDBRANCH 2 13
BRANCH 5 16
ATOM     16   C  NGY C   1       3.695  10.962  49.4300  0.00  0.00     0.000 C
ATOM     17   O  NGY C   1       6.230  10.362  46.8480  0.00  0.00     0.000 OA
ATOM     18   O  NGY C   1       4.747  11.151  48.4800  0.00  0.00     0.000 O
ATOM     19   S  NGY C   1       5.055   9.919  47.5540  0.00  0.00     0.000 S
ATOM     20   O  NGY C   1       3.923   9.749  46.6810  0.00  0.00     0.000 OA
ATOM     21   O  NGY C   1       5.251   8.810  48.4730  0.00  0.00     0.000 OA
ENDBRANCH 5 16
BRANCH 1 22
ATOM     22  O4  BDP C   2       4.696  14.706  50.9450  0.00  0.00     0.000 O
BRANCH 22 26
ATOM     23  C1  BDP C   2       8.019  16.622  49.4450  0.00  0.00     0.000 C
ATOM     24  C2  BDP C   2       6.689  17.158  48.9680  0.00  0.00     0.000 C
ATOM     25  C3  BDP C   2       5.587  16.632  49.8500  0.00  0.00     0.000 C
ATOM     26  C4  BDP C   2       5.659  15.112  49.9370  0.00  0.00     0.000 C
ATOM     27  C5  BDP C   2       7.086  14.679  50.2510  0.00  0.00     0.000 C
ATOM     28  O5  BDP C   2       8.048  15.176  49.2860  0.00  0.00     0.000 O
ATOM     29   O  BDP C   2       6.590  18.575  49.1130  0.00  0.00     0.000 O
ATOM     31  HD  BDP C   2       5.811  18.888  49.3270  0.00  0.00     0.000 HD
ATOM     31   O  BDP C   2       4.357  17.030  49.2570  0.00  0.00     0.000 O
ATOM     33  HD  BDP C   2       3.579  17.344  49.4710  0.00  0.00     0.000 HD
BRANCH 27 33
ATOM     33   C  BDP C   2       7.246  13.177  50.2550  0.00  0.00     0.000 C
ATOM     34   O  BDP C   2       7.231  12.509  51.3160  0.00  0.00     0.000 OA
ATOM     35   O  BDP C   2       7.430  12.611  49.1900  0.00  0.00     0.000 OA
ENDBRANCH 27 33
BRANCH 23 36
ATOM     36  O4  SGN C   3       9.105  17.125  48.8140  0.00  0.00     0.000 O
BRANCH 36 40
ATOM     37  C1  SGN C   3      13.051  18.192  49.6630  0.00  0.00     0.000 C
ATOM     38  C2  SGN C   3      12.296  17.357  50.7100  0.00  0.00     0.000 C
ATOM     39  C3  SGN C   3      11.076  16.697  50.0850  0.00  0.00     0.000 C
ATOM     40  C4  SGN C   3      10.206  17.768  49.4630  0.00  0.00     0.000 C
ATOM     41  C5  SGN C   3      11.032  18.551  48.4680  0.00  0.00     0.000 C
ATOM     42  O5  SGN C   3      12.152  19.154  49.1350  0.00  0.00     0.000 O
ATOM     43   O  SGN C   3      10.365  15.981  51.0870  0.00  0.00     0.000 O
ATOM     45  HD  SGN C   3       9.821  16.231  50.4620  0.00  0.00     0.000 HD
BRANCH 38 47
ATOM     45   N  SGN C   3      12.601  17.136  52.1350  0.00  0.00     0.000 N
ATOM     47  HD  SGN C   3      12.008  17.190  51.5060  0.00  0.00     0.000 HD
ATOM     47   S  SGN C   3      14.149  16.866  52.3790  0.00  0.00     0.000 S
ATOM     48   O  SGN C   3      14.559  15.639  51.7920  0.00  0.00     0.000 OA
ATOM     49   O  SGN C   3      14.840  18.040  51.9590  0.00  0.00     0.000 OA
ATOM     50   O  SGN C   3      14.196  16.703  53.8310  0.00  0.00     0.000 OA
ENDBRANCH 38 47
BRANCH 41 51
ATOM     51   C  SGN C   3      10.278  19.651  47.7720  0.00  0.00     0.000 C
ATOM     52   O  SGN C   3       9.220  19.750  44.2010  0.00  0.00     0.000 OA
ATOM     53   O  SGN C   3       8.129  20.637  46.1390  0.00  0.00     0.000 OA
ATOM     54   O  SGN C   3      10.254  21.505  45.4350  0.00  0.00     0.000 OA
ATOM     55   O  SGN C   3      10.038  19.265  46.4370  0.00  0.00     0.000 O
ATOM     56   S  SGN C   3       9.347  20.397  45.4630  0.00  0.00     0.000 S
ENDBRANCH 41 51
BRANCH 37 57
ATOM     57  O4  IDS C   4      13.561  17.477  48.6300  0.00  0.00     0.000 O
BRANCH 57 61
ATOM     58  C1  IDS C   4      16.461  16.112  46.5820  0.00  0.00     0.000 C
ATOM     59  C2  IDS C   4      16.539  16.039  48.0740  0.00  0.00     0.000 C
ATOM     60  C3  IDS C   4      15.996  17.297  48.7570  0.00  0.00     0.000 C
ATOM     61  C4  IDS C   4      14.803  17.971  48.0930  0.00  0.00     0.000 C
ATOM     62  C5  IDS C   4      14.853  17.789  46.5710  0.00  0.00     0.000 C
ATOM     63  O5  IDS C   4      15.134  16.444  46.2110  0.00  0.00     0.000 O
ATOM     64   O  IDS C   4      17.076  18.211  48.7670  0.00  0.00     0.000 O
ATOM     66  HD  IDS C   4      16.907  18.886  48.2510  0.00  0.00     0.000 HD
BRANCH 59 66
ATOM     66   O  IDS C   4      15.757  14.905  48.6030  0.00  0.00     0.000 O
ATOM     67   S  IDS C   4      16.567  13.575  48.9320  0.00  0.00     0.000 S
ATOM     68   O  IDS C   4      17.439  13.980  50.0090  0.00  0.00     0.000 OA
ATOM     69   O  IDS C   4      15.556  12.603  49.2970  0.00  0.00     0.000 OA
ATOM     70   O  IDS C   4      17.318  13.222  47.7370  0.00  0.00     0.000 OA
ENDBRANCH 59 66
BRANCH 62 71
ATOM     71   C  IDS C   4      13.543  18.130  45.8880  0.00  0.00     0.000 C
ATOM     72   O  IDS C   4      12.775  17.244  45.5640  0.00  0.00     0.000 OA
ATOM     73   O  IDS C   4      13.326  19.319  45.5790  0.00  0.00     0.000 OA
ENDBRANCH 62 71
BRANCH 58 74
ATOM     74  O4  SGN C   5      17.502  16.758  45.9820  0.00  0.00     0.000 O
BRANCH 74 78
ATOM     75  C1  SGN C   5      19.240  17.827  42.3380  0.00  0.00     0.000 C
ATOM     76  C2  SGN C   5      18.308  18.875  42.9760  0.00  0.00     0.000 C
ATOM     77  C3  SGN C   5      18.014  18.520  44.4390  0.00  0.00     0.000 C
ATOM     78  C4  SGN C   5      17.608  17.061  44.5910  0.00  0.00     0.000 C
ATOM     79  C5  SGN C   5      18.650  16.172  43.9280  0.00  0.00     0.000 C
ATOM     80  O5  SGN C   5      18.745  16.506  42.5180  0.00  0.00     0.000 O
ATOM     81   O  SGN C   5      16.986  19.378  44.9250  0.00  0.00     0.000 O
ATOM     83  HD  SGN C   5      16.938  20.209  44.6860  0.00  0.00     0.000 HD
BRANCH 76 85
ATOM     83   N  SGN C   5      18.888  19.709  41.9160  0.00  0.00     0.000 N
ATOM     85  HD  SGN C   5      19.315  20.410  41.6380  0.00  0.00     0.000 HD
ATOM     85   S  SGN C   5      18.879  21.312  41.7550  0.00  0.00     0.000 S
ATOM     86   O  SGN C   5      19.602  21.699  40.5940  0.00  0.00     0.000 OA
ATOM     87   O  SGN C   5      17.527  21.734  41.8450  0.00  0.00     0.000 OA
ATOM     88   O  SGN C   5      19.687  21.609  43.0160  0.00  0.00     0.000 OA
ENDBRANCH 76 85
BRANCH 79 89
ATOM     89   C  SGN C   5      18.346  14.693  44.0480  0.00  0.00     0.000 C
ATOM     90   O  SGN C   5      19.332  13.929  43.3100  0.00  0.00     0.000 O
ATOM     91   S  SGN C   5      19.688  12.471  43.8800  0.00  0.00     0.000 S
ATOM     92   O  SGN C   5      20.028  12.649  45.2670  0.00  0.00     0.000 OA
ATOM     93   O  SGN C   5      18.519  11.650  43.7010  0.00  0.00     0.000 OA
ATOM     94   O  SGN C   5      20.800  12.062  43.0660  0.00  0.00     0.000 OA
ENDBRANCH 79 89
BRANCH 75 95
ATOM     95  O4  BDP C   6      20.440  17.958  42.9780  0.00  0.00     0.000 O
BRANCH 95 99
ATOM     96  C1  BDP C   6      24.459  17.436  41.5540  0.00  0.00     0.000 C
ATOM     97  C2  BDP C   6      23.440  18.047  40.6330  0.00  0.00     0.000 C
ATOM     98  C3  BDP C   6      22.166  18.540  41.3340  0.00  0.00     0.000 C
ATOM     99  C4  BDP C   6      21.608  17.482  42.2750  0.00  0.00     0.000 C
ATOM    100  C5  BDP C   6      22.765  16.984  43.1730  0.00  0.00     0.000 C
ATOM    101  O5  BDP C   6      23.712  16.446  42.2360  0.00  0.00     0.000 O
BRANCH 100 102
ATOM    102   C  BDP C   6      22.344  15.870  44.0990  0.00  0.00     0.000 C
ATOM    103   O  BDP C   6      22.579  14.679  43.8510  0.00  0.00     0.000 OA
ATOM    104   O  BDP C   6      21.758  16.198  45.1370  0.00  0.00     0.000 OA
ENDBRANCH 100 102
ENDBRANCH 95 99
ENDBRANCH 75 95
ENDBRANCH 74 78
ENDBRANCH 58 74
ENDBRANCH 57 61
ENDBRANCH 37 57
ENDBRANCH 36 40
ENDBRANCH 23 36
ENDBRANCH 22 26
ENDBRANCH 1 22
TORSDOF 20
ENDMDL
MODEL 92
REMARK VINA RESULT:      -2.1     14.577     21.851
ROOT
ATOM      1  C1  NGY C   1      26.971  15.668  55.2670  0.00  0.00     0.000 C
ATOM      2  C2  NGY C   1      26.024  15.380  56.4240  0.00  0.00     0.000 C
ATOM      3  C3  NGY C   1      24.740  16.188  56.2700  0.00  0.00     0.000 C
ATOM      4  C4  NGY C   1      25.113  17.651  56.1270  0.00  0.00     0.000 C
ATOM      5  C5  NGY C   1      25.991  17.814  54.8890  0.00  0.00     0.000 C
ATOM      6  O5  NGY C   1      27.207  17.049  55.0900  0.00  0.00     0.000 O
ATOM      7   O  NGY C   1      23.906  15.958  57.3970  0.00  0.00     0.000 O
ATOM      9  HD  NGY C   1      24.005  15.830  58.2470  0.00  0.00     0.000 HD
ATOM      9   O  NGY C   1      23.953  18.463  56.0130  0.00  0.00     0.000 O
ATOM     11  HD  NGY C   1      24.052  18.335  56.8640  0.00  0.00     0.000 HD
ENDROOT
BRANCH 2 13
ATOM     11   N  NGY C   1      26.022  13.937  56.4740  0.00  0.00     0.000 N
ATOM     13  HD  NGY C   1      25.862  13.832  57.3180  0.00  0.00     0.000 HD
ATOM     13   C  NGY C   1      25.812  13.278  57.6120  0.00  0.00     0.000 C
ATOM     14   O  NGY C   1      25.754  13.871  58.6900  0.00  0.00     0.000 OA
ATOM     15   C  NGY C   1      25.624  11.795  57.5060  0.00  0.00     0.000 C
ENDBRANCH 2 13
BRANCH 5 16
ATOM     16   C  NGY C   1      26.436  19.213  54.6050  0.00  0.00     0.000 C
ATOM     17   O  NGY C   1      29.721  20.549  55.5430  0.00  0.00     0.000 OA
ATOM     18   O  NGY C   1      27.666  19.453  55.2930  0.00  0.00     0.000 O
ATOM     19   S  NGY C   1      28.508  20.674  54.7750  0.00  0.00     0.000 S
ATOM     20   O  NGY C   1      27.772  21.867  55.1040  0.00  0.00     0.000 OA
ATOM     21   O  NGY C   1      28.640  20.448  53.3450  0.00  0.00     0.000 OA
ENDBRANCH 5 16
BRANCH 1 22
ATOM     22  O4  BDP C   2      26.488  15.077  54.1540  0.00  0.00     0.000 O
BRANCH 22 26
ATOM     23  C1  BDP C   2      27.048  13.165  50.5490  0.00  0.00     0.000 C
ATOM     24  C2  BDP C   2      27.726  12.524  51.7370  0.00  0.00     0.000 C
ATOM     25  C3  BDP C   2      27.154  13.089  53.0110  0.00  0.00     0.000 C
ATOM     26  C4  BDP C   2      27.224  14.612  52.9920  0.00  0.00     0.000 C
ATOM     27  C5  BDP C   2      26.673  15.138  51.6730  0.00  0.00     0.000 C
ATOM     28  O5  BDP C   2      27.358  14.587  50.5190  0.00  0.00     0.000 O
ATOM     29   O  BDP C   2      27.448  11.127  51.8340  0.00  0.00     0.000 O
ATOM     31  HD  BDP C   2      27.365  10.803  52.6320  0.00  0.00     0.000 HD
ATOM     31   O  BDP C   2      27.940  12.577  54.0800  0.00  0.00     0.000 O
ATOM     33  HD  BDP C   2      27.857  12.252  54.8790  0.00  0.00     0.000 HD
BRANCH 27 33
ATOM     33   C  BDP C   2      26.804  16.637  51.5500  0.00  0.00     0.000 C
ATOM     34   O  BDP C   2      27.913  17.218  51.6330  0.00  0.00     0.000 OA
ATOM     35   O  BDP C   2      25.790  17.298  51.3990  0.00  0.00     0.000 OA
ENDBRANCH 27 33
BRANCH 23 36
ATOM     36  O4  SGN C   3      27.382  12.648  49.3430  0.00  0.00     0.000 O
BRANCH 36 40
ATOM     37  C1  SGN C   3      26.131  10.227  46.1800  0.00  0.00     0.000 C
ATOM     38  C2  SGN C   3      25.191  11.358  46.6290  0.00  0.00     0.000 C
ATOM     39  C3  SGN C   3      25.951  12.386  47.4550  0.00  0.00     0.000 C
ATOM     40  C4  SGN C   3      26.609  11.684  48.6230  0.00  0.00     0.000 C
ATOM     41  C5  SGN C   3      27.493  10.577  48.0920  0.00  0.00     0.000 C
ATOM     42  O5  SGN C   3      26.703   9.643  47.3400  0.00  0.00     0.000 O
ATOM     43   O  SGN C   3      25.047  13.387  47.9050  0.00  0.00     0.000 O
ATOM     45  HD  SGN C   3      25.710  13.318  48.4580  0.00  0.00     0.000 HD
BRANCH 38 47
ATOM     45   N  SGN C   3      23.736  11.307  46.4000  0.00  0.00     0.000 N
ATOM     47  HD  SGN C   3      24.393  11.462  46.9420  0.00  0.00     0.000 HD
ATOM     47   S  SGN C   3      23.378  11.227  44.8540  0.00  0.00     0.000 S
ATOM     48   O  SGN C   3      23.746  12.418  44.1740  0.00  0.00     0.000 OA
ATOM     49   O  SGN C   3      23.942  10.011  44.3660  0.00  0.00     0.000 OA
ATOM     50   O  SGN C   3      21.918  11.167  44.8900  0.00  0.00     0.000 OA
ENDBRANCH 38 47
BRANCH 41 51
ATOM     51   C  SGN C   3      28.214   9.799  49.1600  0.00  0.00     0.000 C
ATOM     52   O  SGN C   3      31.807  10.067  50.1080  0.00  0.00     0.000 OA
ATOM     53   O  SGN C   3      29.899   9.603  51.4780  0.00  0.00     0.000 OA
ATOM     54   O  SGN C   3      30.565   8.064  49.7590  0.00  0.00     0.000 OA
ATOM     55   O  SGN C   3      29.550  10.245  49.2240  0.00  0.00     0.000 O
ATOM     56   S  SGN C   3      30.548   9.415  50.2370  0.00  0.00     0.000 S
ENDBRANCH 41 51
BRANCH 37 57
ATOM     57  O4  IDS C   4      27.139  10.620  45.3630  0.00  0.00     0.000 O
BRANCH 57 61
ATOM     58  C1  IDS C   4      29.214  10.602  42.1760  0.00  0.00     0.000 C
ATOM     59  C2  IDS C   4      27.750  10.893  42.0770  0.00  0.00     0.000 C
ATOM     60  C3  IDS C   4      26.909  10.014  43.0060  0.00  0.00     0.000 C
ATOM     61  C4  IDS C   4      27.523   9.666  44.3550  0.00  0.00     0.000 C
ATOM     62  C5  IDS C   4      29.049   9.566  44.2480  0.00  0.00     0.000 C
ATOM     63  O5  IDS C   4      29.600  10.665  43.5380  0.00  0.00     0.000 O
ATOM     64   O  IDS C   4      26.696   8.813  42.2900  0.00  0.00     0.000 O
ATOM     66  HD  IDS C   4      27.107   8.154  42.6730  0.00  0.00     0.000 HD
BRANCH 59 66
ATOM     66   O  IDS C   4      27.450  12.292  42.4400  0.00  0.00     0.000 O
ATOM     67   S  IDS C   4      26.639  13.145  41.3680  0.00  0.00     0.000 S
ATOM     68   O  IDS C   4      25.362  12.476  41.3150  0.00  0.00     0.000 OA
ATOM     69   O  IDS C   4      26.604  14.488  41.9110  0.00  0.00     0.000 OA
ATOM     70   O  IDS C   4      27.353  13.039  40.1050  0.00  0.00     0.000 OA
ENDBRANCH 59 66
BRANCH 62 71
ATOM     71   C  IDS C   4      29.741   9.562  45.5980  0.00  0.00     0.000 C
ATOM     72   O  IDS C   4      30.445  10.498  45.9250  0.00  0.00     0.000 OA
ATOM     73   O  IDS C   4      29.652   8.540  46.3080  0.00  0.00     0.000 OA
ENDBRANCH 62 71
BRANCH 58 74
ATOM     74  O4  SGN C   5      29.646   9.561  41.4080  0.00  0.00     0.000 O
BRANCH 74 78
ATOM     75  C1  SGN C   5      32.713   8.044  39.0120  0.00  0.00     0.000 C
ATOM     76  C2  SGN C   5      32.929   7.939  40.5340  0.00  0.00     0.000 C
ATOM     77  C3  SGN C   5      31.619   8.204  41.2880  0.00  0.00     0.000 C
ATOM     78  C4  SGN C   5      30.924   9.460  40.7800  0.00  0.00     0.000 C
ATOM     79  C5  SGN C   5      30.773   9.380  39.2680  0.00  0.00     0.000 C
ATOM     80  O5  SGN C   5      32.084   9.268  38.6550  0.00  0.00     0.000 O
ATOM     81   O  SGN C   5      31.902   8.316  42.6790  0.00  0.00     0.000 O
ATOM     83  HD  SGN C   5      32.503   7.825  43.0620  0.00  0.00     0.000 HD
BRANCH 76 85
ATOM     83   N  SGN C   5      34.062   7.112  40.0990  0.00  0.00     0.000 N
ATOM     85  HD  SGN C   5      34.507   6.369  40.0810  0.00  0.00     0.000 HD
ATOM     85   S  SGN C   5      34.930   6.045  40.9370  0.00  0.00     0.000 S
ATOM     86   O  SGN C   5      35.909   5.437  40.1040  0.00  0.00     0.000 OA
ATOM     87   O  SGN C   5      35.396   6.707  42.1030  0.00  0.00     0.000 OA
ATOM     88   O  SGN C   5      33.782   5.078  41.2130  0.00  0.00     0.000 OA
ENDBRANCH 76 85
BRANCH 79 89
ATOM     89   C  SGN C   5      30.067  10.579  38.6680  0.00  0.00     0.000 C
ATOM     90   O  SGN C   5      29.933  10.402  37.2360  0.00  0.00     0.000 O
ATOM     91   S  SGN C   5      28.643  11.063  36.5470  0.00  0.00     0.000 S
ATOM     92   O  SGN C   5      27.501  10.594  37.2870  0.00  0.00     0.000 OA
ATOM     93   O  SGN C   5      28.804  12.492  36.6290  0.00  0.00     0.000 OA
ATOM     94   O  SGN C   5      28.696  10.563  35.2000  0.00  0.00     0.000 OA
ENDBRANCH 79 89
BRANCH 75 95
ATOM     95  O4  BDP C   6      31.901   6.997  38.6790  0.00  0.00     0.000 O
BRANCH 95 99
ATOM     96  C1  BDP C   6      31.305   5.063  34.8910  0.00  0.00     0.000 C
ATOM     97  C2  BDP C   6      32.652   5.656  35.1940  0.00  0.00     0.000 C
ATOM     98  C3  BDP C   6      32.885   5.973  36.6790  0.00  0.00     0.000 C
ATOM     99  C4  BDP C   6      31.712   6.741  37.2710  0.00  0.00     0.000 C
ATOM    100  C5  BDP C   6      30.413   5.988  36.9020  0.00  0.00     0.000 C
ATOM    101  O5  BDP C   6      30.413   5.999  35.4660  0.00  0.00     0.000 O
BRANCH 100 102
ATOM    102   C  BDP C   6      29.172   6.703  37.3730  0.00  0.00     0.000 C
ATOM    103   O  BDP C   6      28.723   6.565  38.5190  0.00  0.00     0.000 OA
ATOM    104   O  BDP C   6      28.619   7.455  36.5610  0.00  0.00     0.000 OA
ENDBRANCH 100 102
ENDBRANCH 95 99
ENDBRANCH 75 95
ENDBRANCH 74 78
ENDBRANCH 58 74
ENDBRANCH 57 61
ENDBRANCH 37 57
ENDBRANCH 36 40
ENDBRANCH 23 36
ENDBRANCH 22 26
ENDBRANCH 1 22
TORSDOF 20
ENDMDL
MODEL 93
REMARK VINA RESULT:      -1.5      3.329     14.466
ROOT
ATOM      1  C1  NGY C   1       1.858  12.968  53.3640  0.00  0.00     0.000 C
ATOM      2  C2  NGY C   1       1.002  12.625  54.5760  0.00  0.00     0.000 C
ATOM      3  C3  NGY C   1       0.178  13.837  55.0010  0.00  0.00     0.000 C
ATOM      4  C4  NGY C   1       1.125  15.001  55.2210  0.00  0.00     0.000 C
ATOM      5  C5  NGY C   1       1.857  15.292  53.9140  0.00  0.00     0.000 C
ATOM      6  O5  NGY C   1       2.643  14.124  53.5640  0.00  0.00     0.000 O
ATOM      7   O  NGY C   1      -0.555  13.515  56.1730  0.00  0.00     0.000 O
ATOM      9  HD  NGY C   1      -0.434  13.046  56.8920  0.00  0.00     0.000 HD
ATOM      9   O  NGY C   1       0.418  16.155  55.6530  0.00  0.00     0.000 O
ATOM     11  HD  NGY C   1       0.539  15.687  56.3710  0.00  0.00     0.000 HD
ENDROOT
BRANCH 2 13
ATOM     11   N  NGY C   1       0.575  11.299  54.1970  0.00  0.00     0.000 N
ATOM     13  HD  NGY C   1       0.280  11.028  54.9650  0.00  0.00     0.000 HD
ATOM     13   C  NGY C   1       0.033  10.461  55.0800  0.00  0.00     0.000 C
ATOM     14   O  NGY C   1       0.006  10.732  56.2820  0.00  0.00     0.000 OA
ATOM     15   C  NGY C   1      -0.560   9.199  54.5330  0.00  0.00     0.000 C
ENDBRANCH 2 13
BRANCH 5 16
ATOM     16   C  NGY C   1       2.826  16.430  53.9690  0.00  0.00     0.000 C
ATOM     17   O  NGY C   1       4.650  17.710  51.0550  0.00  0.00     0.000 OA
ATOM     18   O  NGY C   1       3.504  16.517  52.7130  0.00  0.00     0.000 O
ATOM     19   S  NGY C   1       4.215  17.886  52.4170  0.00  0.00     0.000 S
ATOM     20   O  NGY C   1       5.319  17.999  53.3340  0.00  0.00     0.000 OA
ATOM     21   O  NGY C   1       3.182  18.887  52.6250  0.00  0.00     0.000 OA
ENDBRANCH 5 16
BRANCH 1 22
ATOM     22  O4  BDP C   2       1.059  13.063  52.2810  0.00  0.00     0.000 O
BRANCH 22 26
ATOM     23  C1  BDP C   2       3.531  13.052  48.9860  0.00  0.00     0.000 C
ATOM     24  C2  BDP C   2       2.483  14.140  49.0090  0.00  0.00     0.000 C
ATOM     25  C3  BDP C   2       1.909  14.259  50.3960  0.00  0.00     0.000 C
ATOM     26  C4  BDP C   2       1.416  12.900  50.8830  0.00  0.00     0.000 C
ATOM     27  C5  BDP C   2       2.492  11.847  50.6500  0.00  0.00     0.000 C
ATOM     28  O5  BDP C   2       2.906  11.766  49.2620  0.00  0.00     0.000 O
ATOM     29   O  BDP C   2       3.036  15.433  48.7620  0.00  0.00     0.000 O
ATOM     31  HD  BDP C   2       2.682  16.094  49.1930  0.00  0.00     0.000 HD
ATOM     31   O  BDP C   2       0.821  15.172  50.3160  0.00  0.00     0.000 O
ATOM     33  HD  BDP C   2       0.467  15.834  50.7480  0.00  0.00     0.000 HD
BRANCH 27 33
ATOM     33   C  BDP C   2       2.030  10.458  51.0210  0.00  0.00     0.000 C
ATOM     34   O  BDP C   2       2.823   9.489  51.0880  0.00  0.00     0.000 OA
ATOM     35   O  BDP C   2       0.841  10.277  51.2260  0.00  0.00     0.000 OA
ENDBRANCH 27 33
BRANCH 23 36
ATOM     36  O4  SGN C   3       4.217  12.933  47.8260  0.00  0.00     0.000 O
BRANCH 36 40
ATOM     37  C1  SGN C   3       7.940  11.400  46.7210  0.00  0.00     0.000 C
ATOM     38  C2  SGN C   3       6.733  11.053  45.8340  0.00  0.00     0.000 C
ATOM     39  C3  SGN C   3       5.582  12.012  46.1020  0.00  0.00     0.000 C
ATOM     40  C4  SGN C   3       5.246  11.971  47.5770  0.00  0.00     0.000 C
ATOM     41  C5  SGN C   3       6.491  12.300  48.3710  0.00  0.00     0.000 C
ATOM     42  O5  SGN C   3       7.522  11.345  48.0750  0.00  0.00     0.000 O
ATOM     43   O  SGN C   3       4.462  11.631  45.3140  0.00  0.00     0.000 O
ATOM     45  HD  SGN C   3       4.194  12.037  46.0300  0.00  0.00     0.000 HD
BRANCH 38 47
ATOM     45   N  SGN C   3       7.361   9.788  45.4120  0.00  0.00     0.000 N
ATOM     47  HD  SGN C   3       6.872  10.214  45.9860  0.00  0.00     0.000 HD
ATOM     47   S  SGN C   3       7.867   9.846  43.9060  0.00  0.00     0.000 S
ATOM     48   O  SGN C   3       6.781   9.958  42.9980  0.00  0.00     0.000 OA
ATOM     49   O  SGN C   3       8.859  10.870  43.8480  0.00  0.00     0.000 OA
ATOM     50   O  SGN C   3       8.454   8.518  43.7390  0.00  0.00     0.000 OA
ENDBRANCH 38 47
BRANCH 41 51
ATOM     51   C  SGN C   3       6.290  12.298  49.8620  0.00  0.00     0.000 C
ATOM     52   O  SGN C   3       6.668  15.179  52.1930  0.00  0.00     0.000 OA
ATOM     53   O  SGN C   3       5.146  13.334  52.2860  0.00  0.00     0.000 OA
ATOM     54   O  SGN C   3       7.511  12.973  52.4990  0.00  0.00     0.000 OA
ATOM     55   O  SGN C   3       6.485  13.607  50.3500  0.00  0.00     0.000 O
ATOM     56   S  SGN C   3       6.450  13.788  51.9850  0.00  0.00     0.000 S
ENDBRANCH 41 51
BRANCH 37 57
ATOM     57  O4  IDS C   4       8.476  12.624  46.4920  0.00  0.00     0.000 O
BRANCH 57 61
ATOM     58  C1  IDS C   4      12.262  12.985  46.5980  0.00  0.00     0.000 C
ATOM     59  C2  IDS C   4      11.651  11.691  47.0350  0.00  0.00     0.000 C
ATOM     60  C3  IDS C   4      10.370  11.887  47.8500  0.00  0.00     0.000 C
ATOM     61  C4  IDS C   4       9.474  13.047  47.4410  0.00  0.00     0.000 C
ATOM     62  C5  IDS C   4      10.306  14.206  46.8810  0.00  0.00     0.000 C
ATOM     63  O5  IDS C   4      11.271  13.756  45.9410  0.00  0.00     0.000 O
ATOM     64   O  IDS C   4      10.805  12.107  49.1790  0.00  0.00     0.000 O
ATOM     66  HD  IDS C   4      10.626  12.917  49.4270  0.00  0.00     0.000 HD
BRANCH 59 66
ATOM     66   O  IDS C   4      11.288  10.845  45.8820  0.00  0.00     0.000 O
ATOM     67   S  IDS C   4      12.176   9.547  45.6450  0.00  0.00     0.000 S
ATOM     68   O  IDS C   4      11.904   8.745  46.8140  0.00  0.00     0.000 OA
ATOM     69   O  IDS C   4      11.696   8.989  44.3970  0.00  0.00     0.000 OA
ATOM     70   O  IDS C   4      13.565   9.978  45.6020  0.00  0.00     0.000 OA
ENDBRANCH 59 66
BRANCH 62 71
ATOM     71   C  IDS C   4       9.471  15.239  46.1480  0.00  0.00     0.000 C
ATOM     72   O  IDS C   4       9.997  16.004  45.3640  0.00  0.00     0.000 OA
ATOM     73   O  IDS C   4       8.265  15.347  46.4470  0.00  0.00     0.000 OA
ENDBRANCH 62 71
BRANCH 58 74
ATOM     74  O4  SGN C   5      13.067  13.582  47.5220  0.00  0.00     0.000 O
BRANCH 74 78
ATOM     75  C1  SGN C   5      16.655  15.602  48.2210  0.00  0.00     0.000 C
ATOM     76  C2  SGN C   5      15.510  16.444  47.6280  0.00  0.00     0.000 C
ATOM     77  C3  SGN C   5      14.174  15.698  47.7390  0.00  0.00     0.000 C
ATOM     78  C4  SGN C   5      14.292  14.261  47.2480  0.00  0.00     0.000 C
ATOM     79  C5  SGN C   5      15.453  13.577  47.9550  0.00  0.00     0.000 C
ATOM     80  O5  SGN C   5      16.684  14.292  47.6680  0.00  0.00     0.000 O
ATOM     81   O  SGN C   5      13.188  16.402  46.9910  0.00  0.00     0.000 O
ATOM     83  HD  SGN C   5      13.174  17.267  46.9600  0.00  0.00     0.000 HD
BRANCH 76 85
ATOM     83   N  SGN C   5      15.960  17.568  48.4590  0.00  0.00     0.000 N
ATOM     85  HD  SGN C   5      15.919  18.392  48.7220  0.00  0.00     0.000 HD
ATOM     85   S  SGN C   5      16.163  19.116  48.0630  0.00  0.00     0.000 S
ATOM     86   O  SGN C   5      16.572  19.869  49.1970  0.00  0.00     0.000 OA
ATOM     87   O  SGN C   5      17.011  19.150  46.9260  0.00  0.00     0.000 OA
ATOM     88   O  SGN C   5      14.699  19.395  47.7310  0.00  0.00     0.000 OA
ENDBRANCH 76 85
BRANCH 79 89
ATOM     89   C  SGN C   5      15.638  12.129  47.5490  0.00  0.00     0.000 C
ATOM     90   O  SGN C   5      16.953  11.947  46.9690  0.00  0.00     0.000 O
ATOM     91   S  SGN C   5      17.643  10.514  47.1840  0.00  0.00     0.000 S
ATOM     92   O  SGN C   5      17.605  10.252  48.5990  0.00  0.00     0.000 OA
ATOM     93   O  SGN C   5      16.878   9.558  46.4260  0.00  0.00     0.000 OA
ATOM     94   O  SGN C   5      18.973  10.708  46.6740  0.00  0.00     0.000 OA
ENDBRANCH 79 89
BRANCH 75 95
ATOM     95  O4  BDP C   6      16.407  15.528  49.5630  0.00  0.00     0.000 O
BRANCH 95 99
ATOM     96  C1  BDP C   6      19.113  15.026  52.8600  0.00  0.00     0.000 C
ATOM     97  C2  BDP C   6      19.585  15.778  51.6470  0.00  0.00     0.000 C
ATOM     98  C3  BDP C   6      18.459  16.233  50.7060  0.00  0.00     0.000 C
ATOM     99  C4  BDP C   6      17.497  15.094  50.4040  0.00  0.00     0.000 C
ATOM    100  C5  BDP C   6      17.081  14.451  51.7480  0.00  0.00     0.000 C
ATOM    101  O5  BDP C   6      18.325  13.992  52.3010  0.00  0.00     0.000 O
BRANCH 100 102
ATOM    102   C  BDP C   6      16.184  13.253  51.5670  0.00  0.00     0.000 C
ATOM    103   O  BDP C   6      16.608  12.164  51.1530  0.00  0.00     0.000 OA
ATOM    104   O  BDP C   6      14.992  13.398  51.8640  0.00  0.00     0.000 OA
ENDBRANCH 100 102
ENDBRANCH 95 99
ENDBRANCH 75 95
ENDBRANCH 74 78
ENDBRANCH 58 74
ENDBRANCH 57 61
ENDBRANCH 37 57
ENDBRANCH 36 40
ENDBRANCH 23 36
ENDBRANCH 22 26
ENDBRANCH 1 22
TORSDOF 20
ENDMDL
MODEL 94
REMARK VINA RESULT:      -1.4      7.814     17.273
ROOT
ATOM      1  C1  NGY C   1      15.504  12.091  45.7740  0.00  0.00     0.000 C
ATOM      2  C2  NGY C   1      16.496  11.749  44.6720  0.00  0.00     0.000 C
ATOM      3  C3  NGY C   1      16.598  12.901  43.6770  0.00  0.00     0.000 C
ATOM      4  C4  NGY C   1      15.203  13.222  43.1760  0.00  0.00     0.000 C
ATOM      5  C5  NGY C   1      14.337  13.627  44.3650  0.00  0.00     0.000 C
ATOM      6  O5  NGY C   1      14.249  12.495  45.2690  0.00  0.00     0.000 O
ATOM      7   O  NGY C   1      17.473  12.529  42.6210  0.00  0.00     0.000 O
ATOM      9  HD  NGY C   1      17.664  11.813  42.1740  0.00  0.00     0.000 HD
ATOM      9   O  NGY C   1      15.237  14.269  42.2170  0.00  0.00     0.000 O
ATOM     11  HD  NGY C   1      15.427  13.553  41.7700  0.00  0.00     0.000 HD
ENDROOT
BRANCH 2 13
ATOM     11   N  NGY C   1      17.769  11.438  45.2790  0.00  0.00     0.000 N
ATOM     13  HD  NGY C   1      17.960  10.723  44.8300  0.00  0.00     0.000 HD
ATOM     13   C  NGY C   1      18.480  10.376  44.9040  0.00  0.00     0.000 C
ATOM     14   O  NGY C   1      18.015   9.539  44.1290  0.00  0.00     0.000 OA
ATOM     15   C  NGY C   1      19.871  10.271  45.4510  0.00  0.00     0.000 C
ENDBRANCH 2 13
BRANCH 5 16
ATOM     16   C  NGY C   1      12.925  13.986  44.0290  0.00  0.00     0.000 C
ATOM     17   O  NGY C   1      10.026  13.026  46.0620  0.00  0.00     0.000 OA
ATOM     18   O  NGY C   1      12.048  13.274  44.9060  0.00  0.00     0.000 O
ATOM     19   S  NGY C   1      10.587  13.841  45.0140  0.00  0.00     0.000 S
ATOM     20   O  NGY C   1       9.948  13.616  43.7440  0.00  0.00     0.000 OA
ATOM     21   O  NGY C   1      10.763  15.248  45.3340  0.00  0.00     0.000 OA
ENDBRANCH 5 16
BRANCH 1 22
ATOM     22  O4  BDP C   2      16.059  13.015  46.5870  0.00  0.00     0.000 O
BRANCH 22 26
ATOM     23  C1  BDP C   2      16.774  14.552  50.3410  0.00  0.00     0.000 C
ATOM     24  C2  BDP C   2      17.124  13.094  50.1580  0.00  0.00     0.000 C
ATOM     25  C3  BDP C   2      17.165  12.764  48.6890  0.00  0.00     0.000 C
ATOM     26  C4  BDP C   2      15.864  13.189  48.0150  0.00  0.00     0.000 C
ATOM     27  C5  BDP C   2      15.521  14.619  48.4110  0.00  0.00     0.000 C
ATOM     28  O5  BDP C   2      15.426  14.796  49.8480  0.00  0.00     0.000 O
ATOM     29   O  BDP C   2      18.445  12.791  50.6080  0.00  0.00     0.000 O
ATOM     31  HD  BDP C   2      18.882  12.198  50.1530  0.00  0.00     0.000 HD
ATOM     31   O  BDP C   2      17.331  11.355  48.5860  0.00  0.00     0.000 O
ATOM     33  HD  BDP C   2      17.769  10.762  48.1310  0.00  0.00     0.000 HD
BRANCH 27 33
ATOM     33   C  BDP C   2      14.191  15.069  47.8550  0.00  0.00     0.000 C
ATOM     34   O  BDP C   2      13.174  14.336  47.8880  0.00  0.00     0.000 OA
ATOM     35   O  BDP C   2      14.123  16.167  47.3280  0.00  0.00     0.000 OA
ENDBRANCH 27 33
BRANCH 23 36
ATOM     36  O4  SGN C   3      16.833  15.006  51.6140  0.00  0.00     0.000 O
BRANCH 36 40
ATOM     37  C1  SGN C   3      18.799  18.107  53.6010  0.00  0.00     0.000 C
ATOM     38  C2  SGN C   3      17.305  17.900  53.9010  0.00  0.00     0.000 C
ATOM     39  C3  SGN C   3      16.861  16.513  53.4610  0.00  0.00     0.000 C
ATOM     40  C4  SGN C   3      17.184  16.340  51.9920  0.00  0.00     0.000 C
ATOM     41  C5  SGN C   3      18.663  16.583  51.7870  0.00  0.00     0.000 C
ATOM     42  O5  SGN C   3      18.999  17.914  52.2100  0.00  0.00     0.000 O
ATOM     43   O  SGN C   3      15.466  16.371  53.6960  0.00  0.00     0.000 O
ATOM     45  HD  SGN C   3      15.708  15.861  53.0390  0.00  0.00     0.000 HD
BRANCH 38 47
ATOM     45   N  SGN C   3      17.642  19.247  54.3950  0.00  0.00     0.000 N
ATOM     47  HD  SGN C   3      17.632  18.682  53.7390  0.00  0.00     0.000 HD
ATOM     47   S  SGN C   3      16.946  19.564  55.7890  0.00  0.00     0.000 S
ATOM     48   O  SGN C   3      15.534  19.638  55.6580  0.00  0.00     0.000 OA
ATOM     49   O  SGN C   3      17.453  18.614  56.7240  0.00  0.00     0.000 OA
ATOM     50   O  SGN C   3      17.439  20.911  56.0680  0.00  0.00     0.000 OA
ENDBRANCH 38 47
BRANCH 41 51
ATOM     51   C  SGN C   3      19.118  16.436  50.3600  0.00  0.00     0.000 C
ATOM     52   O  SGN C   3      18.128  18.540  47.4490  0.00  0.00     0.000 OA
ATOM     53   O  SGN C   3      20.216  17.463  47.9110  0.00  0.00     0.000 OA
ATOM     54   O  SGN C   3      18.234  16.162  47.5240  0.00  0.00     0.000 OA
ATOM     55   O  SGN C   3      18.543  17.469  49.5900  0.00  0.00     0.000 O
ATOM     56   S  SGN C   3      18.805  17.400  47.9670  0.00  0.00     0.000 S
ENDBRANCH 41 51
BRANCH 37 57
ATOM     57  O4  IDS C   4      19.631  17.271  54.2690  0.00  0.00     0.000 O
BRANCH 57 61
ATOM     58  C1  IDS C   4      22.610  16.253  56.4050  0.00  0.00     0.000 C
ATOM     59  C2  IDS C   4      21.468  16.965  57.0580  0.00  0.00     0.000 C
ATOM     60  C3  IDS C   4      20.899  18.092  56.1920  0.00  0.00     0.000 C
ATOM     61  C4  IDS C   4      20.881  17.851  54.6890  0.00  0.00     0.000 C
ATOM     62  C5  IDS C   4      22.063  16.971  54.2650  0.00  0.00     0.000 C
ATOM     63  O5  IDS C   4      22.207  15.840  55.1110  0.00  0.00     0.000 O
ATOM     64   O  IDS C   4      21.721  19.214  56.4540  0.00  0.00     0.000 O
ATOM     66  HD  IDS C   4      22.178  19.426  55.7500  0.00  0.00     0.000 HD
BRANCH 59 66
ATOM     66   O  IDS C   4      20.347  16.048  57.3400  0.00  0.00     0.000 O
ATOM     67   S  IDS C   4      20.369  15.311  58.7510  0.00  0.00     0.000 S
ATOM     68   O  IDS C   4      20.226  16.397  59.6910  0.00  0.00     0.000 OA
ATOM     69   O  IDS C   4      19.251  14.390  58.7080  0.00  0.00     0.000 OA
ATOM     70   O  IDS C   4      21.664  14.660  58.8750  0.00  0.00     0.000 OA
ENDBRANCH 59 66
BRANCH 62 71
ATOM     71   C  IDS C   4      21.918  16.416  52.8610  0.00  0.00     0.000 C
ATOM     72   O  IDS C   4      21.734  15.226  52.6910  0.00  0.00     0.000 OA
ATOM     73   O  IDS C   4      22.094  17.187  51.8960  0.00  0.00     0.000 OA
ENDBRANCH 62 71
BRANCH 58 74
ATOM     74  O4  SGN C   5      23.826  16.848  56.5670  0.00  0.00     0.000 O
BRANCH 74 78
ATOM     75  C1  SGN C   5      27.946  16.230  56.2700  0.00  0.00     0.000 C
ATOM     76  C2  SGN C   5      27.312  17.100  55.1680  0.00  0.00     0.000 C
ATOM     77  C3  SGN C   5      25.894  17.533  55.5660  0.00  0.00     0.000 C
ATOM     78  C4  SGN C   5      25.070  16.356  56.0690  0.00  0.00     0.000 C
ATOM     79  C5  SGN C   5      25.836  15.631  57.1650  0.00  0.00     0.000 C
ATOM     80  O5  SGN C   5      27.100  15.149  56.6360  0.00  0.00     0.000 O
ATOM     81   O  SGN C   5      25.265  18.142  54.4440  0.00  0.00     0.000 O
ATOM     83  HD  SGN C   5      25.706  18.641  53.8910  0.00  0.00     0.000 HD
BRANCH 76 85
ATOM     83   N  SGN C   5      27.886  18.268  54.4870  0.00  0.00     0.000 N
ATOM     85  HD  SGN C   5      28.388  18.634  53.8840  0.00  0.00     0.000 HD
ATOM     85   S  SGN C   5      29.387  18.503  53.9510  0.00  0.00     0.000 S
ATOM     86   O  SGN C   5      29.493  19.768  53.3100  0.00  0.00     0.000 OA
ATOM     87   O  SGN C   5      30.264  18.254  55.0380  0.00  0.00     0.000 OA
ATOM     88   O  SGN C   5      29.372  17.377  52.9190  0.00  0.00     0.000 OA
ENDBRANCH 76 85
BRANCH 79 89
ATOM     89   C  SGN C   5      25.084  14.452  57.7490  0.00  0.00     0.000 C
ATOM     90   O  SGN C   5      25.402  13.250  57.0060  0.00  0.00     0.000 O
ATOM     91   S  SGN C   5      25.387  11.870  57.8250  0.00  0.00     0.000 S
ATOM     92   O  SGN C   5      26.233  12.070  58.9720  0.00  0.00     0.000 OA
ATOM     93   O  SGN C   5      24.018  11.609  58.1890  0.00  0.00     0.000 OA
ATOM     94   O  SGN C   5      25.915  10.921  56.8830  0.00  0.00     0.000 OA
ENDBRANCH 79 89
BRANCH 75 95
ATOM     95  O4  BDP C   6      28.123  17.059  57.3420  0.00  0.00     0.000 O
BRANCH 95 99
ATOM     96  C1  BDP C   6      30.272  16.406  61.0020  0.00  0.00     0.000 C
ATOM     97  C2  BDP C   6      30.749  15.720  59.7530  0.00  0.00     0.000 C
ATOM     98  C3  BDP C   6      30.174  16.300  58.4520  0.00  0.00     0.000 C
ATOM     99  C4  BDP C   6      28.664  16.465  58.5420  0.00  0.00     0.000 C
ATOM    100  C5  BDP C   6      28.341  17.215  59.8560  0.00  0.00     0.000 C
ATOM    101  O5  BDP C   6      28.864  16.347  60.8750  0.00  0.00     0.000 O
BRANCH 100 102
ATOM    102   C  BDP C   6      26.860  17.367  60.0900  0.00  0.00     0.000 C
ATOM    103   O  BDP C   6      26.220  18.343  59.6710  0.00  0.00     0.000 OA
ATOM    104   O  BDP C   6      26.297  16.461  60.7150  0.00  0.00     0.000 OA
ENDBRANCH 100 102
ENDBRANCH 95 99
ENDBRANCH 75 95
ENDBRANCH 74 78
ENDBRANCH 58 74
ENDBRANCH 57 61
ENDBRANCH 37 57
ENDBRANCH 36 40
ENDBRANCH 23 36
ENDBRANCH 22 26
ENDBRANCH 1 22
TORSDOF 20
ENDMDL
MODEL 95
REMARK VINA RESULT:      -1.2     18.773     23.637
ROOT
ATOM      1  C1  NGY C   1      31.938   4.541  35.4120  0.00  0.00     0.000 C
ATOM      2  C2  NGY C   1      33.137   4.146  34.5620  0.00  0.00     0.000 C
ATOM      3  C3  NGY C   1      33.633   5.344  33.7590  0.00  0.00     0.000 C
ATOM      4  C4  NGY C   1      32.468   5.900  32.9640  0.00  0.00     0.000 C
ATOM      5  C5  NGY C   1      31.373   6.333  33.9360  0.00  0.00     0.000 C
ATOM      6  O5  NGY C   1      30.917   5.159  34.6580  0.00  0.00     0.000 O
ATOM      7   O  NGY C   1      34.704   4.934  32.9210  0.00  0.00     0.000 O
ATOM      9  HD  NGY C   1      34.919   4.234  32.4590  0.00  0.00     0.000 HD
ATOM      9   O  NGY C   1      32.876   7.002  32.1670  0.00  0.00     0.000 O
ATOM     11  HD  NGY C   1      33.091   6.302  31.7050  0.00  0.00     0.000 HD
ENDROOT
BRANCH 2 13
ATOM     11   N  NGY C   1      34.185   3.218  34.2080  0.00  0.00     0.000 N
ATOM     13  HD  NGY C   1      34.372   2.918  34.9990  0.00  0.00     0.000 HD
ATOM     13   C  NGY C   1      34.812   2.489  35.1290  0.00  0.00     0.000 C
ATOM     14   O  NGY C   1      34.623   2.681  36.3320  0.00  0.00     0.000 OA
ATOM     15   C  NGY C   1      35.730   1.415  34.6280  0.00  0.00     0.000 C
ENDBRANCH 2 13
BRANCH 5 16
ATOM     16   C  NGY C   1      30.152   6.915  33.3000  0.00  0.00     0.000 C
ATOM     17   O  NGY C   1      29.521  10.516  32.9920  0.00  0.00     0.000 OA
ATOM     18   O  NGY C   1      30.133   8.324  33.5460  0.00  0.00     0.000 O
ATOM     19   S  NGY C   1      29.200   9.166  32.6030  0.00  0.00     0.000 S
ATOM     20   O  NGY C   1      27.842   8.812  32.9240  0.00  0.00     0.000 OA
ATOM     21   O  NGY C   1      29.597   8.785  31.2580  0.00  0.00     0.000 OA
ENDBRANCH 5 16
BRANCH 1 22
ATOM     22  O4  BDP C   2      32.365   5.310  36.4360  0.00  0.00     0.000 O
BRANCH 22 26
ATOM     23  C1  BDP C   2      31.964   6.682  40.2990  0.00  0.00     0.000 C
ATOM     24  C2  BDP C   2      31.805   5.191  40.1190  0.00  0.00     0.000 C
ATOM     25  C3  BDP C   2      32.328   4.786  38.7660  0.00  0.00     0.000 C
ATOM     26  C4  BDP C   2      31.675   5.626  37.6730  0.00  0.00     0.000 C
ATOM     27  C5  BDP C   2      31.741   7.102  38.0460  0.00  0.00     0.000 C
ATOM     28  O5  BDP C   2      31.131   7.383  39.3320  0.00  0.00     0.000 O
ATOM     29   O  BDP C   2      32.611   4.444  41.0290  0.00  0.00     0.000 O
ATOM     31  HD  BDP C   2      32.950   3.705  40.7300  0.00  0.00     0.000 HD
ATOM     31   O  BDP C   2      31.999   3.414  38.5890  0.00  0.00     0.000 O
ATOM     33  HD  BDP C   2      32.338   2.675  38.2890  0.00  0.00     0.000 HD
BRANCH 27 33
ATOM     33   C  BDP C   2      31.024   7.982  37.0510  0.00  0.00     0.000 C
ATOM     34   O  BDP C   2      31.613   8.894  36.4230  0.00  0.00     0.000 OA
ATOM     35   O  BDP C   2      29.827   7.815  36.8860  0.00  0.00     0.000 OA
ENDBRANCH 27 33
BRANCH 23 36
ATOM     36  O4  SGN C   3      31.651   7.154  41.5270  0.00  0.00     0.000 O
BRANCH 36 40
ATOM     37  C1  SGN C   3      31.240  10.559  43.9080  0.00  0.00     0.000 C
ATOM     38  C2  SGN C   3      30.111  10.243  42.9140  0.00  0.00     0.000 C
ATOM     39  C3  SGN C   3      30.192   8.792  42.4610  0.00  0.00     0.000 C
ATOM     40  C4  SGN C   3      31.564   8.539  41.8760  0.00  0.00     0.000 C
ATOM     41  C5  SGN C   3      32.609   8.898  42.9100  0.00  0.00     0.000 C
ATOM     42  O5  SGN C   3      32.478  10.281  43.2720  0.00  0.00     0.000 O
ATOM     43   O  SGN C   3      29.174   8.544  41.5000  0.00  0.00     0.000 O
ATOM     45  HD  SGN C   3      29.842   8.009  41.3670  0.00  0.00     0.000 HD
BRANCH 38 47
ATOM     45   N  SGN C   3      29.896  11.682  43.1470  0.00  0.00     0.000 N
ATOM     47  HD  SGN C   3      30.400  11.052  42.8320  0.00  0.00     0.000 HD
ATOM     47   S  SGN C   3      28.391  12.004  43.5430  0.00  0.00     0.000 S
ATOM     48   O  SGN C   3      27.503  11.740  42.4670  0.00  0.00     0.000 OA
ATOM     49   O  SGN C   3      28.135  11.319  44.7680  0.00  0.00     0.000 OA
ATOM     50   O  SGN C   3      28.438  13.452  43.7370  0.00  0.00     0.000 OA
ENDBRANCH 38 47
BRANCH 41 51
ATOM     51   C  SGN C   3      34.026   8.685  42.4510  0.00  0.00     0.000 C
ATOM     52   O  SGN C   3      35.483   9.576  39.1400  0.00  0.00     0.000 OA
ATOM     53   O  SGN C   3      36.502   9.587  41.3060  0.00  0.00     0.000 OA
ATOM     54   O  SGN C   3      35.763   7.526  40.3200  0.00  0.00     0.000 OA
ATOM     55   O  SGN C   3      34.168   9.211  41.1500  0.00  0.00     0.000 O
ATOM     56   S  SGN C   3      35.615   8.949  40.4110  0.00  0.00     0.000 S
ENDBRANCH 41 51
BRANCH 37 57
ATOM     57  O4  IDS C   4      31.190   9.854  45.0650  0.00  0.00     0.000 O
BRANCH 57 61
ATOM     58  C1  IDS C   4      30.927   9.316  48.8210  0.00  0.00     0.000 C
ATOM     59  C2  IDS C   4      29.743   9.864  48.0900  0.00  0.00     0.000 C
ATOM     60  C3  IDS C   4      30.131  10.881  47.0140  0.00  0.00     0.000 C
ATOM     61  C4  IDS C   4      31.428  10.617  46.2630  0.00  0.00     0.000 C
ATOM     62  C5  IDS C   4      32.446   9.913  47.1680  0.00  0.00     0.000 C
ATOM     63  O5  IDS C   4      31.861   8.828  47.8740  0.00  0.00     0.000 O
ATOM     64   O  IDS C   4      30.253  12.116  47.6950  0.00  0.00     0.000 O
ATOM     66  HD  IDS C   4      31.078  12.381  47.6960  0.00  0.00     0.000 HD
BRANCH 59 66
ATOM     66   O  IDS C   4      28.988   8.797  47.4050  0.00  0.00     0.000 O
ATOM     67   S  IDS C   4      27.439   8.687  47.7530  0.00  0.00     0.000 S
ATOM     68   O  IDS C   4      26.900   9.927  47.2490  0.00  0.00     0.000 OA
ATOM     69   O  IDS C   4      26.985   7.497  47.0600  0.00  0.00     0.000 OA
ATOM     70   O  IDS C   4      27.329   8.602  49.2010  0.00  0.00     0.000 OA
ENDBRANCH 59 66
BRANCH 62 71
ATOM     71   C  IDS C   4      33.613   9.320  46.4010  0.00  0.00     0.000 C
ATOM     72   O  IDS C   4      33.766   8.115  46.3590  0.00  0.00     0.000 OA
ATOM     73   O  IDS C   4      34.458  10.097  45.9130  0.00  0.00     0.000 OA
ENDBRANCH 62 71
BRANCH 58 74
ATOM     74  O4  SGN C   5      31.369  10.085  49.8570  0.00  0.00     0.000 O
BRANCH 74 78
ATOM     75  C1  SGN C   5      33.730   9.823  53.2930  0.00  0.00     0.000 C
ATOM     76  C2  SGN C   5      33.929   8.708  52.2490  0.00  0.00     0.000 C
ATOM     77  C3  SGN C   5      33.279   9.092  50.9140  0.00  0.00     0.000 C
ATOM     78  C4  SGN C   5      31.857   9.601  51.1080  0.00  0.00     0.000 C
ATOM     79  C5  SGN C   5      31.853  10.710  52.1500  0.00  0.00     0.000 C
ATOM     80  O5  SGN C   5      32.363  10.195  53.4090  0.00  0.00     0.000 O
ATOM     81   O  SGN C   5      33.290   7.959  50.0520  0.00  0.00     0.000 O
ATOM     83  HD  SGN C   5      33.955   7.403  50.0400  0.00  0.00     0.000 HD
BRANCH 76 85
ATOM     83   N  SGN C   5      35.396   8.658  52.2850  0.00  0.00     0.000 N
ATOM     85  HD  SGN C   5      36.152   8.247  52.1890  0.00  0.00     0.000 HD
ATOM     85   S  SGN C   5      36.367   7.491  52.8220  0.00  0.00     0.000 S
ATOM     86   O  SGN C   5      37.729   7.846  52.6230  0.00  0.00     0.000 OA
ATOM     87   O  SGN C   5      35.966   7.190  54.1500  0.00  0.00     0.000 OA
ATOM     88   O  SGN C   5      35.933   6.435  51.8090  0.00  0.00     0.000 OA
ENDBRANCH 76 85
BRANCH 79 89
ATOM     89   C  SGN C   5      30.480  11.301  52.3980  0.00  0.00     0.000 C
ATOM     90   O  SGN C   5      30.099  12.140  51.2800  0.00  0.00     0.000 O
ATOM     91   S  SGN C   5      28.532  12.223  50.9420  0.00  0.00     0.000 S
ATOM     92   O  SGN C   5      28.071  10.865  50.8160  0.00  0.00     0.000 OA
ATOM     93   O  SGN C   5      27.900  12.920  52.0330  0.00  0.00     0.000 OA
ATOM     94   O  SGN C   5      28.499  12.955  49.7060  0.00  0.00     0.000 OA
ENDBRANCH 79 89
BRANCH 75 95
ATOM     95  O4  BDP C   6      34.459  10.888  52.8430  0.00  0.00     0.000 O
BRANCH 95 99
ATOM     96  C1  BDP C   6      36.553  14.000  54.9350  0.00  0.00     0.000 C
ATOM     97  C2  BDP C   6      36.665  12.589  55.4410  0.00  0.00     0.000 C
ATOM     98  C3  BDP C   6      36.215  11.518  54.4350  0.00  0.00     0.000 C
ATOM     99  C4  BDP C   6      34.863  11.863  53.8280  0.00  0.00     0.000 C
ATOM    100  C5  BDP C   6      34.923  13.325  53.3270  0.00  0.00     0.000 C
ATOM    101  O5  BDP C   6      35.202  14.078  54.5190  0.00  0.00     0.000 O
BRANCH 100 102
ATOM    102   C  BDP C   6      33.605  13.804  52.7730  0.00  0.00     0.000 C
ATOM    103   O  BDP C   6      33.385  13.873  51.5550  0.00  0.00     0.000 OA
ATOM    104   O  BDP C   6      32.735  14.119  53.5940  0.00  0.00     0.000 OA
ENDBRANCH 100 102
ENDBRANCH 95 99
ENDBRANCH 75 95
ENDBRANCH 74 78
ENDBRANCH 58 74
ENDBRANCH 57 61
ENDBRANCH 37 57
ENDBRANCH 36 40
ENDBRANCH 23 36
ENDBRANCH 22 26
ENDBRANCH 1 22
TORSDOF 20
ENDMDL
MODEL 96
REMARK VINA RESULT:      -0.9      5.429      9.600
ROOT
ATOM      1  C1  NGY C   1      16.729  16.608  51.0820  0.00  0.00     0.000 C
ATOM      2  C2  NGY C   1      17.829  15.632  51.4760  0.00  0.00     0.000 C
ATOM      3  C3  NGY C   1      17.730  15.293  52.9600  0.00  0.00     0.000 C
ATOM      4  C4  NGY C   1      17.744  16.591  53.7450  0.00  0.00     0.000 C
ATOM      5  C5  NGY C   1      16.549  17.437  53.3160  0.00  0.00     0.000 C
ATOM      6  O5  NGY C   1      16.699  17.753  51.9070  0.00  0.00     0.000 O
ATOM      7   O  NGY C   1      18.808  14.440  53.3170  0.00  0.00     0.000 O
ATOM      9  HD  NGY C   1      19.643  14.347  53.1080  0.00  0.00     0.000 HD
ATOM      9   O  NGY C   1      17.688  16.340  55.1420  0.00  0.00     0.000 O
ATOM     11  HD  NGY C   1      18.523  16.247  54.9330  0.00  0.00     0.000 HD
ENDROOT
BRANCH 2 13
ATOM     11   N  NGY C   1      18.744  15.186  50.4520  0.00  0.00     0.000 N
ATOM     13  HD  NGY C   1      18.530  14.347  50.4360  0.00  0.00     0.000 HD
ATOM     13   C  NGY C   1      18.791  13.912  50.0640  0.00  0.00     0.000 C
ATOM     14   O  NGY C   1      18.159  13.040  50.6620  0.00  0.00     0.000 OA
ATOM     15   C  NGY C   1      19.624  13.607  48.8560  0.00  0.00     0.000 C
ENDBRANCH 2 13
BRANCH 5 16
ATOM     16   C  NGY C   1      16.420  18.753  54.0130  0.00  0.00     0.000 C
ATOM     17   O  NGY C   1      18.660  21.603  53.4480  0.00  0.00     0.000 OA
ATOM     18   O  NGY C   1      17.573  19.546  53.7190  0.00  0.00     0.000 O
ATOM     19   S  NGY C   1      17.423  21.088  53.9790  0.00  0.00     0.000 S
ATOM     20   O  NGY C   1      17.319  21.271  55.4030  0.00  0.00     0.000 OA
ATOM     21   O  NGY C   1      16.220  21.466  53.2550  0.00  0.00     0.000 OA
ENDBRANCH 5 16
BRANCH 1 22
ATOM     22  O4  BDP C   2      15.551  15.950  51.0640  0.00  0.00     0.000 O
BRANCH 22 26
ATOM     23  C1  BDP C   2      11.818  15.345  49.4320  0.00  0.00     0.000 C
ATOM     24  C2  BDP C   2      12.940  15.526  48.4380  0.00  0.00     0.000 C
ATOM     25  C3  BDP C   2      14.265  15.370  49.1370  0.00  0.00     0.000 C
ATOM     26  C4  BDP C   2      14.338  16.297  50.3460  0.00  0.00     0.000 C
ATOM     27  C5  BDP C   2      13.074  16.154  51.1830  0.00  0.00     0.000 C
ATOM     28  O5  BDP C   2      11.865  16.411  50.4220  0.00  0.00     0.000 O
ATOM     29   O  BDP C   2      12.960  14.500  47.4460  0.00  0.00     0.000 O
ATOM     31  HD  BDP C   2      13.739  14.241  47.1720  0.00  0.00     0.000 HD
ATOM     31   O  BDP C   2      15.273  15.715  48.1950  0.00  0.00     0.000 O
ATOM     33  HD  BDP C   2      16.052  15.456  47.9200  0.00  0.00     0.000 HD
BRANCH 27 33
ATOM     33   C  BDP C   2      13.039  17.119  52.3450  0.00  0.00     0.000 C
ATOM     34   O  BDP C   2      12.827  16.737  53.5210  0.00  0.00     0.000 OA
ATOM     35   O  BDP C   2      13.188  18.308  52.1170  0.00  0.00     0.000 OA
ENDBRANCH 27 33
BRANCH 23 36
ATOM     36  O4  SGN C   3      10.572  15.332  48.9040  0.00  0.00     0.000 O
BRANCH 36 40
ATOM     37  C1  SGN C   3       6.782  13.586  49.0360  0.00  0.00     0.000 C
ATOM     38  C2  SGN C   3       7.259  14.353  50.2800  0.00  0.00     0.000 C
ATOM     39  C3  SGN C   3       8.420  15.271  49.9270  0.00  0.00     0.000 C
ATOM     40  C4  SGN C   3       9.522  14.445  49.3010  0.00  0.00     0.000 C
ATOM     41  C5  SGN C   3       8.961  13.710  48.1040  0.00  0.00     0.000 C
ATOM     42  O5  SGN C   3       7.884  12.856  48.5200  0.00  0.00     0.000 O
ATOM     43   O  SGN C   3       8.878  15.923  51.1050  0.00  0.00     0.000 O
ATOM     45  HD  SGN C   3       9.527  15.852  50.5360  0.00  0.00     0.000 HD
BRANCH 38 47
ATOM     45   N  SGN C   3       6.286  13.479  50.9590  0.00  0.00     0.000 N
ATOM     47  HD  SGN C   3       7.053  13.566  50.5670  0.00  0.00     0.000 HD
ATOM     47   S  SGN C   3       5.164  14.311  51.7190  0.00  0.00     0.000 S
ATOM     48   O  SGN C   3       5.711  15.048  52.8030  0.00  0.00     0.000 OA
ATOM     49   O  SGN C   3       4.465  15.058  50.7250  0.00  0.00     0.000 OA
ATOM     50   O  SGN C   3       4.332  13.247  52.2780  0.00  0.00     0.000 OA
ENDBRANCH 38 47
BRANCH 41 51
ATOM     51   C  SGN C   3       9.964  12.850  47.3840  0.00  0.00     0.000 C
ATOM     52   O  SGN C   3      10.591  12.709  43.7140  0.00  0.00     0.000 OA
ATOM     53   O  SGN C   3      12.126  12.453  45.5330  0.00  0.00     0.000 OA
ATOM     54   O  SGN C   3      10.361  10.860  45.1970  0.00  0.00     0.000 OA
ATOM     55   O  SGN C   3       9.908  13.143  46.0050  0.00  0.00     0.000 O
ATOM     56   S  SGN C   3      10.833  12.201  45.0220  0.00  0.00     0.000 S
ENDBRANCH 41 51
BRANCH 37 57
ATOM     57  O4  IDS C   4       6.289  14.367  48.0440  0.00  0.00     0.000 O
BRANCH 57 61
ATOM     58  C1  IDS C   4       3.150  14.107  45.9110  0.00  0.00     0.000 C
ATOM     59  C2  IDS C   4       3.333  13.143  47.0410  0.00  0.00     0.000 C
ATOM     60  C3  IDS C   4       4.777  12.654  47.1740  0.00  0.00     0.000 C
ATOM     61  C4  IDS C   4       5.870  13.666  46.8580  0.00  0.00     0.000 C
ATOM     62  C5  IDS C   4       5.405  14.648  45.7760  0.00  0.00     0.000 C
ATOM     63  O5  IDS C   4       4.103  15.148  46.0430  0.00  0.00     0.000 O
ATOM     64   O  IDS C   4       4.891  11.576  46.2650  0.00  0.00     0.000 O
ATOM     66  HD  IDS C   4       5.428  11.781  45.6170  0.00  0.00     0.000 HD
BRANCH 59 66
ATOM     66   O  IDS C   4       2.976  13.753  48.3360  0.00  0.00     0.000 O
ATOM     67   S  IDS C   4       1.743  13.109  49.1090  0.00  0.00     0.000 S
ATOM     68   O  IDS C   4       2.210  11.779  49.4230  0.00  0.00     0.000 OA
ATOM     69   O  IDS C   4       1.532  13.968  50.2570  0.00  0.00     0.000 OA
ATOM     70   O  IDS C   4       0.622  13.079  48.1830  0.00  0.00     0.000 OA
ENDBRANCH 59 66
BRANCH 62 71
ATOM     71   C  IDS C   4       6.296  15.870  45.6600  0.00  0.00     0.000 C
ATOM     72   O  IDS C   4       7.502  15.740  45.5730  0.00  0.00     0.000 OA
ATOM     73   O  IDS C   4       5.773  16.998  45.7600  0.00  0.00     0.000 OA
ENDBRANCH 62 71
BRANCH 58 74
ATOM     74  O4  SGN C   5       2.956  13.531  44.6900  0.00  0.00     0.000 O
BRANCH 74 78
ATOM     75  C1  SGN C   5       0.028  11.588  42.4340  0.00  0.00     0.000 C
ATOM     76  C2  SGN C   5      -0.483  12.460  43.5970  0.00  0.00     0.000 C
ATOM     77  C3  SGN C   5       0.633  13.374  44.1190  0.00  0.00     0.000 C
ATOM     78  C4  SGN C   5       1.924  12.603  44.3590  0.00  0.00     0.000 C
ATOM     79  C5  SGN C   5       2.288  11.823  43.1040  0.00  0.00     0.000 C
ATOM     80  O5  SGN C   5       1.219  10.894  42.7830  0.00  0.00     0.000 O
ATOM     81   O  SGN C   5       0.193  13.998  45.3220  0.00  0.00     0.000 O
ATOM     83  HD  SGN C   5      -0.628  14.251  45.4280  0.00  0.00     0.000 HD
BRANCH 76 85
ATOM     83   N  SGN C   5      -1.640  12.697  42.7240  0.00  0.00     0.000 N
ATOM     85  HD  SGN C   5      -2.380  13.100  42.5250  0.00  0.00     0.000 HD
ATOM     85   S  SGN C   5      -3.182  12.946  43.1170  0.00  0.00     0.000 S
ATOM     86   O  SGN C   5      -3.961  13.177  41.9500  0.00  0.00     0.000 OA
ATOM     87   O  SGN C   5      -3.580  11.872  43.9560  0.00  0.00     0.000 OA
ATOM     88   O  SGN C   5      -2.952  14.250  43.8770  0.00  0.00     0.000 OA
ENDBRANCH 76 85
BRANCH 79 89
ATOM     89   C  SGN C   5       3.578  11.038  43.2350  0.00  0.00     0.000 C
ATOM     90   O  SGN C   5       4.480  11.394  42.1590  0.00  0.00     0.000 O
ATOM     91   S  SGN C   5       6.050  11.332  42.4840  0.00  0.00     0.000 S
ATOM     92   O  SGN C   5       6.250  12.114  43.6760  0.00  0.00     0.000 OA
ATOM     93   O  SGN C   5       6.388   9.944  42.6730  0.00  0.00     0.000 OA
ATOM     94   O  SGN C   5       6.653  11.908  41.3130  0.00  0.00     0.000 OA
ENDBRANCH 79 89
BRANCH 75 95
ATOM     95  O4  BDP C   6       0.283  12.450  41.4060  0.00  0.00     0.000 O
BRANCH 95 99
ATOM     96  C1  BDP C   6      -0.712  11.323  37.3830  0.00  0.00     0.000 C
ATOM     97  C2  BDP C   6      -0.743  10.271  38.4550  0.00  0.00     0.000 C
ATOM     98  C3  BDP C   6      -0.753  10.826  39.8870  0.00  0.00     0.000 C
ATOM     99  C4  BDP C   6       0.322  11.886  40.0770  0.00  0.00     0.000 C
ATOM    100  C5  BDP C   6       0.197  12.905  38.9200  0.00  0.00     0.000 C
ATOM    101  O5  BDP C   6       0.409  12.108  37.7450  0.00  0.00     0.000 O
BRANCH 100 102
ATOM    102   C  BDP C   6       1.269  13.965  38.9620  0.00  0.00     0.000 C
ATOM    103   O  BDP C   6       2.445  13.731  38.6470  0.00  0.00     0.000 OA
ATOM    104   O  BDP C   6       0.921  15.098  39.3160  0.00  0.00     0.000 OA
ENDBRANCH 100 102
ENDBRANCH 95 99
ENDBRANCH 75 95
ENDBRANCH 74 78
ENDBRANCH 58 74
ENDBRANCH 57 61
ENDBRANCH 37 57
ENDBRANCH 36 40
ENDBRANCH 23 36
ENDBRANCH 22 26
ENDBRANCH 1 22
TORSDOF 20
ENDMDL
MODEL 97
REMARK VINA RESULT:      -0.7      5.108     14.469
ROOT
ATOM      1  C1  NGY C   1       5.896  12.464  42.3530  0.00  0.00     0.000 C
ATOM      2  C2  NGY C   1       4.706  13.414  42.3130  0.00  0.00     0.000 C
ATOM      3  C3  NGY C   1       3.629  12.953  43.2900  0.00  0.00     0.000 C
ATOM      4  C4  NGY C   1       3.281  11.512  42.9690  0.00  0.00     0.000 C
ATOM      5  C5  NGY C   1       4.536  10.658  43.1260  0.00  0.00     0.000 C
ATOM      6  O5  NGY C   1       5.521  11.117  42.1640  0.00  0.00     0.000 O
ATOM      7   O  NGY C   1       2.503  13.811  43.1810  0.00  0.00     0.000 O
ATOM      9  HD  NGY C   1       2.086  14.240  42.5550  0.00  0.00     0.000 HD
ATOM      9   O  NGY C   1       2.255  11.034  43.8270  0.00  0.00     0.000 O
ATOM     11  HD  NGY C   1       1.839  11.463  43.2000  0.00  0.00     0.000 HD
ENDROOT
BRANCH 2 13
ATOM     11   N  NGY C   1       4.194  14.756  42.4600  0.00  0.00     0.000 N
ATOM     13  HD  NGY C   1       4.781  15.177  41.9820  0.00  0.00     0.000 HD
ATOM     13   C  NGY C   1       4.790  15.798  41.8820  0.00  0.00     0.000 C
ATOM     14   O  NGY C   1       5.879  15.677  41.3200  0.00  0.00     0.000 OA
ATOM     15   C  NGY C   1       4.056  17.103  41.9290  0.00  0.00     0.000 C
ENDBRANCH 2 13
BRANCH 5 16
ATOM     16   C  NGY C   1       4.351   9.200  42.8510  0.00  0.00     0.000 C
ATOM     17   O  NGY C   1       1.820   7.850  40.5640  0.00  0.00     0.000 OA
ATOM     18   O  NGY C   1       3.152   9.024  42.0930  0.00  0.00     0.000 O
ATOM     19   S  NGY C   1       3.021   7.653  41.3360  0.00  0.00     0.000 S
ATOM     20   O  NGY C   1       2.869   6.628  42.3350  0.00  0.00     0.000 OA
ATOM     21   O  NGY C   1       4.252   7.539  40.5710  0.00  0.00     0.000 OA
ENDBRANCH 5 16
BRANCH 1 22
ATOM     22  O4  BDP C   2       6.568  12.659  43.5070  0.00  0.00     0.000 O
BRANCH 22 26
ATOM     23  C1  BDP C   2      10.051  13.341  45.5980  0.00  0.00     0.000 C
ATOM     24  C2  BDP C   2       9.652  14.428  44.6270  0.00  0.00     0.000 C
ATOM     25  C3  BDP C   2       8.216  14.236  44.2160  0.00  0.00     0.000 C
ATOM     26  C4  BDP C   2       7.999  12.818  43.6990  0.00  0.00     0.000 C
ATOM     27  C5  BDP C   2       8.596  11.814  44.6760  0.00  0.00     0.000 C
ATOM     28  O5  BDP C   2      10.005  12.049  44.9300  0.00  0.00     0.000 O
ATOM     29   O  BDP C   2       9.661  15.723  45.2270  0.00  0.00     0.000 O
ATOM     31  HD  BDP C   2       9.049  16.276  44.9630  0.00  0.00     0.000 HD
ATOM     31   O  BDP C   2       7.952  15.179  43.1840  0.00  0.00     0.000 O
ATOM     33  HD  BDP C   2       7.340  15.732  42.9210  0.00  0.00     0.000 HD
BRANCH 27 33
ATOM     33   C  BDP C   2       8.501  10.393  44.1740  0.00  0.00     0.000 C
ATOM     34   O  BDP C   2       8.572  10.112  42.9540  0.00  0.00     0.000 OA
ATOM     35   O  BDP C   2       8.315   9.502  44.9860  0.00  0.00     0.000 OA
ENDBRANCH 27 33
BRANCH 23 36
ATOM     36  O4  SGN C   3      11.282  13.476  46.1440  0.00  0.00     0.000 O
BRANCH 36 40
ATOM     37  C1  SGN C   3      13.839  12.117  49.1510  0.00  0.00     0.000 C
ATOM     38  C2  SGN C   3      13.895  11.404  47.7900  0.00  0.00     0.000 C
ATOM     39  C3  SGN C   3      13.256  12.266  46.7110  0.00  0.00     0.000 C
ATOM     40  C4  SGN C   3      11.841  12.603  47.1290  0.00  0.00     0.000 C
ATOM     41  C5  SGN C   3      11.879  13.277  48.4830  0.00  0.00     0.000 C
ATOM     42  O5  SGN C   3      12.479  12.397  49.4460  0.00  0.00     0.000 O
ATOM     43   O  SGN C   3      13.268  11.559  45.4780  0.00  0.00     0.000 O
ATOM     45  HD  SGN C   3      12.606  12.117  45.4910  0.00  0.00     0.000 HD
BRANCH 38 47
ATOM     45   N  SGN C   3      15.315  11.174  47.4700  0.00  0.00     0.000 N
ATOM     47  HD  SGN C   3      14.640  11.716  47.4860  0.00  0.00     0.000 HD
ATOM     47   S  SGN C   3      15.868   9.840  48.1330  0.00  0.00     0.000 S
ATOM     48   O  SGN C   3      15.894   9.937  49.5500  0.00  0.00     0.000 OA
ATOM     49   O  SGN C   3      15.113   8.764  47.5790  0.00  0.00     0.000 OA
ATOM     50   O  SGN C   3      17.252   9.825  47.6620  0.00  0.00     0.000 OA
ENDBRANCH 38 47
BRANCH 41 51
ATOM     51   C  SGN C   3      10.527  13.669  49.0140  0.00  0.00     0.000 C
ATOM     52   O  SGN C   3       9.183  17.119  49.4320  0.00  0.00     0.000 OA
ATOM     53   O  SGN C   3       8.038  15.096  48.8570  0.00  0.00     0.000 OA
ATOM     54   O  SGN C   3       9.071  15.340  51.0110  0.00  0.00     0.000 OA
ATOM     55   O  SGN C   3      10.405  15.073  48.9570  0.00  0.00     0.000 O
ATOM     56   S  SGN C   3       9.047  15.716  49.6280  0.00  0.00     0.000 S
ENDBRANCH 41 51
BRANCH 37 57
ATOM     57  O4  IDS C   4      14.533  13.280  49.2100  0.00  0.00     0.000 O
BRANCH 57 61
ATOM     58  C1  IDS C   4      17.442  15.338  50.5410  0.00  0.00     0.000 C
ATOM     59  C2  IDS C   4      17.676  13.901  50.2010  0.00  0.00     0.000 C
ATOM     60  C3  IDS C   4      16.513  12.997  50.6170  0.00  0.00     0.000 C
ATOM     61  C4  IDS C   4      15.115  13.587  50.4920  0.00  0.00     0.000 C
ATOM     62  C5  IDS C   4      15.139  15.100  50.7340  0.00  0.00     0.000 C
ATOM     63  O5  IDS C   4      16.187  15.732  50.0130  0.00  0.00     0.000 O
ATOM     64   O  IDS C   4      16.747  12.691  51.9790  0.00  0.00     0.000 O
ATOM     66  HD  IDS C   4      16.139  13.052  52.4790  0.00  0.00     0.000 HD
BRANCH 59 66
ATOM     66   O  IDS C   4      17.856  13.709  48.7500  0.00  0.00     0.000 O
ATOM     67   S  IDS C   4      19.266  13.142  48.2770  0.00  0.00     0.000 S
ATOM     68   O  IDS C   4      19.296  11.817  48.8490  0.00  0.00     0.000 OA
ATOM     69   O  IDS C   4      19.218  13.182  46.8290  0.00  0.00     0.000 OA
ATOM     70   O  IDS C   4      20.290  13.999  48.8550  0.00  0.00     0.000 OA
ENDBRANCH 59 66
BRANCH 62 71
ATOM     71   C  IDS C   4      13.864  15.794  50.2940  0.00  0.00     0.000 C
ATOM     72   O  IDS C   4      13.789  16.288  49.1850  0.00  0.00     0.000 OA
ATOM     73   O  IDS C   4      12.946  15.933  51.1270  0.00  0.00     0.000 OA
ENDBRANCH 62 71
BRANCH 58 74
ATOM     74  O4  SGN C   5      17.766  15.687  51.8190  0.00  0.00     0.000 O
BRANCH 74 78
ATOM     75  C1  SGN C   5      19.242  18.739  54.2590  0.00  0.00     0.000 C
ATOM     76  C2  SGN C   5      17.709  18.589  54.2170  0.00  0.00     0.000 C
ATOM     77  C3  SGN C   5      17.313  17.251  53.5790  0.00  0.00     0.000 C
ATOM     78  C4  SGN C   5      18.060  17.008  52.2750  0.00  0.00     0.000 C
ATOM     79  C5  SGN C   5      19.555  17.172  52.5090  0.00  0.00     0.000 C
ATOM     80  O5  SGN C   5      19.826  18.518  52.9820  0.00  0.00     0.000 O
ATOM     81   O  SGN C   5      15.906  17.244  53.3570  0.00  0.00     0.000 O
ATOM     83  HD  SGN C   5      15.356  17.611  53.9170  0.00  0.00     0.000 HD
BRANCH 76 85
ATOM     83   N  SGN C   5      17.446  18.740  55.6530  0.00  0.00     0.000 N
ATOM     85  HD  SGN C   5      16.942  18.962  56.3210  0.00  0.00     0.000 HD
ATOM     85   S  SGN C   5      16.704  19.936  56.4370  0.00  0.00     0.000 S
ATOM     86   O  SGN C   5      16.630  19.649  57.8270  0.00  0.00     0.000 OA
ATOM     87   O  SGN C   5      17.344  21.145  56.0600  0.00  0.00     0.000 OA
ATOM     88   O  SGN C   5      15.341  19.746  55.7750  0.00  0.00     0.000 OA
ENDBRANCH 76 85
BRANCH 79 89
ATOM     89   C  SGN C   5      20.391  16.925  51.2700  0.00  0.00     0.000 C
ATOM     90   O  SGN C   5      19.935  17.781  50.1930  0.00  0.00     0.000 O
ATOM     91   S  SGN C   5      21.044  18.263  49.1370  0.00  0.00     0.000 S
ATOM     92   O  SGN C   5      22.115  18.839  49.9070  0.00  0.00     0.000 OA
ATOM     93   O  SGN C   5      21.461  17.098  48.4000  0.00  0.00     0.000 OA
ATOM     94   O  SGN C   5      20.338  19.222  48.3320  0.00  0.00     0.000 OA
ENDBRANCH 79 89
BRANCH 75 95
ATOM     95  O4  BDP C   6      19.684  17.790  55.1360  0.00  0.00     0.000 O
BRANCH 95 99
ATOM     96  C1  BDP C   6      22.845  18.501  57.9560  0.00  0.00     0.000 C
ATOM     97  C2  BDP C   6      22.442  19.613  57.0290  0.00  0.00     0.000 C
ATOM     98  C3  BDP C   6      21.084  19.404  56.3420  0.00  0.00     0.000 C
ATOM     99  C4  BDP C   6      20.978  18.011  55.7380  0.00  0.00     0.000 C
ATOM    100  C5  BDP C   6      21.390  16.987  56.8220  0.00  0.00     0.000 C
ATOM    101  O5  BDP C   6      22.743  17.353  57.1340  0.00  0.00     0.000 O
BRANCH 100 102
ATOM    102   C  BDP C   6      21.398  15.570  56.3090  0.00  0.00     0.000 C
ATOM    103   O  BDP C   6      20.660  15.195  55.3870  0.00  0.00     0.000 OA
ATOM    104   O  BDP C   6      22.191  14.787  56.8440  0.00  0.00     0.000 OA
ENDBRANCH 100 102
ENDBRANCH 95 99
ENDBRANCH 75 95
ENDBRANCH 74 78
ENDBRANCH 58 74
ENDBRANCH 57 61
ENDBRANCH 37 57
ENDBRANCH 36 40
ENDBRANCH 23 36
ENDBRANCH 22 26
ENDBRANCH 1 22
TORSDOF 20
ENDMDL
MODEL 98
REMARK VINA RESULT:      -0.1      4.906     13.793
ROOT
ATOM      1  C1  NGY C   1       4.757  13.362  41.4730  0.00  0.00     0.000 C
ATOM      2  C2  NGY C   1       3.441  14.100  41.6770  0.00  0.00     0.000 C
ATOM      3  C3  NGY C   1       2.491  13.261  42.5260  0.00  0.00     0.000 C
ATOM      4  C4  NGY C   1       2.343  11.901  41.8710  0.00  0.00     0.000 C
ATOM      5  C5  NGY C   1       3.716  11.238  41.8040  0.00  0.00     0.000 C
ATOM      6  O5  NGY C   1       4.575  12.056  40.9690  0.00  0.00     0.000 O
ATOM      7   O  NGY C   1       1.247  13.937  42.6410  0.00  0.00     0.000 O
ATOM      9  HD  NGY C   1       0.743  14.433  42.1410  0.00  0.00     0.000 HD
ATOM      9   O  NGY C   1       1.441  11.081  42.6000  0.00  0.00     0.000 O
ATOM     11  HD  NGY C   1       0.936  11.577  42.1000  0.00  0.00     0.000 HD
ENDROOT
BRANCH 2 13
ATOM     11   N  NGY C   1       3.792  15.395  42.2100  0.00  0.00     0.000 N
ATOM     13  HD  NGY C   1       3.214  15.877  41.7820  0.00  0.00     0.000 HD
ATOM     13   C  NGY C   1       3.153  16.502  41.8320  0.00  0.00     0.000 C
ATOM     14   O  NGY C   1       2.337  16.482  40.9090  0.00  0.00     0.000 OA
ATOM     15   C  NGY C   1       3.459  17.750  42.6010  0.00  0.00     0.000 C
ENDBRANCH 2 13
BRANCH 5 16
ATOM     16   C  NGY C   1       3.734   9.875  41.1880  0.00  0.00     0.000 C
ATOM     17   O  NGY C   1       3.312   6.763  43.0830  0.00  0.00     0.000 OA
ATOM     18   O  NGY C   1       3.760   8.899  42.2320  0.00  0.00     0.000 O
ATOM     19   S  NGY C   1       3.335   7.445  41.8140  0.00  0.00     0.000 S
ATOM     20   O  NGY C   1       4.359   6.938  40.9380  0.00  0.00     0.000 OA
ATOM     21   O  NGY C   1       2.045   7.613  41.1640  0.00  0.00     0.000 OA
ENDBRANCH 5 16
BRANCH 1 22
ATOM     22  O4  BDP C   2       5.449  13.380  42.6320  0.00  0.00     0.000 O
BRANCH 22 26
ATOM     23  C1  BDP C   2       8.985  13.501  44.7400  0.00  0.00     0.000 C
ATOM     24  C2  BDP C   2       8.659  14.744  43.9460  0.00  0.00     0.000 C
ATOM     25  C3  BDP C   2       7.210  14.716  43.5360  0.00  0.00     0.000 C
ATOM     26  C4  BDP C   2       6.888  13.408  42.8200  0.00  0.00     0.000 C
ATOM     27  C5  BDP C   2       7.418  12.232  43.6300  0.00  0.00     0.000 C
ATOM     28  O5  BDP C   2       8.842  12.327  43.8910  0.00  0.00     0.000 O
ATOM     29   O  BDP C   2       8.765  15.933  44.7290  0.00  0.00     0.000 O
ATOM     31  HD  BDP C   2       8.192  16.560  44.5590  0.00  0.00     0.000 HD
ATOM     31   O  BDP C   2       7.008  15.816  42.6580  0.00  0.00     0.000 O
ATOM     33  HD  BDP C   2       6.435  16.443  42.4890  0.00  0.00     0.000 HD
BRANCH 27 33
ATOM     33   C  BDP C   2       7.218  10.910  42.9270  0.00  0.00     0.000 C
ATOM     34   O  BDP C   2       7.285  10.803  41.6790  0.00  0.00     0.000 OA
ATOM     35   O  BDP C   2       6.950   9.929  43.6010  0.00  0.00     0.000 OA
ENDBRANCH 27 33
BRANCH 23 36
ATOM     36  O4  SGN C   3      10.226  13.467  45.2790  0.00  0.00     0.000 O
BRANCH 36 40
ATOM     37  C1  SGN C   3      12.672  11.448  47.9940  0.00  0.00     0.000 C
ATOM     38  C2  SGN C   3      12.783  11.063  46.5100  0.00  0.00     0.000 C
ATOM     39  C3  SGN C   3      12.183  12.151  45.6320  0.00  0.00     0.000 C
ATOM     40  C4  SGN C   3      10.751  12.390  46.0610  0.00  0.00     0.000 C
ATOM     41  C5  SGN C   3      10.734  12.738  47.5330  0.00  0.00     0.000 C
ATOM     42  O5  SGN C   3      11.301  11.660  48.2930  0.00  0.00     0.000 O
ATOM     43   O  SGN C   3      12.245  11.743  44.2710  0.00  0.00     0.000 O
ATOM     45  HD  SGN C   3      11.581  12.286  44.3850  0.00  0.00     0.000 HD
BRANCH 38 47
ATOM     45   N  SGN C   3      13.236   9.709  46.1460  0.00  0.00     0.000 N
ATOM     47  HD  SGN C   3      12.648  10.339  46.0610  0.00  0.00     0.000 HD
ATOM     47   S  SGN C   3      14.749   9.453  46.5620  0.00  0.00     0.000 S
ATOM     48   O  SGN C   3      15.637  10.275  45.8190  0.00  0.00     0.000 OA
ATOM     49   O  SGN C   3      14.807   9.569  47.9830  0.00  0.00     0.000 OA
ATOM     50   O  SGN C   3      14.948   8.072  46.1260  0.00  0.00     0.000 OA
ENDBRANCH 38 47
BRANCH 41 51
ATOM     51   C  SGN C   3       9.361  13.006  48.0860  0.00  0.00     0.000 C
ATOM     52   O  SGN C   3       6.438  10.697  48.0790  0.00  0.00     0.000 OA
ATOM     53   O  SGN C   3       7.084  12.332  49.7040  0.00  0.00     0.000 OA
ATOM     54   O  SGN C   3       6.438  13.005  47.4910  0.00  0.00     0.000 OA
ATOM     55   O  SGN C   3       8.571  11.849  47.9230  0.00  0.00     0.000 O
ATOM     56   S  SGN C   3       6.984  11.985  48.3370  0.00  0.00     0.000 S
ENDBRANCH 41 51
BRANCH 37 57
ATOM     57  O4  IDS C   4      13.359  12.564  48.3420  0.00  0.00     0.000 O
BRANCH 57 61
ATOM     58  C1  IDS C   4      16.059  14.133  50.5140  0.00  0.00     0.000 C
ATOM     59  C2  IDS C   4      16.215  12.705  50.0950  0.00  0.00     0.000 C
ATOM     60  C3  IDS C   4      14.895  11.930  50.1350  0.00  0.00     0.000 C
ATOM     61  C4  IDS C   4      13.641  12.701  49.7480  0.00  0.00     0.000 C
ATOM     62  C5  IDS C   4      13.767  14.177  50.1400  0.00  0.00     0.000 C
ATOM     63  O5  IDS C   4      15.020  14.721  49.7500  0.00  0.00     0.000 O
ATOM     64   O  IDS C   4      14.758  11.499  51.4760  0.00  0.00     0.000 O
ATOM     66  HD  IDS C   4      14.088  11.897  51.8560  0.00  0.00     0.000 HD
BRANCH 59 66
ATOM     66   O  IDS C   4      16.721  12.597  48.7130  0.00  0.00     0.000 O
ATOM     67   S  IDS C   4      18.019  11.702  48.5000  0.00  0.00     0.000 S
ATOM     68   O  IDS C   4      17.566  10.378  48.8500  0.00  0.00     0.000 OA
ATOM     69   O  IDS C   4      18.369  11.879  47.1040  0.00  0.00     0.000 OA
ATOM     70   O  IDS C   4      19.032  12.186  49.4260  0.00  0.00     0.000 OA
ENDBRANCH 59 66
BRANCH 62 71
ATOM     71   C  IDS C   4      12.719  15.058  49.4870  0.00  0.00     0.000 C
ATOM     72   O  IDS C   4      13.001  15.718  48.5060  0.00  0.00     0.000 OA
ATOM     73   O  IDS C   4      11.605  15.165  50.0400  0.00  0.00     0.000 OA
ENDBRANCH 62 71
BRANCH 58 74
ATOM     74  O4  SGN C   5      16.099  14.345  51.8600  0.00  0.00     0.000 O
BRANCH 74 78
ATOM     75  C1  SGN C   5      18.542  17.690  52.3890  0.00  0.00     0.000 C
ATOM     76  C2  SGN C   5      19.028  16.387  53.0520  0.00  0.00     0.000 C
ATOM     77  C3  SGN C   5      18.250  15.181  52.5110  0.00  0.00     0.000 C
ATOM     78  C4  SGN C   5      16.748  15.433  52.5160  0.00  0.00     0.000 C
ATOM     79  C5  SGN C   5      16.452  16.743  51.8000  0.00  0.00     0.000 C
ATOM     80  O5  SGN C   5      17.131  17.832  52.4800  0.00  0.00     0.000 O
ATOM     81   O  SGN C   5      18.566  14.037  53.2980  0.00  0.00     0.000 O
ATOM     83  HD  SGN C   5      19.364  13.905  53.6080  0.00  0.00     0.000 HD
BRANCH 76 85
ATOM     83   N  SGN C   5      20.395  16.810  52.7240  0.00  0.00     0.000 N
ATOM     85  HD  SGN C   5      21.254  16.699  52.7290  0.00  0.00     0.000 HD
ATOM     85   S  SGN C   5      21.733  16.726  53.6160  0.00  0.00     0.000 S
ATOM     86   O  SGN C   5      22.850  17.211  52.8830  0.00  0.00     0.000 OA
ATOM     87   O  SGN C   5      21.451  17.357  54.8560  0.00  0.00     0.000 OA
ATOM     88   O  SGN C   5      21.773  15.203  53.7120  0.00  0.00     0.000 OA
ENDBRANCH 76 85
BRANCH 79 89
ATOM     89   C  SGN C   5      14.974  17.072  51.7310  0.00  0.00     0.000 C
ATOM     90   O  SGN C   5      14.352  16.802  53.0110  0.00  0.00     0.000 O
ATOM     91   S  SGN C   5      13.107  17.730  53.4170  0.00  0.00     0.000 S
ATOM     92   O  SGN C   5      13.553  19.092  53.2790  0.00  0.00     0.000 OA
ATOM     93   O  SGN C   5      12.029  17.410  52.5180  0.00  0.00     0.000 OA
ATOM     94   O  SGN C   5      12.843  17.350  54.7790  0.00  0.00     0.000 OA
ENDBRANCH 79 89
BRANCH 75 95
ATOM     95  O4  BDP C   6      18.910  17.598  51.0760  0.00  0.00     0.000 O
BRANCH 95 99
ATOM     96  C1  BDP C   6      20.141  21.020  48.7920  0.00  0.00     0.000 C
ATOM     97  C2  BDP C   6      19.687  21.225  50.2100  0.00  0.00     0.000 C
ATOM     98  C3  BDP C   6      19.638  19.940  51.0510  0.00  0.00     0.000 C
ATOM     99  C4  BDP C   6      18.914  18.824  50.3130  0.00  0.00     0.000 C
ATOM    100  C5  BDP C   6      19.517  18.719  48.8930  0.00  0.00     0.000 C
ATOM    101  O5  BDP C   6      19.264  20.013  48.3230  0.00  0.00     0.000 O
BRANCH 100 102
ATOM    102   C  BDP C   6      18.820  17.691  48.0390  0.00  0.00     0.000 C
ATOM    103   O  BDP C   6      19.215  16.519  47.9580  0.00  0.00     0.000 OA
ATOM    104   O  BDP C   6      17.815  18.065  47.4230  0.00  0.00     0.000 OA
ENDBRANCH 100 102
ENDBRANCH 95 99
ENDBRANCH 75 95
ENDBRANCH 74 78
ENDBRANCH 58 74
ENDBRANCH 57 61
ENDBRANCH 37 57
ENDBRANCH 36 40
ENDBRANCH 23 36
ENDBRANCH 22 26
ENDBRANCH 1 22
TORSDOF 20
ENDMDL
MODEL 99
REMARK VINA RESULT:      -0.1      6.479     11.845
ROOT
ATOM      1  C1  NGY C   1       4.291  13.043  40.5670  0.00  0.00     0.000 C
ATOM      2  C2  NGY C   1       2.851  13.395  40.2200  0.00  0.00     0.000 C
ATOM      3  C3  NGY C   1       1.903  12.850  41.2830  0.00  0.00     0.000 C
ATOM      4  C4  NGY C   1       2.157  11.363  41.4310  0.00  0.00     0.000 C
ATOM      5  C5  NGY C   1       3.607  11.154  41.8600  0.00  0.00     0.000 C
ATOM      6  O5  NGY C   1       4.469  11.664  40.8100  0.00  0.00     0.000 O
ATOM      7   O  NGY C   1       0.563  13.128  40.9010  0.00  0.00     0.000 O
ATOM      9  HD  NGY C   1       0.104  13.159  40.1670  0.00  0.00     0.000 HD
ATOM      9   O  NGY C   1       1.278  10.789  42.3880  0.00  0.00     0.000 O
ATOM     11  HD  NGY C   1       0.818  10.821  41.6550  0.00  0.00     0.000 HD
ENDROOT
BRANCH 2 13
ATOM     11   N  NGY C   1       1.826  14.200  39.5980  0.00  0.00     0.000 N
ATOM     13  HD  NGY C   1       2.313  14.875  39.3580  0.00  0.00     0.000 HD
ATOM     13   C  NGY C   1       2.102  15.386  39.0580  0.00  0.00     0.000 C
ATOM     14   O  NGY C   1       3.211  15.906  39.1960  0.00  0.00     0.000 OA
ATOM     15   C  NGY C   1       1.011  16.033  38.2610  0.00  0.00     0.000 C
ENDBRANCH 2 13
BRANCH 5 16
ATOM     16   C  NGY C   1       4.012   9.728  42.0580  0.00  0.00     0.000 C
ATOM     17   O  NGY C   1       4.995   8.307  45.2940  0.00  0.00     0.000 OA
ATOM     18   O  NGY C   1       4.533   9.578  43.3810  0.00  0.00     0.000 O
ATOM     19   S  NGY C   1       4.590   8.105  43.9260  0.00  0.00     0.000 S
ATOM     20   O  NGY C   1       5.586   7.406  43.1570  0.00  0.00     0.000 OA
ATOM     21   O  NGY C   1       3.243   7.592  43.7360  0.00  0.00     0.000 OA
ENDBRANCH 5 16
BRANCH 1 22
ATOM     22  O4  BDP C   2       4.686  13.808  41.6060  0.00  0.00     0.000 O
BRANCH 22 26
ATOM     23  C1  BDP C   2       7.667  15.561  43.8440  0.00  0.00     0.000 C
ATOM     24  C2  BDP C   2       7.141  16.392  42.6980  0.00  0.00     0.000 C
ATOM     25  C3  BDP C   2       5.841  15.811  42.2060  0.00  0.00     0.000 C
ATOM     26  C4  BDP C   2       6.013  14.330  41.8840  0.00  0.00     0.000 C
ATOM     27  C5  BDP C   2       6.711  13.627  43.0410  0.00  0.00     0.000 C
ATOM     28  O5  BDP C   2       7.992  14.224  43.3690  0.00  0.00     0.000 O
ATOM     29   O  BDP C   2       6.787  17.715  43.1020  0.00  0.00     0.000 O
ATOM     31  HD  BDP C   2       6.098  18.067  42.7140  0.00  0.00     0.000 HD
ATOM     31   O  BDP C   2       5.485  16.529  41.0310  0.00  0.00     0.000 O
ATOM     33  HD  BDP C   2       4.796  16.881  40.6430  0.00  0.00     0.000 HD
BRANCH 27 33
ATOM     33   C  BDP C   2       6.999  12.175  42.7450  0.00  0.00     0.000 C
ATOM     34   O  BDP C   2       7.562  11.811  41.6840  0.00  0.00     0.000 OA
ATOM     35   O  BDP C   2       6.639  11.335  43.5520  0.00  0.00     0.000 OA
ENDBRANCH 27 33
BRANCH 23 36
ATOM     36  O4  SGN C   3       8.766  16.054  44.4600  0.00  0.00     0.000 O
BRANCH 36 40
ATOM     37  C1  SGN C   3       7.774  15.994  48.5150  0.00  0.00     0.000 C
ATOM     38  C2  SGN C   3       8.046  17.361  47.8670  0.00  0.00     0.000 C
ATOM     39  C3  SGN C   3       7.956  17.259  46.3510  0.00  0.00     0.000 C
ATOM     40  C4  SGN C   3       8.919  16.192  45.8760  0.00  0.00     0.000 C
ATOM     41  C5  SGN C   3       8.594  14.893  46.5790  0.00  0.00     0.000 C
ATOM     42  O5  SGN C   3       8.716  15.067  48.0000  0.00  0.00     0.000 O
ATOM     43   O  SGN C   3       8.270  18.521  45.7760  0.00  0.00     0.000 O
ATOM     45  HD  SGN C   3       8.467  17.887  45.2210  0.00  0.00     0.000 HD
BRANCH 38 47
ATOM     45   N  SGN C   3       6.965  18.178  48.4470  0.00  0.00     0.000 N
ATOM     47  HD  SGN C   3       7.205  17.553  47.8970  0.00  0.00     0.000 HD
ATOM     47   S  SGN C   3       7.431  18.938  49.7620  0.00  0.00     0.000 S
ATOM     48   O  SGN C   3       7.715  18.028  50.8140  0.00  0.00     0.000 OA
ATOM     49   O  SGN C   3       8.486  19.817  49.3740  0.00  0.00     0.000 OA
ATOM     50   O  SGN C   3       6.222  19.675  50.1240  0.00  0.00     0.000 OA
ENDBRANCH 38 47
BRANCH 41 51
ATOM     51   C  SGN C   3       9.482  13.743  46.1890  0.00  0.00     0.000 C
ATOM     52   O  SGN C   3      13.153  13.840  45.5600  0.00  0.00     0.000 OA
ATOM     53   O  SGN C   3      11.814  12.095  46.5060  0.00  0.00     0.000 OA
ATOM     54   O  SGN C   3      11.501  12.766  44.2220  0.00  0.00     0.000 OA
ATOM     55   O  SGN C   3      10.812  14.203  46.1000  0.00  0.00     0.000 O
ATOM     56   S  SGN C   3      11.923  13.124  45.5430  0.00  0.00     0.000 S
ENDBRANCH 41 51
BRANCH 37 57
ATOM     57  O4  IDS C   4       6.531  15.502  48.2960  0.00  0.00     0.000 O
BRANCH 57 61
ATOM     58  C1  IDS C   4       3.072  14.375  49.4110  0.00  0.00     0.000 C
ATOM     59  C2  IDS C   4       3.591  15.690  49.8990  0.00  0.00     0.000 C
ATOM     60  C3  IDS C   4       5.079  15.643  50.2580  0.00  0.00     0.000 C
ATOM     61  C4  IDS C   4       5.961  14.756  49.3890  0.00  0.00     0.000 C
ATOM     62  C5  IDS C   4       5.175  13.544  48.8760  0.00  0.00     0.000 C
ATOM     63  O5  IDS C   4       3.906  13.919  48.3590  0.00  0.00     0.000 O
ATOM     64   O  IDS C   4       5.127  15.155  51.5850  0.00  0.00     0.000 O
ATOM     66  HD  IDS C   4       5.493  14.370  51.6070  0.00  0.00     0.000 HD
BRANCH 59 66
ATOM     66   O  IDS C   4       3.440  16.746  48.8800  0.00  0.00     0.000 O
ATOM     67   S  IDS C   4       2.536  17.994  49.2770  0.00  0.00     0.000 S
ATOM     68   O  IDS C   4       3.274  18.602  50.3580  0.00  0.00     0.000 OA
ATOM     69   O  IDS C   4       2.450  18.792  48.0710  0.00  0.00     0.000 OA
ATOM     70   O  IDS C   4       1.256  17.471  49.7290  0.00  0.00     0.000 OA
ENDBRANCH 59 66
BRANCH 62 71
ATOM     71   C  IDS C   4       5.877  12.816  47.7460  0.00  0.00     0.000 C
ATOM     72   O  IDS C   4       5.420  12.851  46.6200  0.00  0.00     0.000 OA
ATOM     73   O  IDS C   4       6.864  12.103  48.0210  0.00  0.00     0.000 OA
ENDBRANCH 62 71
BRANCH 58 74
ATOM     74  O4  SGN C   5       2.700  13.504  50.3910  0.00  0.00     0.000 O
BRANCH 74 78
ATOM     75  C1  SGN C   5       0.928   9.811  51.2070  0.00  0.00     0.000 C
ATOM     76  C2  SGN C   5       2.466   9.819  51.1260  0.00  0.00     0.000 C
ATOM     77  C3  SGN C   5       3.004  11.255  51.1670  0.00  0.00     0.000 C
ATOM     78  C4  SGN C   5       2.262  12.159  50.1920  0.00  0.00     0.000 C
ATOM     79  C5  SGN C   5       0.764  12.043  50.4310  0.00  0.00     0.000 C
ATOM     80  O5  SGN C   5       0.347  10.667  50.2330  0.00  0.00     0.000 O
ATOM     81   O  SGN C   5       4.397  11.236  50.8700  0.00  0.00     0.000 O
ATOM     83  HD  SGN C   5       4.911  10.597  51.1470  0.00  0.00     0.000 HD
BRANCH 76 85
ATOM     83   N  SGN C   5       3.490   8.828  51.4810  0.00  0.00     0.000 N
ATOM     85  HD  SGN C   5       3.759   8.014  51.6060  0.00  0.00     0.000 HD
ATOM     85   S  SGN C   5       3.354   7.489  52.3670  0.00  0.00     0.000 S
ATOM     86   O  SGN C   5       4.595   6.798  52.4170  0.00  0.00     0.000 OA
ATOM     87   O  SGN C   5       2.773   7.865  53.6060  0.00  0.00     0.000 OA
ATOM     88   O  SGN C   5       2.377   6.774  51.4370  0.00  0.00     0.000 OA
ENDBRANCH 76 85
BRANCH 79 89
ATOM     89   C  SGN C   5      -0.063  12.928  49.5210  0.00  0.00     0.000 C
ATOM     90   O  SGN C   5       0.227  12.614  48.1370  0.00  0.00     0.000 O
ATOM     91   S  SGN C   5      -0.973  12.805  47.0880  0.00  0.00     0.000 S
ATOM     92   O  SGN C   5      -2.094  12.071  47.6150  0.00  0.00     0.000 OA
ATOM     93   O  SGN C   5      -1.234  14.218  46.9960  0.00  0.00     0.000 OA
ATOM     94   O  SGN C   5      -0.443  12.246  45.8740  0.00  0.00     0.000 OA
ENDBRANCH 79 89
BRANCH 75 95
ATOM     95  O4  BDP C   6       0.619  10.263  52.4590  0.00  0.00     0.000 O
BRANCH 95 99
ATOM     96  C1  BDP C   6      -2.752   8.634  54.5640  0.00  0.00     0.000 C
ATOM     97  C2  BDP C   6      -2.583   8.306  53.1070  0.00  0.00     0.000 C
ATOM     98  C3  BDP C   6      -1.183   8.602  52.5480  0.00  0.00     0.000 C
ATOM     99  C4  BDP C   6      -0.718   9.998  52.9360  0.00  0.00     0.000 C
ATOM    100  C5  BDP C   6      -0.923  10.164  54.4600  0.00  0.00     0.000 C
ATOM    101  O5  BDP C   6      -2.338   9.986  54.6310  0.00  0.00     0.000 O
BRANCH 100 102
ATOM    102   C  BDP C   6      -0.566  11.545  54.9480  0.00  0.00     0.000 C
ATOM    103   O  BDP C   6       0.119  11.732  55.9640  0.00  0.00     0.000 OA
ATOM    104   O  BDP C   6      -0.978  12.499  54.2770  0.00  0.00     0.000 OA
ENDBRANCH 100 102
ENDBRANCH 95 99
ENDBRANCH 75 95
ENDBRANCH 74 78
ENDBRANCH 58 74
ENDBRANCH 57 61
ENDBRANCH 37 57
ENDBRANCH 36 40
ENDBRANCH 23 36
ENDBRANCH 22 26
ENDBRANCH 1 22
TORSDOF 20
ENDMDL
MODEL 100
REMARK VINA RESULT:      -0.1     14.400     21.916
ROOT
ATOM      1  C1  NGY C   1      27.357  15.864  55.6190  0.00  0.00     0.000 C
ATOM      2  C2  NGY C   1      28.265  15.462  56.7730  0.00  0.00     0.000 C
ATOM      3  C3  NGY C   1      27.599  14.380  57.6160  0.00  0.00     0.000 C
ATOM      4  C4  NGY C   1      26.236  14.885  58.0490  0.00  0.00     0.000 C
ATOM      5  C5  NGY C   1      25.402  15.171  56.8030  0.00  0.00     0.000 C
ATOM      6  O5  NGY C   1      26.060  16.220  56.0470  0.00  0.00     0.000 O
ATOM      7   O  NGY C   1      28.432  14.074  58.7260  0.00  0.00     0.000 O
ATOM      9  HD  NGY C   1      28.960  14.501  59.2630  0.00  0.00     0.000 HD
ATOM      9   O  NGY C   1      25.577  13.931  58.8690  0.00  0.00     0.000 O
ATOM     11  HD  NGY C   1      26.105  14.358  59.4060  0.00  0.00     0.000 HD
ENDROOT
BRANCH 2 13
ATOM     11   N  NGY C   1      29.541  14.981  57.2470  0.00  0.00     0.000 N
ATOM     13  HD  NGY C   1      30.060  15.460  56.7450  0.00  0.00     0.000 HD
ATOM     13   C  NGY C   1      30.689  15.440  56.7490  0.00  0.00     0.000 C
ATOM     14   O  NGY C   1      30.705  16.185  55.7680  0.00  0.00     0.000 OA
ATOM     15   C  NGY C   1      31.942  15.027  57.4580  0.00  0.00     0.000 C
ENDBRANCH 2 13
BRANCH 5 16
ATOM     16   C  NGY C   1      24.017  15.671  57.0660  0.00  0.00     0.000 C
ATOM     17   O  NGY C   1      22.042  17.603  54.6530  0.00  0.00     0.000 OA
ATOM     18   O  NGY C   1      23.640  16.558  56.0100  0.00  0.00     0.000 O
ATOM     19   S  NGY C   1      22.099  16.827  55.8660  0.00  0.00     0.000 S
ATOM     20   O  NGY C   1      21.690  17.584  57.0210  0.00  0.00     0.000 OA
ATOM     21   O  NGY C   1      21.500  15.504  55.7980  0.00  0.00     0.000 OA
ENDBRANCH 5 16
BRANCH 1 22
ATOM     22  O4  BDP C   2      27.348  14.870  54.7060  0.00  0.00     0.000 O
BRANCH 22 26
ATOM     23  C1  BDP C   2      27.478  13.518  50.8180  0.00  0.00     0.000 C
ATOM     24  C2  BDP C   2      28.752  14.150  51.3290  0.00  0.00     0.000 C
ATOM     25  C3  BDP C   2      28.694  14.259  52.8300  0.00  0.00     0.000 C
ATOM     26  C4  BDP C   2      27.419  14.976  53.2600  0.00  0.00     0.000 C
ATOM     27  C5  BDP C   2      26.218  14.366  52.5470  0.00  0.00     0.000 C
ATOM     28  O5  BDP C   2      26.351  14.393  51.1030  0.00  0.00     0.000 O
ATOM     29   O  BDP C   2      29.897  13.331  51.0940  0.00  0.00     0.000 O
ATOM     31  HD  BDP C   2      30.512  13.342  51.7040  0.00  0.00     0.000 HD
ATOM     31   O  BDP C   2      29.835  15.007  53.2340  0.00  0.00     0.000 O
ATOM     33  HD  BDP C   2      30.449  15.017  53.8440  0.00  0.00     0.000 HD
BRANCH 27 33
ATOM     33   C  BDP C   2      24.932  15.095  52.8550  0.00  0.00     0.000 C
ATOM     34   O  BDP C   2      23.981  14.542  53.4560  0.00  0.00     0.000 OA
ATOM     35   O  BDP C   2      24.813  16.248  52.4730  0.00  0.00     0.000 OA
ENDBRANCH 27 33
BRANCH 23 36
ATOM     36  O4  SGN C   3      27.459  13.245  49.4920  0.00  0.00     0.000 O
BRANCH 36 40
ATOM     37  C1  SGN C   3      26.342  10.446  46.6030  0.00  0.00     0.000 C
ATOM     38  C2  SGN C   3      25.309  11.512  47.0020  0.00  0.00     0.000 C
ATOM     39  C3  SGN C   3      25.990  12.678  47.7030  0.00  0.00     0.000 C
ATOM     40  C4  SGN C   3      26.763  12.149  48.8920  0.00  0.00     0.000 C
ATOM     41  C5  SGN C   3      27.735  11.095  48.4120  0.00  0.00     0.000 C
ATOM     42  O5  SGN C   3      27.017  10.025  47.7780  0.00  0.00     0.000 O
ATOM     43   O  SGN C   3      25.005  13.619  48.1130  0.00  0.00     0.000 O
ATOM     45  HD  SGN C   3      25.693  13.665  48.6360  0.00  0.00     0.000 HD
BRANCH 38 47
ATOM     45   N  SGN C   3      24.456  10.462  46.4150  0.00  0.00     0.000 N
ATOM     47  HD  SGN C   3      25.004  10.705  47.0410  0.00  0.00     0.000 HD
ATOM     47   S  SGN C   3      23.450  11.047  45.3320  0.00  0.00     0.000 S
ATOM     48   O  SGN C   3      22.493  11.910  45.9280  0.00  0.00     0.000 OA
ATOM     49   O  SGN C   3      24.249  11.599  44.2880  0.00  0.00     0.000 OA
ATOM     50   O  SGN C   3      22.750   9.840  44.8950  0.00  0.00     0.000 OA
ENDBRANCH 38 47
BRANCH 41 51
ATOM     51   C  SGN C   3      28.574  10.488  49.5040  0.00  0.00     0.000 C
ATOM     52   O  SGN C   3      27.432   9.375  52.8700  0.00  0.00     0.000 OA
ATOM     53   O  SGN C   3      29.142   8.465  51.4630  0.00  0.00     0.000 OA
ATOM     54   O  SGN C   3      29.364  10.676  52.3740  0.00  0.00     0.000 OA
ATOM     55   O  SGN C   3      27.739  10.166  50.5940  0.00  0.00     0.000 O
ATOM     56   S  SGN C   3      28.491   9.621  51.9520  0.00  0.00     0.000 S
ENDBRANCH 41 51
BRANCH 37 57
ATOM     57  O4  IDS C   4      27.271  10.865  45.7090  0.00  0.00     0.000 O
BRANCH 57 61
ATOM     58  C1  IDS C   4      29.159  10.789  42.4070  0.00  0.00     0.000 C
ATOM     59  C2  IDS C   4      27.668  10.908  42.3790  0.00  0.00     0.000 C
ATOM     60  C3  IDS C   4      26.985  10.029  43.4300  0.00  0.00     0.000 C
ATOM     61  C4  IDS C   4      27.707   9.872  44.7610  0.00  0.00     0.000 C
ATOM     62  C5  IDS C   4      29.226   9.931  44.5650  0.00  0.00     0.000 C
ATOM     63  O5  IDS C   4      29.608  11.016  43.7320  0.00  0.00     0.000 O
ATOM     64   O  IDS C   4      26.873   8.751  42.8310  0.00  0.00     0.000 O
ATOM     66  HD  IDS C   4      27.377   8.179  43.2410  0.00  0.00     0.000 HD
BRANCH 59 66
ATOM     66   O  IDS C   4      27.229  12.291  42.6420  0.00  0.00     0.000 O
ATOM     67   S  IDS C   4      26.442  13.022  41.4680  0.00  0.00     0.000 S
ATOM     68   O  IDS C   4      25.230  12.247  41.3530  0.00  0.00     0.000 OA
ATOM     69   O  IDS C   4      26.255  14.382  41.9340  0.00  0.00     0.000 OA
ATOM     70   O  IDS C   4      27.261  12.918  40.2700  0.00  0.00     0.000 OA
ENDBRANCH 59 66
BRANCH 62 71
ATOM     71   C  IDS C   4      29.986  10.125  45.8640  0.00  0.00     0.000 C
ATOM     72   O  IDS C   4      30.555  11.176  46.0860  0.00  0.00     0.000 OA
ATOM     73   O  IDS C   4      30.097   9.153  46.6370  0.00  0.00     0.000 OA
ENDBRANCH 62 71
BRANCH 58 74
ATOM     74  O4  SGN C   5      29.666   9.737  41.7030  0.00  0.00     0.000 O
BRANCH 74 78
ATOM     75  C1  SGN C   5      32.929   8.221  39.5830  0.00  0.00     0.000 C
ATOM     76  C2  SGN C   5      33.028   8.149  41.1180  0.00  0.00     0.000 C
ATOM     77  C3  SGN C   5      31.660   8.408  41.7630  0.00  0.00     0.000 C
ATOM     78  C4  SGN C   5      30.990   9.643  41.1780  0.00  0.00     0.000 C
ATOM     79  C5  SGN C   5      30.957   9.532  39.6610  0.00  0.00     0.000 C
ATOM     80  O5  SGN C   5      32.314   9.428  39.1530  0.00  0.00     0.000 O
ATOM     81   O  SGN C   5      31.832   8.551  43.1690  0.00  0.00     0.000 O
ATOM     83  HD  SGN C   5      32.409   8.076  43.6070  0.00  0.00     0.000 HD
BRANCH 76 85
ATOM     83   N  SGN C   5      34.366   7.562  40.9660  0.00  0.00     0.000 N
ATOM     85  HD  SGN C   5      34.905   6.887  40.9060  0.00  0.00     0.000 HD
ATOM     85   S  SGN C   5      35.017   6.293  41.7130  0.00  0.00     0.000 S
ATOM     86   O  SGN C   5      36.330   6.048  41.2240  0.00  0.00     0.000 OA
ATOM     87   O  SGN C   5      34.879   6.512  43.1090  0.00  0.00     0.000 OA
ATOM     88   O  SGN C   5      34.037   5.258  41.1670  0.00  0.00     0.000 OA
ENDBRANCH 76 85
BRANCH 79 89
ATOM     89   C  SGN C   5      30.284  10.709  38.9840  0.00  0.00     0.000 C
ATOM     90   O  SGN C   5      30.203  10.472  37.5570  0.00  0.00     0.000 O
ATOM     91   S  SGN C   5      28.946  11.111  36.7900  0.00  0.00     0.000 S
ATOM     92   O  SGN C   5      27.773  10.680  37.5050  0.00  0.00     0.000 OA
ATOM     93   O  SGN C   5      29.114  12.541  36.8190  0.00  0.00     0.000 OA
ATOM     94   O  SGN C   5      29.047  10.554  35.4690  0.00  0.00     0.000 OA
ENDBRANCH 79 89
BRANCH 75 95
ATOM     95  O4  BDP C   6      32.160   7.155  39.2090  0.00  0.00     0.000 O
BRANCH 95 99
ATOM     96  C1  BDP C   6      32.446   4.682  35.7100  0.00  0.00     0.000 C
ATOM     97  C2  BDP C   6      33.690   5.349  36.2250  0.00  0.00     0.000 C
ATOM     98  C3  BDP C   6      33.574   5.883  37.6610  0.00  0.00     0.000 C
ATOM     99  C4  BDP C   6      32.301   6.695  37.8480  0.00  0.00     0.000 C
ATOM    100  C5  BDP C   6      31.118   5.861  37.3040  0.00  0.00     0.000 C
ATOM    101  O5  BDP C   6      31.451   5.667  35.9200  0.00  0.00     0.000 O
BRANCH 100 102
ATOM    102   C  BDP C   6      29.807   6.603  37.3650  0.00  0.00     0.000 C
ATOM    103   O  BDP C   6      29.430   7.359  36.4580  0.00  0.00     0.000 OA
ATOM    104   O  BDP C   6      29.105   6.415  38.3660  0.00  0.00     0.000 OA
ENDBRANCH 100 102
ENDBRANCH 95 99
ENDBRANCH 75 95
ENDBRANCH 74 78
ENDBRANCH 58 74
ENDBRANCH 57 61
ENDBRANCH 37 57
ENDBRANCH 36 40
ENDBRANCH 23 36
ENDBRANCH 22 26
ENDBRANCH 1 22
TORSDOF 20
ENDMDL
