ROOT
ATOM      1  C1  GCD D   1      19.450  28.246   50.410  0.00  0.00     0.000 C
ATOM      2  C2  GCD D   1      18.080  28.148   49.750  0.00  0.00     0.000 C
ATOM      3  C3  GCD D   1      17.190  29.314   50.170  0.00  0.00     0.000 C
ATOM      4  C4  GCD D   1      17.430  29.714   51.610  0.00  0.00     0.000 C
ATOM      5  C5  GCD D   1      18.390  29.142   52.360  0.00  0.00     0.000 C
ATOM      6  O5  GCD D   1      19.250  28.107   51.810  0.00  0.00     0.000 O
ATOM      7   O  GCD D   1      18.220  28.154   48.330  0.00  0.00     0.000 O
ATOM      9  HD  GCD D   1      18.720  28.654   48.830  0.00  0.00     0.000 HD
ATOM      9   O  GCD D   1      15.830  28.925   50.010  0.00  0.00     0.000 O
ATOM     11  HD  GCD D   1      16.330  29.425   50.510  0.00  0.00     0.000 HD
ENDROOT
BRANCH 5 11
ATOM     11   C  GCD D   1      18.590  29.560   53.750  0.00  0.00     0.000 C
ATOM     12   O  GCD D   1      18.920  30.744   53.980  0.00  0.00     0.000 OA
ATOM     13   O  GCD D   1      18.420  28.718   54.660  0.00  0.00     0.000 OA
ENDBRANCH 5 11
BRANCH 1 14
ATOM     14  O3  ASG D   2      20.430  27.365   50.540  0.00  0.00     0.000 O
BRANCH 14 17
ATOM     15  C1  ASG D   2      24.120  27.503   49.860  0.00  0.00     0.000 C
ATOM     16  C2  ASG D   2      22.640  27.318   49.550  0.00  0.00     0.000 C
ATOM     17  C3  ASG D   2      21.800  27.666   50.780  0.00  0.00     0.000 C
ATOM     18  C4  ASG D   2      22.320  26.909   52.000  0.00  0.00     0.000 C
ATOM     19  C5  ASG D   2      23.790  27.253   52.210  0.00  0.00     0.000 C
ATOM     20  O5  ASG D   2      24.540  26.855   51.050  0.00  0.00     0.000 O
ATOM     21   O  ASG D   2      24.780  25.219   53.090  0.00  0.00     0.000 O
ATOM     23  HD  ASG D   2      25.280  25.719   53.590  0.00  0.00     0.000 HD
ATOM     23   C  ASG D   2      24.400  26.554   53.410  0.00  0.00     0.000 C
BRANCH 16 26
ATOM     24   N  ASG D   2      22.200  28.085   48.400  0.00  0.00     0.000 N
ATOM     26  HD  ASG D   2      22.700  28.585   48.900  0.00  0.00     0.000 HD
ATOM     26   O  ASG D   2      21.810  26.330   47.060  0.00  0.00     0.000 OA
ATOM     27   C  ASG D   2      21.820  27.544   47.240  0.00  0.00     0.000 C
ATOM     28   C  ASG D   2      21.390  28.509   46.180  0.00  0.00     0.000 C
ENDBRANCH 16 26
BRANCH 18 29
ATOM     29   O  ASG D   2      22.200  25.455   51.750  0.00  0.00     0.000 O
ATOM     30   O  ASG D   2      21.580  24.814   54.010  0.00  0.00     0.000 OA
ATOM     31   O  ASG D   2      19.880  25.092   52.320  0.00  0.00     0.000 OA
ATOM     32   O  ASG D   2      21.390  23.210   52.220  0.00  0.00     0.000 OA
ATOM     33   S  ASG D   2      21.200  24.584   52.630  0.00  0.00     0.000 S
ENDBRANCH 18 29
BRANCH 15 34
ATOM     34  O4  BDP D   3      25.290  27.916   49.370  0.00  0.00     0.000 O
BRANCH 34 38
ATOM     35  C1  BDP D   3      29.350  27.608   48.230  0.00  0.00     0.000 C
ATOM     36  C2  BDP D   3      29.020  27.609   49.720  0.00  0.00     0.000 C
ATOM     37  C3  BDP D   3      27.560  27.268   50.010  0.00  0.00     0.000 C
ATOM     38  C4  BDP D   3      26.680  28.129   49.110  0.00  0.00     0.000 C
ATOM     39  C5  BDP D   3      27.040  27.806   47.670  0.00  0.00     0.000 C
ATOM     40  O5  BDP D   3      28.360  28.284   47.430  0.00  0.00     0.000 O
ATOM     41   O  BDP D   3      29.900  26.670   50.340  0.00  0.00     0.000 O
ATOM     43  HD  BDP D   3      30.400  27.170   50.840  0.00  0.00     0.000 HD
ATOM     43   O  BDP D   3      27.230  27.515   51.380  0.00  0.00     0.000 O
ATOM     45  HD  BDP D   3      27.730  28.015   51.880  0.00  0.00     0.000 HD
BRANCH 39 45
ATOM     45   C  BDP D   3      26.040  28.440   46.750  0.00  0.00     0.000 C
ATOM     46   O  BDP D   3      25.210  27.689   46.200  0.00  0.00     0.000 OA
ATOM     47   O  BDP D   3      26.060  29.680   46.590  0.00  0.00     0.000 OA
ENDBRANCH 39 45
BRANCH 35 48
ATOM     48  O3  NG6 D   4      30.290  28.270   47.540  0.00  0.00     0.000 O
BRANCH 48 51
ATOM     49  C1  NG6 D   4      33.260  27.356   45.430  0.00  0.00     0.000 C
ATOM     50  C2  NG6 D   4      32.500  27.856   46.670  0.00  0.00     0.000 C
ATOM     51  C3  NG6 D   4      31.000  27.740   46.430  0.00  0.00     0.000 C
ATOM     52  C4  NG6 D   4      30.580  28.463   45.150  0.00  0.00     0.000 C
ATOM     53  C5  NG6 D   4      31.480  28.033   43.990  0.00  0.00     0.000 C
ATOM     54  O5  NG6 D   4      32.870  28.168   44.340  0.00  0.00     0.000 O
BRANCH 50 57
ATOM     55   N  NG6 D   4      32.910  27.176   47.880  0.00  0.00     0.000 N
ATOM     57  HD  NG6 D   4      33.410  27.676   48.380  0.00  0.00     0.000 HD
ATOM     57   C  NG6 D   4      33.870  27.618   48.700  0.00  0.00     0.000 C
ATOM     58   C  NG6 D   4      34.180  26.757   49.880  0.00  0.00     0.000 C
ATOM     59   O  NG6 D   4      34.470  28.668   48.480  0.00  0.00     0.000 OA
ENDBRANCH 50 57
BRANCH 53 60
ATOM     60   C  NG6 D   4      31.250  28.871   42.750  0.00  0.00     0.000 C
ATOM     61   O  NG6 D   4      31.970  28.298   41.650  0.00  0.00     0.000 O
ATOM     62   S  NG6 D   4      31.670  28.916   40.210  0.00  0.00     0.000 S
ATOM     63   O  NG6 D   4      32.900  28.713   39.480  0.00  0.00     0.000 OA
ATOM     64   O  NG6 D   4      30.560  28.141   39.710  0.00  0.00     0.000 OA
ATOM     65   O  NG6 D   4      31.350  30.310   40.430  0.00  0.00     0.000 OA
ENDBRANCH 53 60
ENDBRANCH 48 51
ENDBRANCH 35 48
ENDBRANCH 34 38
ENDBRANCH 15 34
ENDBRANCH 14 17
ENDBRANCH 1 14
TORSDOF 12