MODEL 1
REMARK VINA RESULT:      -8.6      0.000      0.000
ROOT
ATOM      1  C1  IDS C   1     151.168  18.164  55.5420  0.00  0.00     0.000 C
ATOM      2  C2  IDS C   1     151.594  16.709  55.3280  0.00  0.00     0.000 C
ATOM      3  C3  IDS C   1     152.813  16.372  56.1750  0.00  0.00     0.000 C
ATOM      4  C4  IDS C   1     153.976  17.292  55.8320  0.00  0.00     0.000 C
ATOM      5  C5  IDS C   1     153.469  18.710  55.5890  0.00  0.00     0.000 C
ATOM      6  O5  IDS C   1     152.195  18.888  56.2080  0.00  0.00     0.000 O
ATOM      7   O  IDS C   1     153.190  15.004  55.9600  0.00  0.00     0.000 O
ATOM      9  HD  IDS C   1     152.468  14.536  55.8580  0.00  0.00     0.000 HD
ENDROOT
BRANCH 2 9
ATOM      9   O  IDS C   1     150.510  15.779  55.7170  0.00  0.00     0.000 O
ATOM     10   S  IDS C   1     149.993  14.695  54.6680  0.00  0.00     0.000 S
ATOM     11   O  IDS C   1     148.959  13.947  55.3470  0.00  0.00     0.000 OA
ATOM     12   O  IDS C   1     149.493  15.452  53.5390  0.00  0.00     0.000 OA
ATOM     13   O  IDS C   1     151.145  13.886  54.3370  0.00  0.00     0.000 OA
ENDBRANCH 2 9
BRANCH 5 14
ATOM     14   C  IDS C   1     154.420  19.761  56.1340  0.00  0.00     0.000 C
ATOM     15   O  IDS C   1     155.576  19.471  56.3290  0.00  0.00     0.000 OA
ATOM     16   O  IDS C   1     154.010  20.884  56.3710  0.00  0.00     0.000 OA
ENDBRANCH 5 14
BRANCH 1 17
ATOM     17  O4  SGN C   2     149.892  18.535  55.6810  0.00  0.00     0.000 O
BRANCH 17 21
ATOM     18  C1  SGN C   2     146.435  19.501  57.8350  0.00  0.00     0.000 C
ATOM     19  C2  SGN C   2     147.751  19.479  58.6230  0.00  0.00     0.000 C
ATOM     20  C3  SGN C   2     148.938  19.536  57.6530  0.00  0.00     0.000 C
ATOM     21  C4  SGN C   2     148.819  18.428  56.6120  0.00  0.00     0.000 C
ATOM     22  C5  SGN C   2     147.478  18.559  55.8970  0.00  0.00     0.000 C
ATOM     23  O5  SGN C   2     146.401  18.482  56.8590  0.00  0.00     0.000 O
ATOM     24   O  SGN C   2     150.154  19.428  58.3730  0.00  0.00     0.000 O
ATOM     26  HD  SGN C   2     149.613  19.736  57.7720  0.00  0.00     0.000 HD
BRANCH 19 28
ATOM     26   N  SGN C   2     147.374  20.173  59.8620  0.00  0.00     0.000 N
ATOM     28  HD  SGN C   2     146.712  19.633  59.7180  0.00  0.00     0.000 HD
ATOM     28   O  SGN C   2     148.065  21.255  62.0000  0.00  0.00     0.000 OA
ATOM     29   S  SGN C   2     148.093  19.871  61.2680  0.00  0.00     0.000 S
ATOM     30   O  SGN C   2     147.273  18.967  61.9800  0.00  0.00     0.000 OA
ATOM     31   O  SGN C   2     149.446  19.528  60.9960  0.00  0.00     0.000 OA
ENDBRANCH 19 28
BRANCH 22 32
ATOM     32   C  SGN C   2     147.233  17.470  54.8810  0.00  0.00     0.000 C
ATOM     33   S  SGN C   2     145.273  16.050  53.9950  0.00  0.00     0.000 S
ATOM     34   O  SGN C   2     145.279  15.195  55.1550  0.00  0.00     0.000 OA
ATOM     35   O  SGN C   2     143.945  16.358  53.5070  0.00  0.00     0.000 OA
ATOM     36   O  SGN C   2     146.187  15.639  52.9560  0.00  0.00     0.000 OA
ATOM     37   O  SGN C   2     145.844  17.442  54.5300  0.00  0.00     0.000 O
ENDBRANCH 22 32
BRANCH 18 38
ATOM     38  O4  IDS C   3     145.791  20.521  57.2620  0.00  0.00     0.000 O
BRANCH 38 42
ATOM     39  C1  IDS C   3     142.869  21.866  55.9270  0.00  0.00     0.000 C
ATOM     40  C2  IDS C   3     144.251  22.340  55.4480  0.00  0.00     0.000 C
ATOM     41  C3  IDS C   3     145.133  22.752  56.6260  0.00  0.00     0.000 C
ATOM     42  C4  IDS C   3     145.115  21.696  57.7230  0.00  0.00     0.000 C
ATOM     43  C5  IDS C   3     143.666  21.355  58.0930  0.00  0.00     0.000 C
ATOM     44  O5  IDS C   3     142.990  20.874  56.9330  0.00  0.00     0.000 O
ATOM     45   O  IDS C   3     144.672  23.999  57.1500  0.00  0.00     0.000 O
ATOM     47  HD  IDS C   3     143.915  24.295  57.4490  0.00  0.00     0.000 HD
BRANCH 40 47
ATOM     47   O  IDS C   3     144.952  21.253  54.7250  0.00  0.00     0.000 O
ATOM     48   S  IDS C   3     144.410  20.765  53.3020  0.00  0.00     0.000 S
ATOM     49   O  IDS C   3     143.257  19.935  53.5790  0.00  0.00     0.000 OA
ATOM     50   O  IDS C   3     145.501  20.018  52.7150  0.00  0.00     0.000 OA
ATOM     51   O  IDS C   3     144.077  21.954  52.5640  0.00  0.00     0.000 OA
ENDBRANCH 40 47
BRANCH 43 52
ATOM     52   C  IDS C   3     143.570  20.329  59.2000  0.00  0.00     0.000 C
ATOM     53   O  IDS C   3     142.896  19.337  59.0460  0.00  0.00     0.000 OA
ATOM     54   O  IDS C   3     144.167  20.506  60.2310  0.00  0.00     0.000 OA
ENDBRANCH 43 52
BRANCH 39 55
ATOM     55  O4  SGN C   4     141.824  22.678  56.0890  0.00  0.00     0.000 O
BRANCH 55 59
ATOM     56  C1  SGN C   4     138.088  21.236  54.8800  0.00  0.00     0.000 C
ATOM     57  C2  SGN C   4     139.010  21.770  53.7710  0.00  0.00     0.000 C
ATOM     58  C3  SGN C   4     140.447  21.887  54.2720  0.00  0.00     0.000 C
ATOM     59  C4  SGN C   4     140.498  22.666  55.5810  0.00  0.00     0.000 C
ATOM     60  C5  SGN C   4     139.561  21.999  56.5860  0.00  0.00     0.000 C
ATOM     61  O5  SGN C   4     138.224  22.030  56.0470  0.00  0.00     0.000 O
ATOM     62   O  SGN C   4     141.247  22.519  53.2810  0.00  0.00     0.000 O
ATOM     64  HD  SGN C   4     140.618  22.125  52.8340  0.00  0.00     0.000 HD
BRANCH 57 66
ATOM     64   N  SGN C   4     138.799  22.227  52.3880  0.00  0.00     0.000 N
ATOM     66  HD  SGN C   4     138.918  21.899  51.5950  0.00  0.00     0.000 HD
ATOM     66   S  SGN C   4     137.937  21.355  51.3670  0.00  0.00     0.000 S
ATOM     67   O  SGN C   4     137.965  22.016  50.1140  0.00  0.00     0.000 OA
ATOM     68   O  SGN C   4     138.409  20.016  51.4620  0.00  0.00     0.000 OA
ATOM     69   O  SGN C   4     136.491  21.418  51.9550  0.00  0.00     0.000 OA
ENDBRANCH 57 66
BRANCH 60 70
ATOM     70   C  SGN C   4     139.530  22.680  57.9370  0.00  0.00     0.000 C
ATOM     71   O  SGN C   4     138.442  21.169  61.1990  0.00  0.00     0.000 OA
ATOM     72   O  SGN C   4     140.704  21.524  60.4210  0.00  0.00     0.000 OA
ATOM     73   O  SGN C   4     138.860  21.850  58.9050  0.00  0.00     0.000 O
ATOM     74   S  SGN C   4     139.338  21.996  60.4240  0.00  0.00     0.000 S
ATOM     75   O  SGN C   4     139.216  23.411  60.7160  0.00  0.00     0.000 OA
ENDBRANCH 60 70
BRANCH 56 76
ATOM     76  O4  IDS C   5     137.643  20.024  55.2610  0.00  0.00     0.000 O
BRANCH 76 80
ATOM     77  C1  IDS C   5     137.966  16.881  57.8440  0.00  0.00     0.000 C
ATOM     78  C2  IDS C   5     139.225  17.160  57.0230  0.00  0.00     0.000 C
ATOM     79  C3  IDS C   5     139.164  18.561  56.4480  0.00  0.00     0.000 C
ATOM     80  C4  IDS C   5     138.019  18.651  55.4430  0.00  0.00     0.000 C
ATOM     81  C5  IDS C   5     136.826  17.832  55.9570  0.00  0.00     0.000 C
ATOM     82  O5  IDS C   5     136.888  17.693  57.3790  0.00  0.00     0.000 O
BRANCH 78 83
ATOM     83   O  IDS C   5     140.437  17.053  57.8700  0.00  0.00     0.000 O
ATOM     84   S  IDS C   5     141.620  16.073  57.4410  0.00  0.00     0.000 S
ATOM     85   O  IDS C   5     140.997  14.814  57.1310  0.00  0.00     0.000 OA
ATOM     86   O  IDS C   5     142.234  16.700  56.2950  0.00  0.00     0.000 OA
ATOM     87   O  IDS C   5     142.504  16.006  58.5790  0.00  0.00     0.000 OA
ENDBRANCH 78 83
BRANCH 81 88
ATOM     88   C  IDS C   5     135.475  18.431  55.6130  0.00  0.00     0.000 C
ATOM     89   O  IDS C   5     135.051  18.347  54.4920  0.00  0.00     0.000 OA
ATOM     90   O  IDS C   5     134.831  18.988  56.4730  0.00  0.00     0.000 OA
ENDBRANCH 81 88
ENDBRANCH 76 80
ENDBRANCH 56 76
ENDBRANCH 55 59
ENDBRANCH 39 55
ENDBRANCH 38 42
ENDBRANCH 18 38
ENDBRANCH 17 21
ENDBRANCH 1 17
TORSDOF 18
ENDMDL
MODEL 2
REMARK VINA RESULT:      -8.6      5.318     14.240
ROOT
ATOM      1  C1  IDS C   1     147.283  19.378  59.2920  0.00  0.00     0.000 C
ATOM      2  C2  IDS C   1     146.346  20.590  59.2720  0.00  0.00     0.000 C
ATOM      3  C3  IDS C   1     146.760  21.611  60.3220  0.00  0.00     0.000 C
ATOM      4  C4  IDS C   1     146.746  20.989  61.7110  0.00  0.00     0.000 C
ATOM      5  C5  IDS C   1     147.278  19.560  61.6500  0.00  0.00     0.000 C
ATOM      6  O5  IDS C   1     148.071  19.381  60.4760  0.00  0.00     0.000 O
ATOM      7   O  IDS C   1     145.872  22.737  60.2800  0.00  0.00     0.000 O
ATOM      9  HD  IDS C   1     145.656  22.882  59.4540  0.00  0.00     0.000 HD
ENDROOT
BRANCH 2 9
ATOM      9   O  IDS C   1     146.385  21.263  57.9540  0.00  0.00     0.000 O
ATOM     10   S  IDS C   1     145.033  21.448  57.1290  0.00  0.00     0.000 S
ATOM     11   O  IDS C   1     145.401  22.142  55.9150  0.00  0.00     0.000 OA
ATOM     12   O  IDS C   1     144.540  20.108  56.8850  0.00  0.00     0.000 OA
ATOM     13   O  IDS C   1     144.156  22.226  57.9760  0.00  0.00     0.000 OA
ENDBRANCH 2 9
BRANCH 5 14
ATOM     14   C  IDS C   1     148.127  19.212  62.8610  0.00  0.00     0.000 C
ATOM     15   O  IDS C   1     147.602  19.099  63.9420  0.00  0.00     0.000 OA
ATOM     16   O  IDS C   1     149.329  19.053  62.7320  0.00  0.00     0.000 OA
ENDBRANCH 5 14
BRANCH 1 17
ATOM     17  O4  SGN C   2     147.749  18.801  58.1820  0.00  0.00     0.000 O
BRANCH 17 21
ATOM     18  C1  SGN C   2     150.551  18.308  55.1110  0.00  0.00     0.000 C
ATOM     19  C2  SGN C   2     150.946  19.248  56.2560  0.00  0.00     0.000 C
ATOM     20  C3  SGN C   2     150.041  18.999  57.4680  0.00  0.00     0.000 C
ATOM     21  C4  SGN C   2     148.576  19.100  57.0600  0.00  0.00     0.000 C
ATOM     22  C5  SGN C   2     148.307  18.118  55.9230  0.00  0.00     0.000 C
ATOM     23  O5  SGN C   2     149.176  18.414  54.8060  0.00  0.00     0.000 O
ATOM     24   O  SGN C   2     150.346  19.926  58.4970  0.00  0.00     0.000 O
ATOM     26  HD  SGN C   2     150.150  19.154  58.1570  0.00  0.00     0.000 HD
BRANCH 19 28
ATOM     26   N  SGN C   2     152.395  19.378  56.0490  0.00  0.00     0.000 N
ATOM     28  HD  SGN C   2     152.069  19.414  55.2480  0.00  0.00     0.000 HD
ATOM     28   O  SGN C   2     154.606  20.189  56.8700  0.00  0.00     0.000 OA
ATOM     29   S  SGN C   2     153.200  20.717  56.4270  0.00  0.00     0.000 S
ATOM     30   O  SGN C   2     153.354  21.469  55.2410  0.00  0.00     0.000 OA
ATOM     31   O  SGN C   2     152.560  21.303  57.5530  0.00  0.00     0.000 OA
ENDBRANCH 19 28
BRANCH 22 32
ATOM     32   C  SGN C   2     146.892  18.179  55.4020  0.00  0.00     0.000 C
ATOM     33   S  SGN C   2     145.652  18.785  53.2250  0.00  0.00     0.000 S
ATOM     34   O  SGN C   2     145.806  20.201  53.4510  0.00  0.00     0.000 OA
ATOM     35   O  SGN C   2     145.803  18.399  51.8380  0.00  0.00     0.000 OA
ATOM     36   O  SGN C   2     144.489  18.211  53.8590  0.00  0.00     0.000 OA
ATOM     37   O  SGN C   2     146.903  18.130  53.9700  0.00  0.00     0.000 O
ENDBRANCH 22 32
BRANCH 18 38
ATOM     38  O4  IDS C   3     150.825  17.015  54.9240  0.00  0.00     0.000 O
BRANCH 38 42
ATOM     39  C1  IDS C   3     151.963  13.727  55.0910  0.00  0.00     0.000 C
ATOM     40  C2  IDS C   3     152.948  14.908  55.1040  0.00  0.00     0.000 C
ATOM     41  C3  IDS C   3     152.691  15.854  53.9310  0.00  0.00     0.000 C
ATOM     42  C4  IDS C   3     151.213  16.198  53.8140  0.00  0.00     0.000 C
ATOM     43  C5  IDS C   3     150.380  14.910  53.7960  0.00  0.00     0.000 C
ATOM     44  O5  IDS C   3     150.623  14.180  54.9970  0.00  0.00     0.000 O
ATOM     45   O  IDS C   3     153.141  15.241  52.7220  0.00  0.00     0.000 O
ATOM     47  HD  IDS C   3     152.979  14.492  52.3180  0.00  0.00     0.000 HD
BRANCH 40 47
ATOM     47   O  IDS C   3     152.800  15.695  56.3510  0.00  0.00     0.000 O
ATOM     48   S  IDS C   3     154.070  16.437  56.9780  0.00  0.00     0.000 S
ATOM     49   O  IDS C   3     154.849  15.408  57.6330  0.00  0.00     0.000 OA
ATOM     50   O  IDS C   3     153.527  17.398  57.9120  0.00  0.00     0.000 OA
ATOM     51   O  IDS C   3     154.768  17.049  55.8790  0.00  0.00     0.000 OA
ENDBRANCH 40 47
BRANCH 43 52
ATOM     52   C  IDS C   3     148.897  15.174  53.6530  0.00  0.00     0.000 C
ATOM     53   O  IDS C   3     148.473  15.710  52.6550  0.00  0.00     0.000 OA
ATOM     54   O  IDS C   3     148.145  14.846  54.5350  0.00  0.00     0.000 OA
ENDBRANCH 43 52
BRANCH 39 55
ATOM     55  O4  SGN C   4     152.194  12.579  54.4540  0.00  0.00     0.000 O
BRANCH 55 59
ATOM     56  C1  SGN C   4     155.688  10.645  55.7020  0.00  0.00     0.000 C
ATOM     57  C2  SGN C   4     155.591  10.993  54.2070  0.00  0.00     0.000 C
ATOM     58  C3  SGN C   4     154.489  12.020  53.9600  0.00  0.00     0.000 C
ATOM     59  C4  SGN C   4     153.182  11.569  54.6010  0.00  0.00     0.000 C
ATOM     60  C5  SGN C   4     153.430  11.295  56.0830  0.00  0.00     0.000 C
ATOM     61  O5  SGN C   4     154.416  10.249  56.1900  0.00  0.00     0.000 O
ATOM     62   O  SGN C   4     154.322  12.212  52.5620  0.00  0.00     0.000 O
ATOM     64  HD  SGN C   4     155.152  11.982  52.6510  0.00  0.00     0.000 HD
BRANCH 57 66
ATOM     64   N  SGN C   4     156.662  10.026  53.9190  0.00  0.00     0.000 N
ATOM     66  HD  SGN C   4     157.026   9.688  53.2090  0.00  0.00     0.000 HD
ATOM     66   S  SGN C   4     157.871  10.417  52.9530  0.00  0.00     0.000 S
ATOM     67   O  SGN C   4     158.698   9.273  52.8230  0.00  0.00     0.000 OA
ATOM     68   O  SGN C   4     157.302  11.005  51.7900  0.00  0.00     0.000 OA
ATOM     69   O  SGN C   4     158.638  11.522  53.7490  0.00  0.00     0.000 OA
ENDBRANCH 57 66
BRANCH 60 70
ATOM     70   C  SGN C   4     152.197  10.846  56.8360  0.00  0.00     0.000 C
ATOM     71   O  SGN C   4     149.903   8.015  55.9250  0.00  0.00     0.000 OA
ATOM     72   O  SGN C   4     151.640   8.022  57.6080  0.00  0.00     0.000 OA
ATOM     73   O  SGN C   4     151.465   9.869  56.0710  0.00  0.00     0.000 O
ATOM     74   S  SGN C   4     150.635   8.786  56.9040  0.00  0.00     0.000 S
ATOM     75   O  SGN C   4     149.784   9.565  57.7800  0.00  0.00     0.000 OA
ENDBRANCH 60 70
BRANCH 56 76
ATOM     76  O4  IDS C   5     156.405  11.091  56.7500  0.00  0.00     0.000 O
BRANCH 76 80
ATOM     77  C1  IDS C   5     159.006  12.066  59.7400  0.00  0.00     0.000 C
ATOM     78  C2  IDS C   5     158.488  13.258  58.9360  0.00  0.00     0.000 C
ATOM     79  C3  IDS C   5     157.237  12.862  58.1770  0.00  0.00     0.000 C
ATOM     80  C4  IDS C   5     157.588  11.811  57.1280  0.00  0.00     0.000 C
ATOM     81  C5  IDS C   5     158.639  10.851  57.7020  0.00  0.00     0.000 C
ATOM     82  O5  IDS C   5     158.587  10.844  59.1310  0.00  0.00     0.000 O
BRANCH 78 83
ATOM     83   O  IDS C   5     158.153  14.389  59.8340  0.00  0.00     0.000 O
ATOM     84   S  IDS C   5     158.736  15.842  59.5290  0.00  0.00     0.000 S
ATOM     85   O  IDS C   5     160.144  15.663  59.2970  0.00  0.00     0.000 OA
ATOM     86   O  IDS C   5     158.022  16.299  58.3610  0.00  0.00     0.000 OA
ATOM     87   O  IDS C   5     158.448  16.632  60.7010  0.00  0.00     0.000 OA
ENDBRANCH 78 83
BRANCH 81 88
ATOM     88   C  IDS C   5     158.484   9.416  57.2320  0.00  0.00     0.000 C
ATOM     89   O  IDS C   5     158.020   8.591  57.9710  0.00  0.00     0.000 OA
ATOM     90   O  IDS C   5     158.829   9.112  56.1130  0.00  0.00     0.000 OA
ENDBRANCH 81 88
ENDBRANCH 76 80
ENDBRANCH 56 76
ENDBRANCH 55 59
ENDBRANCH 39 55
ENDBRANCH 38 42
ENDBRANCH 18 38
ENDBRANCH 17 21
ENDBRANCH 1 17
TORSDOF 18
ENDMDL
MODEL 3
REMARK VINA RESULT:      -8.4      4.130      9.959
ROOT
ATOM      1  C1  IDS C   1     157.711  15.911  57.6900  0.00  0.00     0.000 C
ATOM      2  C2  IDS C   1     159.151  16.368  57.4390  0.00  0.00     0.000 C
ATOM      3  C3  IDS C   1     160.144  15.366  58.0090  0.00  0.00     0.000 C
ATOM      4  C4  IDS C   1     159.927  15.187  59.5050  0.00  0.00     0.000 C
ATOM      5  C5  IDS C   1     158.434  15.188  59.8220  0.00  0.00     0.000 C
ATOM      6  O5  IDS C   1     157.684  14.864  58.6510  0.00  0.00     0.000 O
ATOM      7   O  IDS C   1     161.483  15.813  57.7590  0.00  0.00     0.000 O
ATOM      9  HD  IDS C   1     161.502  16.195  56.9810  0.00  0.00     0.000 HD
ENDROOT
BRANCH 2 9
ATOM      9   O  IDS C   1     159.421  16.488  55.9880  0.00  0.00     0.000 O
ATOM     10   S  IDS C   1     159.843  17.902  55.3840  0.00  0.00     0.000 S
ATOM     11   O  IDS C   1     160.045  17.684  53.9690  0.00  0.00     0.000 OA
ATOM     12   O  IDS C   1     158.734  18.792  55.6650  0.00  0.00     0.000 OA
ATOM     13   O  IDS C   1     161.057  18.280  56.0730  0.00  0.00     0.000 OA
ENDBRANCH 2 9
BRANCH 5 14
ATOM     14   C  IDS C   1     158.079  14.192  60.9130  0.00  0.00     0.000 C
ATOM     15   O  IDS C   1     158.125  14.536  62.0680  0.00  0.00     0.000 OA
ATOM     16   O  IDS C   1     157.753  13.056  60.6120  0.00  0.00     0.000 OA
ENDBRANCH 5 14
BRANCH 1 17
ATOM     17  O4  SGN C   2     156.751  15.993  56.7650  0.00  0.00     0.000 O
BRANCH 17 21
ATOM     18  C1  SGN C   2     153.896  14.464  54.1110  0.00  0.00     0.000 C
ATOM     19  C2  SGN C   2     154.418  13.503  55.1870  0.00  0.00     0.000 C
ATOM     20  C3  SGN C   2     155.102  14.298  56.3060  0.00  0.00     0.000 C
ATOM     21  C4  SGN C   2     156.171  15.214  55.7210  0.00  0.00     0.000 C
ATOM     22  C5  SGN C   2     155.532  16.120  54.6730  0.00  0.00     0.000 C
ATOM     23  O5  SGN C   2     154.919  15.315  53.6390  0.00  0.00     0.000 O
ATOM     24   O  SGN C   2     155.662  13.408  57.2570  0.00  0.00     0.000 O
ATOM     26  HD  SGN C   2     155.235  14.109  56.9820  0.00  0.00     0.000 HD
BRANCH 19 28
ATOM     26   N  SGN C   2     153.395  12.449  55.1610  0.00  0.00     0.000 N
ATOM     28  HD  SGN C   2     153.481  12.673  54.3290  0.00  0.00     0.000 HD
ATOM     28   O  SGN C   2     152.480  10.335  56.1180  0.00  0.00     0.000 OA
ATOM     29   S  SGN C   2     153.752  10.899  55.4000  0.00  0.00     0.000 S
ATOM     30   O  SGN C   2     153.864  10.287  54.1320  0.00  0.00     0.000 OA
ATOM     31   O  SGN C   2     154.846  10.844  56.3060  0.00  0.00     0.000 OA
ENDBRANCH 19 28
BRANCH 22 32
ATOM     32   C  SGN C   2     156.519  17.032  53.9870  0.00  0.00     0.000 C
ATOM     33   S  SGN C   2     156.968  17.985  51.6350  0.00  0.00     0.000 S
ATOM     34   O  SGN C   2     157.535  16.745  51.1660  0.00  0.00     0.000 OA
ATOM     35   O  SGN C   2     156.152  18.660  50.6480  0.00  0.00     0.000 OA
ATOM     36   O  SGN C   2     157.915  18.855  52.2900  0.00  0.00     0.000 OA
ATOM     37   O  SGN C   2     155.945  17.542  52.7780  0.00  0.00     0.000 O
ENDBRANCH 22 32
BRANCH 18 38
ATOM     38  O4  IDS C   3     152.804  15.232  54.0990  0.00  0.00     0.000 O
BRANCH 38 42
ATOM     39  C1  IDS C   3     150.441  17.695  54.7870  0.00  0.00     0.000 C
ATOM     40  C2  IDS C   3     151.143  16.932  55.9220  0.00  0.00     0.000 C
ATOM     41  C3  IDS C   3     151.032  15.421  55.7230  0.00  0.00     0.000 C
ATOM     42  C4  IDS C   3     151.402  15.024  54.3000  0.00  0.00     0.000 C
ATOM     43  C5  IDS C   3     150.599  15.865  53.3010  0.00  0.00     0.000 C
ATOM     44  O5  IDS C   3     150.884  17.246  53.5180  0.00  0.00     0.000 O
ATOM     45   O  IDS C   3     149.695  15.003  56.0080  0.00  0.00     0.000 O
ATOM     47  HD  IDS C   3     148.910  15.227  55.7200  0.00  0.00     0.000 HD
BRANCH 40 47
ATOM     47   O  IDS C   3     152.586  17.270  55.9620  0.00  0.00     0.000 O
ATOM     48   S  IDS C   3     153.074  18.582  56.7360  0.00  0.00     0.000 S
ATOM     49   O  IDS C   3     152.762  19.696  55.8650  0.00  0.00     0.000 OA
ATOM     50   O  IDS C   3     154.498  18.407  56.9210  0.00  0.00     0.000 OA
ATOM     51   O  IDS C   3     152.342  18.621  57.9730  0.00  0.00     0.000 OA
ENDBRANCH 40 47
BRANCH 43 52
ATOM     52   C  IDS C   3     150.895  15.505  51.8620  0.00  0.00     0.000 C
ATOM     53   O  IDS C   3     150.032  15.009  51.1740  0.00  0.00     0.000 OA
ATOM     54   O  IDS C   3     151.991  15.716  51.4060  0.00  0.00     0.000 OA
ENDBRANCH 43 52
BRANCH 39 55
ATOM     55  O4  SGN C   4     149.156  18.049  54.8190  0.00  0.00     0.000 O
BRANCH 55 59
ATOM     56  C1  SGN C   4     145.936  19.255  57.2030  0.00  0.00     0.000 C
ATOM     57  C2  SGN C   4     147.315  19.206  57.8840  0.00  0.00     0.000 C
ATOM     58  C3  SGN C   4     148.430  19.145  56.8430  0.00  0.00     0.000 C
ATOM     59  C4  SGN C   4     148.168  18.027  55.8400  0.00  0.00     0.000 C
ATOM     60  C5  SGN C   4     146.784  18.231  55.2290  0.00  0.00     0.000 C
ATOM     61  O5  SGN C   4     145.809  18.178  56.2890  0.00  0.00     0.000 O
ATOM     62   O  SGN C   4     149.678  18.951  57.4950  0.00  0.00     0.000 O
ATOM     64  HD  SGN C   4     149.192  19.369  58.0770  0.00  0.00     0.000 HD
BRANCH 57 66
ATOM     64   N  SGN C   4     146.602  19.278  59.1690  0.00  0.00     0.000 N
ATOM     66  HD  SGN C   4     146.799  19.144  60.0020  0.00  0.00     0.000 HD
ATOM     66   S  SGN C   4     147.177  20.161  60.3670  0.00  0.00     0.000 S
ATOM     67   O  SGN C   4     146.315  19.983  61.4790  0.00  0.00     0.000 OA
ATOM     68   O  SGN C   4     148.557  19.842  60.4950  0.00  0.00     0.000 OA
ATOM     69   O  SGN C   4     147.049  21.627  59.8420  0.00  0.00     0.000 OA
ENDBRANCH 57 66
BRANCH 60 70
ATOM     70   C  SGN C   4     146.409  17.184  54.2020  0.00  0.00     0.000 C
ATOM     71   O  SGN C   4     147.716  13.670  53.9840  0.00  0.00     0.000 OA
ATOM     72   O  SGN C   4     145.589  14.399  54.8740  0.00  0.00     0.000 OA
ATOM     73   O  SGN C   4     147.269  16.034  54.3180  0.00  0.00     0.000 O
ATOM     74   S  SGN C   4     146.635  14.625  53.9030  0.00  0.00     0.000 S
ATOM     75   O  SGN C   4     146.140  14.824  52.5560  0.00  0.00     0.000 OA
ENDBRANCH 60 70
BRANCH 56 76
ATOM     76  O4  IDS C   5     145.092  20.226  56.8090  0.00  0.00     0.000 O
BRANCH 76 80
ATOM     77  C1  IDS C   5     143.663  23.017  59.4210  0.00  0.00     0.000 C
ATOM     78  C2  IDS C   5     142.764  21.793  59.2460  0.00  0.00     0.000 C
ATOM     79  C3  IDS C   5     143.557  20.657  58.6320  0.00  0.00     0.000 C
ATOM     80  C4  IDS C   5     143.977  21.034  57.2140  0.00  0.00     0.000 C
ATOM     81  C5  IDS C   5     144.352  22.523  57.1740  0.00  0.00     0.000 C
ATOM     82  O5  IDS C   5     144.732  22.980  58.4750  0.00  0.00     0.000 O
BRANCH 78 83
ATOM     83   O  IDS C   5     142.234  21.342  60.5540  0.00  0.00     0.000 O
ATOM     84   S  IDS C   5     140.662  21.157  60.7500  0.00  0.00     0.000 S
ATOM     85   O  IDS C   5     140.056  22.360  60.2450  0.00  0.00     0.000 OA
ATOM     86   O  IDS C   5     140.320  19.983  59.9830  0.00  0.00     0.000 OA
ATOM     87   O  IDS C   5     140.465  20.972  62.1670  0.00  0.00     0.000 OA
ENDBRANCH 78 83
BRANCH 81 88
ATOM     88   C  IDS C   5     145.491  22.846  56.2240  0.00  0.00     0.000 C
ATOM     89   O  IDS C   5     146.579  23.108  56.6620  0.00  0.00     0.000 OA
ATOM     90   O  IDS C   5     145.296  22.835  55.0300  0.00  0.00     0.000 OA
ENDBRANCH 81 88
ENDBRANCH 76 80
ENDBRANCH 56 76
ENDBRANCH 55 59
ENDBRANCH 39 55
ENDBRANCH 38 42
ENDBRANCH 18 38
ENDBRANCH 17 21
ENDBRANCH 1 17
TORSDOF 18
ENDMDL
MODEL 4
REMARK VINA RESULT:      -8.4      3.988      9.752
ROOT
ATOM      1  C1  IDS C   1     158.198  15.995  57.1050  0.00  0.00     0.000 C
ATOM      2  C2  IDS C   1     159.562  15.473  56.6430  0.00  0.00     0.000 C
ATOM      3  C3  IDS C   1     160.074  14.393  57.5850  0.00  0.00     0.000 C
ATOM      4  C4  IDS C   1     160.197  14.931  59.0030  0.00  0.00     0.000 C
ATOM      5  C5  IDS C   1     159.022  15.853  59.3170  0.00  0.00     0.000 C
ATOM      6  O5  IDS C   1     157.932  15.576  58.4370  0.00  0.00     0.000 O
ATOM      7   O  IDS C   1     161.349  13.917  57.1290  0.00  0.00     0.000 O
ATOM      9  HD  IDS C   1     161.342  13.906  56.2630  0.00  0.00     0.000 HD
ENDROOT
BRANCH 2 9
ATOM      9   O  IDS C   1     159.468  14.878  55.2910  0.00  0.00     0.000 O
ATOM     10   S  IDS C   1     160.391  15.444  54.1200  0.00  0.00     0.000 S
ATOM     11   O  IDS C   1     160.075  14.655  52.9500  0.00  0.00     0.000 OA
ATOM     12   O  IDS C   1     160.027  16.838  53.9760  0.00  0.00     0.000 OA
ATOM     13   O  IDS C   1     161.754  15.261  54.5690  0.00  0.00     0.000 OA
ENDBRANCH 2 9
BRANCH 5 14
ATOM     14   C  IDS C   1     158.537  15.697  60.7480  0.00  0.00     0.000 C
ATOM     15   O  IDS C   1     157.921  16.595  61.2670  0.00  0.00     0.000 OA
ATOM     16   O  IDS C   1     158.776  14.669  61.3590  0.00  0.00     0.000 OA
ENDBRANCH 5 14
BRANCH 1 17
ATOM     17  O4  SGN C   2     157.186  16.229  56.2640  0.00  0.00     0.000 O
BRANCH 17 21
ATOM     18  C1  SGN C   2     153.866  15.033  54.0120  0.00  0.00     0.000 C
ATOM     19  C2  SGN C   2     154.490  13.975  54.9310  0.00  0.00     0.000 C
ATOM     20  C3  SGN C   2     155.387  14.655  55.9730  0.00  0.00     0.000 C
ATOM     21  C4  SGN C   2     156.405  15.555  55.2810  0.00  0.00     0.000 C
ATOM     22  C5  SGN C   2     155.667  16.562  54.4050  0.00  0.00     0.000 C
ATOM     23  O5  SGN C   2     154.853  15.863  53.4360  0.00  0.00     0.000 O
ATOM     24   O  SGN C   2     156.033  13.675  56.7670  0.00  0.00     0.000 O
ATOM     26  HD  SGN C   2     155.612  14.414  56.6060  0.00  0.00     0.000 HD
BRANCH 19 28
ATOM     26   N  SGN C   2     153.373  13.037  55.1050  0.00  0.00     0.000 N
ATOM     28  HD  SGN C   2     153.202  13.422  54.3480  0.00  0.00     0.000 HD
ATOM     28   O  SGN C   2     152.532  10.852  55.9660  0.00  0.00     0.000 OA
ATOM     29   S  SGN C   2     153.552  11.448  54.9380  0.00  0.00     0.000 S
ATOM     30   O  SGN C   2     153.130  11.107  53.6340  0.00  0.00     0.000 OA
ATOM     31   O  SGN C   2     154.868  11.115  55.3610  0.00  0.00     0.000 OA
ENDBRANCH 19 28
BRANCH 22 32
ATOM     32   C  SGN C   2     156.589  17.468  53.6270  0.00  0.00     0.000 C
ATOM     33   S  SGN C   2     157.341  17.838  51.1900  0.00  0.00     0.000 S
ATOM     34   O  SGN C   2     158.217  16.693  51.2140  0.00  0.00     0.000 OA
ATOM     35   O  SGN C   2     156.642  18.008  49.9330  0.00  0.00     0.000 OA
ATOM     36   O  SGN C   2     157.947  19.054  51.6790  0.00  0.00     0.000 OA
ATOM     37   O  SGN C   2     156.200  17.483  52.2490  0.00  0.00     0.000 O
ENDBRANCH 22 32
BRANCH 18 38
ATOM     38  O4  IDS C   3     152.834  15.854  54.2200  0.00  0.00     0.000 O
BRANCH 38 42
ATOM     39  C1  IDS C   3     149.830  17.371  55.1170  0.00  0.00     0.000 C
ATOM     40  C2  IDS C   3     150.371  17.472  53.6820  0.00  0.00     0.000 C
ATOM     41  C3  IDS C   3     151.816  17.969  53.6690  0.00  0.00     0.000 C
ATOM     42  C4  IDS C   3     152.671  17.204  54.6690  0.00  0.00     0.000 C
ATOM     43  C5  IDS C   3     151.998  17.219  56.0470  0.00  0.00     0.000 C
ATOM     44  O5  IDS C   3     150.707  16.622  55.9420  0.00  0.00     0.000 O
ATOM     45   O  IDS C   3     151.839  19.363  53.9820  0.00  0.00     0.000 O
ATOM     47  HD  IDS C   3     151.544  19.849  54.6350  0.00  0.00     0.000 HD
BRANCH 40 47
ATOM     47   O  IDS C   3     150.351  16.144  53.0240  0.00  0.00     0.000 O
ATOM     48   S  IDS C   3     149.072  15.694  52.1770  0.00  0.00     0.000 S
ATOM     49   O  IDS C   3     148.068  15.310  53.1460  0.00  0.00     0.000 OA
ATOM     50   O  IDS C   3     149.521  14.578  51.3730  0.00  0.00     0.000 OA
ATOM     51   O  IDS C   3     148.682  16.836  51.3930  0.00  0.00     0.000 OA
ENDBRANCH 40 47
BRANCH 43 52
ATOM     52   C  IDS C   3     152.807  16.498  57.1020  0.00  0.00     0.000 C
ATOM     53   O  IDS C   3     153.647  17.099  57.7320  0.00  0.00     0.000 OA
ATOM     54   O  IDS C   3     152.609  15.328  57.3110  0.00  0.00     0.000 OA
ENDBRANCH 43 52
BRANCH 39 55
ATOM     55  O4  SGN C   4     149.216  18.373  55.7470  0.00  0.00     0.000 O
BRANCH 55 59
ATOM     56  C1  SGN C   4     146.113  19.838  58.1410  0.00  0.00     0.000 C
ATOM     57  C2  SGN C   4     147.458  19.577  58.8420  0.00  0.00     0.000 C
ATOM     58  C3  SGN C   4     148.582  19.434  57.8200  0.00  0.00     0.000 C
ATOM     59  C4  SGN C   4     148.208  18.418  56.7470  0.00  0.00     0.000 C
ATOM     60  C5  SGN C   4     146.875  18.830  56.1240  0.00  0.00     0.000 C
ATOM     61  O5  SGN C   4     145.875  18.840  57.1620  0.00  0.00     0.000 O
ATOM     62   O  SGN C   4     149.780  19.047  58.4810  0.00  0.00     0.000 O
ATOM     64  HD  SGN C   4     149.335  19.489  59.0790  0.00  0.00     0.000 HD
BRANCH 57 66
ATOM     64   N  SGN C   4     147.669  19.286  60.2690  0.00  0.00     0.000 N
ATOM     66  HD  SGN C   4     148.111  19.645  60.9220  0.00  0.00     0.000 HD
ATOM     66   S  SGN C   4     147.378  20.399  61.3750  0.00  0.00     0.000 S
ATOM     67   O  SGN C   4     147.730  19.849  62.6340  0.00  0.00     0.000 OA
ATOM     68   O  SGN C   4     148.006  21.597  60.9360  0.00  0.00     0.000 OA
ATOM     69   O  SGN C   4     145.829  20.593  61.3090  0.00  0.00     0.000 OA
ENDBRANCH 57 66
BRANCH 60 70
ATOM     70   C  SGN C   4     146.398  17.899  55.0310  0.00  0.00     0.000 C
ATOM     71   O  SGN C   4     143.778  18.619  52.4390  0.00  0.00     0.000 OA
ATOM     72   O  SGN C   4     146.179  18.661  52.1580  0.00  0.00     0.000 OA
ATOM     73   O  SGN C   4     145.243  18.449  54.3680  0.00  0.00     0.000 O
ATOM     74   S  SGN C   4     145.050  18.058  52.8300  0.00  0.00     0.000 S
ATOM     75   O  SGN C   4     145.073  16.609  52.8090  0.00  0.00     0.000 OA
ENDBRANCH 60 70
BRANCH 56 76
ATOM     76  O4  IDS C   5     145.408  20.929  57.7900  0.00  0.00     0.000 O
BRANCH 76 80
ATOM     77  C1  IDS C   5     142.765  23.532  56.0870  0.00  0.00     0.000 C
ATOM     78  C2  IDS C   5     143.372  22.519  55.1170  0.00  0.00     0.000 C
ATOM     79  C3  IDS C   5     143.968  21.359  55.8910  0.00  0.00     0.000 C
ATOM     80  C4  IDS C   5     145.148  21.853  56.7230  0.00  0.00     0.000 C
ATOM     81  C5  IDS C   5     144.826  23.246  57.2850  0.00  0.00     0.000 C
ATOM     82  O5  IDS C   5     143.411  23.444  57.3570  0.00  0.00     0.000 O
BRANCH 78 83
ATOM     83   O  IDS C   5     142.337  21.987  54.1990  0.00  0.00     0.000 O
ATOM     84   S  IDS C   5     141.141  22.929  53.7220  0.00  0.00     0.000 S
ATOM     85   O  IDS C   5     140.622  23.543  54.9140  0.00  0.00     0.000 OA
ATOM     86   O  IDS C   5     141.744  23.875  52.8120  0.00  0.00     0.000 OA
ATOM     87   O  IDS C   5     140.194  22.057  53.0710  0.00  0.00     0.000 OA
ENDBRANCH 78 83
BRANCH 81 88
ATOM     88   C  IDS C   5     145.395  23.497  58.6700  0.00  0.00     0.000 C
ATOM     89   O  IDS C   5     144.709  23.317  59.6400  0.00  0.00     0.000 OA
ATOM     90   O  IDS C   5     146.537  23.876  58.7880  0.00  0.00     0.000 OA
ENDBRANCH 81 88
ENDBRANCH 76 80
ENDBRANCH 56 76
ENDBRANCH 55 59
ENDBRANCH 39 55
ENDBRANCH 38 42
ENDBRANCH 18 38
ENDBRANCH 17 21
ENDBRANCH 1 17
TORSDOF 18
ENDMDL
MODEL 5
REMARK VINA RESULT:      -8.3     17.008     23.155
ROOT
ATOM      1  C1  IDS C   1     137.320  31.017  45.2680  0.00  0.00     0.000 C
ATOM      2  C2  IDS C   1     136.079  30.393  45.9130  0.00  0.00     0.000 C
ATOM      3  C3  IDS C   1     136.410  29.826  47.2860  0.00  0.00     0.000 C
ATOM      4  C4  IDS C   1     137.505  28.774  47.1820  0.00  0.00     0.000 C
ATOM      5  C5  IDS C   1     138.552  29.206  46.1600  0.00  0.00     0.000 C
ATOM      6  O5  IDS C   1     138.493  30.619  45.9650  0.00  0.00     0.000 O
ATOM      7   O  IDS C   1     135.233  29.252  47.8700  0.00  0.00     0.000 O
ATOM      9  HD  IDS C   1     134.552  29.739  47.6470  0.00  0.00     0.000 HD
ENDROOT
BRANCH 2 9
ATOM      9   O  IDS C   1     135.013  31.405  46.0930  0.00  0.00     0.000 O
ATOM     10   S  IDS C   1     133.588  31.171  45.4150  0.00  0.00     0.000 S
ATOM     11   O  IDS C   1     132.782  32.312  45.7860  0.00  0.00     0.000 OA
ATOM     12   O  IDS C   1     133.842  31.098  43.9910  0.00  0.00     0.000 OA
ATOM     13   O  IDS C   1     133.089  29.929  45.9640  0.00  0.00     0.000 OA
ENDBRANCH 2 9
BRANCH 5 14
ATOM     14   C  IDS C   1     139.961  28.837  46.5910  0.00  0.00     0.000 C
ATOM     15   O  IDS C   1     140.151  28.425  47.7090  0.00  0.00     0.000 OA
ATOM     16   O  IDS C   1     140.886  28.962  45.8060  0.00  0.00     0.000 OA
ENDBRANCH 5 14
BRANCH 1 17
ATOM     17  O4  SGN C   2     137.293  32.184  44.6180  0.00  0.00     0.000 O
BRANCH 17 21
ATOM     18  C1  SGN C   2     138.159  36.258  44.1950  0.00  0.00     0.000 C
ATOM     19  C2  SGN C   2     138.819  35.535  45.3750  0.00  0.00     0.000 C
ATOM     20  C3  SGN C   2     138.758  34.018  45.1550  0.00  0.00     0.000 C
ATOM     21  C4  SGN C   2     137.322  33.583  44.8860  0.00  0.00     0.000 C
ATOM     22  C5  SGN C   2     136.780  34.365  43.6930  0.00  0.00     0.000 C
ATOM     23  O5  SGN C   2     136.848  35.784  43.9670  0.00  0.00     0.000 O
ATOM     24   O  SGN C   2     139.289  33.345  46.2840  0.00  0.00     0.000 O
ATOM     26  HD  SGN C   2     139.158  33.501  45.4420  0.00  0.00     0.000 HD
BRANCH 19 28
ATOM     26   N  SGN C   2     139.761  36.522  45.9190  0.00  0.00     0.000 N
ATOM     28  HD  SGN C   2     138.989  36.903  46.0090  0.00  0.00     0.000 HD
ATOM     28   O  SGN C   2     141.888  37.005  47.1290  0.00  0.00     0.000 OA
ATOM     29   S  SGN C   2     140.495  36.320  47.3350  0.00  0.00     0.000 S
ATOM     30   O  SGN C   2     139.769  37.054  48.2990  0.00  0.00     0.000 OA
ATOM     31   O  SGN C   2     140.699  34.925  47.5210  0.00  0.00     0.000 OA
ENDBRANCH 19 28
BRANCH 22 32
ATOM     32   C  SGN C   2     135.338  34.051  43.3770  0.00  0.00     0.000 C
ATOM     33   S  SGN C   2     133.106  35.300  43.0660  0.00  0.00     0.000 S
ATOM     34   O  SGN C   2     132.928  35.477  44.4850  0.00  0.00     0.000 OA
ATOM     35   O  SGN C   2     132.691  36.444  42.2810  0.00  0.00     0.000 OA
ATOM     36   O  SGN C   2     132.602  34.044  42.5620  0.00  0.00     0.000 OA
ATOM     37   O  SGN C   2     134.689  35.225  42.8740  0.00  0.00     0.000 O
ENDBRANCH 22 32
BRANCH 18 38
ATOM     38  O4  IDS C   3     138.627  36.517  42.9720  0.00  0.00     0.000 O
BRANCH 38 42
ATOM     39  C1  IDS C   3     140.167  37.941  40.1920  0.00  0.00     0.000 C
ATOM     40  C2  IDS C   3     138.784  37.279  40.0790  0.00  0.00     0.000 C
ATOM     41  C3  IDS C   3     138.800  35.864  40.6570  0.00  0.00     0.000 C
ATOM     42  C4  IDS C   3     139.461  35.836  42.0280  0.00  0.00     0.000 C
ATOM     43  C5  IDS C   3     140.834  36.517  41.9560  0.00  0.00     0.000 C
ATOM     44  O5  IDS C   3     140.664  37.864  41.5170  0.00  0.00     0.000 O
ATOM     45   O  IDS C   3     139.502  34.997  39.7650  0.00  0.00     0.000 O
ATOM     47  HD  IDS C   3     140.290  34.996  39.4060  0.00  0.00     0.000 HD
BRANCH 40 47
ATOM     47   O  IDS C   3     137.772  38.056  40.8330  0.00  0.00     0.000 O
ATOM     48   S  IDS C   3     136.455  38.577  40.0910  0.00  0.00     0.000 S
ATOM     49   O  IDS C   3     136.864  39.727  39.3130  0.00  0.00     0.000 OA
ATOM     50   O  IDS C   3     135.534  38.926  41.1510  0.00  0.00     0.000 OA
ATOM     51   O  IDS C   3     135.990  37.488  39.2740  0.00  0.00     0.000 OA
ENDBRANCH 40 47
BRANCH 43 52
ATOM     52   C  IDS C   3     141.564  36.503  43.2810  0.00  0.00     0.000 C
ATOM     53   O  IDS C   3     141.940  35.453  43.7500  0.00  0.00     0.000 OA
ATOM     54   O  IDS C   3     141.769  37.538  43.8610  0.00  0.00     0.000 OA
ENDBRANCH 43 52
BRANCH 39 55
ATOM     55  O4  SGN C   4     141.109  37.849  39.2530  0.00  0.00     0.000 O
BRANCH 55 59
ATOM     56  C1  SGN C   4     145.057  38.172  40.5990  0.00  0.00     0.000 C
ATOM     57  C2  SGN C   4     144.327  39.490  40.2890  0.00  0.00     0.000 C
ATOM     58  C3  SGN C   4     142.820  39.265  40.1990  0.00  0.00     0.000 C
ATOM     59  C4  SGN C   4     142.504  38.115  39.2480  0.00  0.00     0.000 C
ATOM     60  C5  SGN C   4     143.273  36.877  39.7020  0.00  0.00     0.000 C
ATOM     61  O5  SGN C   4     144.682  37.177  39.6590  0.00  0.00     0.000 O
ATOM     62   O  SGN C   4     142.185  40.461  39.7670  0.00  0.00     0.000 O
ATOM     64  HD  SGN C   4     142.899  40.730  40.1770  0.00  0.00     0.000 HD
BRANCH 57 66
ATOM     64   N  SGN C   4     145.447  40.038  41.0710  0.00  0.00     0.000 N
ATOM     66  HD  SGN C   4     146.165  40.492  40.9010  0.00  0.00     0.000 HD
ATOM     66   S  SGN C   4     145.828  41.584  40.9670  0.00  0.00     0.000 S
ATOM     67   O  SGN C   4     146.972  41.795  41.7770  0.00  0.00     0.000 OA
ATOM     68   O  SGN C   4     145.882  41.908  39.5830  0.00  0.00     0.000 OA
ATOM     69   O  SGN C   4     144.601  42.313  41.6030  0.00  0.00     0.000 OA
ENDBRANCH 57 66
BRANCH 60 70
ATOM     70   C  SGN C   4     143.034  35.658  38.8380  0.00  0.00     0.000 C
ATOM     71   O  SGN C   4     143.674  32.075  39.7640  0.00  0.00     0.000 OA
ATOM     72   O  SGN C   4     141.551  33.233  39.7340  0.00  0.00     0.000 OA
ATOM     73   O  SGN C   4     143.592  34.483  39.4560  0.00  0.00     0.000 O
ATOM     74   S  SGN C   4     142.863  33.095  39.1410  0.00  0.00     0.000 S
ATOM     75   O  SGN C   4     142.836  33.010  37.6950  0.00  0.00     0.000 OA
ENDBRANCH 60 70
BRANCH 56 76
ATOM     76  O4  IDS C   5     145.476  37.542  41.7120  0.00  0.00     0.000 O
BRANCH 76 80
ATOM     77  C1  IDS C   5     146.580  35.507  45.0730  0.00  0.00     0.000 C
ATOM     78  C2  IDS C   5     145.813  34.671  44.0480  0.00  0.00     0.000 C
ATOM     79  C3  IDS C   5     145.840  35.361  42.6990  0.00  0.00     0.000 C
ATOM     80  C4  IDS C   5     145.069  36.675  42.7810  0.00  0.00     0.000 C
ATOM     81  C5  IDS C   5     145.337  37.337  44.1400  0.00  0.00     0.000 C
ATOM     82  O5  IDS C   5     146.578  36.881  44.6860  0.00  0.00     0.000 O
BRANCH 78 83
ATOM     83   O  IDS C   5     146.426  33.330  43.9020  0.00  0.00     0.000 O
ATOM     84   S  IDS C   5     145.744  32.066  44.5960  0.00  0.00     0.000 S
ATOM     85   O  IDS C   5     145.482  32.456  45.9560  0.00  0.00     0.000 OA
ATOM     86   O  IDS C   5     144.543  31.818  43.8340  0.00  0.00     0.000 OA
ATOM     87   O  IDS C   5     146.704  30.995  44.4860  0.00  0.00     0.000 OA
ENDBRANCH 78 83
BRANCH 81 88
ATOM     88   C  IDS C   5     145.390  38.853  44.0870  0.00  0.00     0.000 C
ATOM     89   O  IDS C   5     146.452  39.416  44.1090  0.00  0.00     0.000 OA
ATOM     90   O  IDS C   5     144.362  39.486  44.0210  0.00  0.00     0.000 OA
ENDBRANCH 81 88
ENDBRANCH 76 80
ENDBRANCH 56 76
ENDBRANCH 55 59
ENDBRANCH 39 55
ENDBRANCH 38 42
ENDBRANCH 18 38
ENDBRANCH 17 21
ENDBRANCH 1 17
TORSDOF 18
ENDMDL
MODEL 6
REMARK VINA RESULT:      -8.3      4.696     15.106
ROOT
ATOM      1  C1  IDS C   1     146.262  21.008  56.2250  0.00  0.00     0.000 C
ATOM      2  C2  IDS C   1     145.594  21.249  57.5820  0.00  0.00     0.000 C
ATOM      3  C3  IDS C   1     144.078  21.240  57.4470  0.00  0.00     0.000 C
ATOM      4  C4  IDS C   1     143.620  22.309  56.4650  0.00  0.00     0.000 C
ATOM      5  C5  IDS C   1     144.583  22.383  55.2850  0.00  0.00     0.000 C
ATOM      6  O5  IDS C   1     145.317  21.164  55.1730  0.00  0.00     0.000 O
ATOM      7   O  IDS C   1     143.476  21.462  58.7300  0.00  0.00     0.000 O
ATOM      9  HD  IDS C   1     143.958  21.064  59.3300  0.00  0.00     0.000 HD
ENDROOT
BRANCH 2 9
ATOM      9   O  IDS C   1     145.963  20.188  58.5460  0.00  0.00     0.000 O
ATOM     10   S  IDS C   1     146.494  20.595  59.9940  0.00  0.00     0.000 S
ATOM     11   O  IDS C   1     146.749  19.351  60.6860  0.00  0.00     0.000 OA
ATOM     12   O  IDS C   1     147.696  21.370  59.7640  0.00  0.00     0.000 OA
ATOM     13   O  IDS C   1     145.432  21.367  60.6010  0.00  0.00     0.000 OA
ENDBRANCH 2 9
BRANCH 5 14
ATOM     14   C  IDS C   1     143.861  22.632  53.9710  0.00  0.00     0.000 C
ATOM     15   O  IDS C   1     143.027  23.502  53.9080  0.00  0.00     0.000 OA
ATOM     16   O  IDS C   1     144.129  21.952  52.9950  0.00  0.00     0.000 OA
ENDBRANCH 5 14
BRANCH 1 17
ATOM     17  O4  SGN C   2     147.312  20.198  56.0640  0.00  0.00     0.000 O
BRANCH 17 21
ATOM     18  C1  SGN C   2     149.160  16.614  54.9400  0.00  0.00     0.000 C
ATOM     19  C2  SGN C   2     147.697  16.794  54.5180  0.00  0.00     0.000 C
ATOM     20  C3  SGN C   2     147.305  18.273  54.6170  0.00  0.00     0.000 C
ATOM     21  C4  SGN C   2     147.619  18.808  56.0100  0.00  0.00     0.000 C
ATOM     22  C5  SGN C   2     149.097  18.577  56.3100  0.00  0.00     0.000 C
ATOM     23  O5  SGN C   2     149.400  17.166  56.2180  0.00  0.00     0.000 O
ATOM     24   O  SGN C   2     145.930  18.430  54.3110  0.00  0.00     0.000 O
ATOM     26  HD  SGN C   2     146.773  18.625  54.2960  0.00  0.00     0.000 HD
BRANCH 19 28
ATOM     26   N  SGN C   2     147.577  15.796  53.4460  0.00  0.00     0.000 N
ATOM     28  HD  SGN C   2     148.136  15.436  54.0020  0.00  0.00     0.000 HD
ATOM     28   O  SGN C   2     146.176  14.685  51.7070  0.00  0.00     0.000 OA
ATOM     29   S  SGN C   2     146.261  14.892  53.2570  0.00  0.00     0.000 S
ATOM     30   O  SGN C   2     146.511  13.642  53.8660  0.00  0.00     0.000 OA
ATOM     31   O  SGN C   2     145.143  15.665  53.6730  0.00  0.00     0.000 OA
ENDBRANCH 19 28
BRANCH 22 32
ATOM     32   C  SGN C   2     149.502  19.019  57.6950  0.00  0.00     0.000 C
ATOM     33   S  SGN C   2     151.451  20.257  58.8410  0.00  0.00     0.000 S
ATOM     34   O  SGN C   2     152.311  19.103  58.7790  0.00  0.00     0.000 OA
ATOM     35   O  SGN C   2     152.137  21.508  58.5920  0.00  0.00     0.000 OA
ATOM     36   O  SGN C   2     150.596  20.293  60.0050  0.00  0.00     0.000 OA
ATOM     37   O  SGN C   2     150.462  20.079  57.6000  0.00  0.00     0.000 O
ENDBRANCH 22 32
BRANCH 18 38
ATOM     38  O4  IDS C   3     150.287  16.855  54.2660  0.00  0.00     0.000 O
BRANCH 38 42
ATOM     39  C1  IDS C   3     153.594  16.495  55.2980  0.00  0.00     0.000 C
ATOM     40  C2  IDS C   3     153.197  17.568  54.2720  0.00  0.00     0.000 C
ATOM     41  C3  IDS C   3     152.404  16.961  53.1150  0.00  0.00     0.000 C
ATOM     42  C4  IDS C   3     151.289  16.058  53.6260  0.00  0.00     0.000 C
ATOM     43  C5  IDS C   3     151.861  15.039  54.6190  0.00  0.00     0.000 C
ATOM     44  O5  IDS C   3     152.468  15.735  55.7050  0.00  0.00     0.000 O
ATOM     45   O  IDS C   3     153.287  16.212  52.2780  0.00  0.00     0.000 O
ATOM     47  HD  IDS C   3     153.845  15.562  52.4040  0.00  0.00     0.000 HD
BRANCH 40 47
ATOM     47   O  IDS C   3     152.341  18.601  54.9040  0.00  0.00     0.000 O
ATOM     48   S  IDS C   3     152.751  20.144  54.8040  0.00  0.00     0.000 S
ATOM     49   O  IDS C   3     153.817  20.335  55.7640  0.00  0.00     0.000 OA
ATOM     50   O  IDS C   3     151.555  20.878  55.1530  0.00  0.00     0.000 OA
ATOM     51   O  IDS C   3     153.176  20.364  53.4480  0.00  0.00     0.000 OA
ENDBRANCH 40 47
BRANCH 43 52
ATOM     52   C  IDS C   3     150.812  14.086  55.1480  0.00  0.00     0.000 C
ATOM     53   O  IDS C   3     150.015  13.583  54.3900  0.00  0.00     0.000 OA
ATOM     54   O  IDS C   3     150.777  13.831  56.3250  0.00  0.00     0.000 OA
ENDBRANCH 43 52
BRANCH 39 55
ATOM     55  O4  SGN C   4     154.726  15.794  55.2330  0.00  0.00     0.000 O
BRANCH 55 59
ATOM     56  C1  SGN C   4     158.894  15.932  54.8940  0.00  0.00     0.000 C
ATOM     57  C2  SGN C   4     158.179  17.273  55.1330  0.00  0.00     0.000 C
ATOM     58  C3  SGN C   4     156.752  17.045  55.6250  0.00  0.00     0.000 C
ATOM     59  C4  SGN C   4     156.015  16.078  54.7070  0.00  0.00     0.000 C
ATOM     60  C5  SGN C   4     156.827  14.789  54.5970  0.00  0.00     0.000 C
ATOM     61  O5  SGN C   4     158.115  15.113  54.0360  0.00  0.00     0.000 O
ATOM     62   O  SGN C   4     156.069  18.290  55.6950  0.00  0.00     0.000 O
ATOM     64  HD  SGN C   4     156.902  18.493  55.8190  0.00  0.00     0.000 HD
BRANCH 57 66
ATOM     64   N  SGN C   4     158.948  18.393  54.5670  0.00  0.00     0.000 N
ATOM     66  HD  SGN C   4     159.062  19.230  54.7540  0.00  0.00     0.000 HD
ATOM     66   S  SGN C   4     159.946  19.237  55.4820  0.00  0.00     0.000 S
ATOM     67   O  SGN C   4     160.486  20.273  54.6790  0.00  0.00     0.000 OA
ATOM     68   O  SGN C   4     159.239  19.570  56.6710  0.00  0.00     0.000 OA
ATOM     69   O  SGN C   4     161.074  18.216  55.8400  0.00  0.00     0.000 OA
ENDBRANCH 57 66
BRANCH 60 70
ATOM     70   C  SGN C   4     156.190  13.739  53.7130  0.00  0.00     0.000 C
ATOM     71   O  SGN C   4     156.398  10.012  54.1310  0.00  0.00     0.000 OA
ATOM     72   O  SGN C   4     154.558  11.462  54.7290  0.00  0.00     0.000 OA
ATOM     73   O  SGN C   4     156.664  12.425  54.0680  0.00  0.00     0.000 O
ATOM     74   S  SGN C   4     155.654  11.211  53.8210  0.00  0.00     0.000 S
ATOM     75   O  SGN C   4     155.282  11.316  52.4240  0.00  0.00     0.000 OA
ENDBRANCH 60 70
BRANCH 56 76
ATOM     76  O4  IDS C   5     159.687  15.122  55.6200  0.00  0.00     0.000 O
BRANCH 76 80
ATOM     77  C1  IDS C   5     160.149  12.347  58.5770  0.00  0.00     0.000 C
ATOM     78  C2  IDS C   5     159.524  13.664  59.0350  0.00  0.00     0.000 C
ATOM     79  C3  IDS C   5     158.999  14.429  57.8360  0.00  0.00     0.000 C
ATOM     80  C4  IDS C   5     160.166  14.844  56.9440  0.00  0.00     0.000 C
ATOM     81  C5  IDS C   5     161.207  13.716  56.9120  0.00  0.00     0.000 C
ATOM     82  O5  IDS C   5     160.598  12.460  57.2260  0.00  0.00     0.000 O
BRANCH 78 83
ATOM     83   O  IDS C   5     158.395  13.414  59.9620  0.00  0.00     0.000 O
ATOM     84   S  IDS C   5     158.432  14.018  61.4380  0.00  0.00     0.000 S
ATOM     85   O  IDS C   5     159.725  13.683  61.9700  0.00  0.00     0.000 OA
ATOM     86   O  IDS C   5     158.238  15.440  61.2690  0.00  0.00     0.000 OA
ATOM     87   O  IDS C   5     157.344  13.389  62.1450  0.00  0.00     0.000 OA
ENDBRANCH 78 83
BRANCH 81 88
ATOM     88   C  IDS C   5     161.908  13.562  55.5750  0.00  0.00     0.000 C
ATOM     89   O  IDS C   5     162.803  14.308  55.2790  0.00  0.00     0.000 OA
ATOM     90   O  IDS C   5     161.561  12.688  54.8140  0.00  0.00     0.000 OA
ENDBRANCH 81 88
ENDBRANCH 76 80
ENDBRANCH 56 76
ENDBRANCH 55 59
ENDBRANCH 39 55
ENDBRANCH 38 42
ENDBRANCH 18 38
ENDBRANCH 17 21
ENDBRANCH 1 17
TORSDOF 18
ENDMDL
MODEL 7
REMARK VINA RESULT:      -8.3      5.396     14.017
ROOT
ATOM      1  C1  IDS C   1     147.373  19.387  59.4290  0.00  0.00     0.000 C
ATOM      2  C2  IDS C   1     146.393  20.563  59.4100  0.00  0.00     0.000 C
ATOM      3  C3  IDS C   1     146.729  21.565  60.5050  0.00  0.00     0.000 C
ATOM      4  C4  IDS C   1     146.687  20.899  61.8740  0.00  0.00     0.000 C
ATOM      5  C5  IDS C   1     147.274  19.494  61.7900  0.00  0.00     0.000 C
ATOM      6  O5  IDS C   1     148.116  19.381  60.6420  0.00  0.00     0.000 O
ATOM      7   O  IDS C   1     145.801  22.659  60.4640  0.00  0.00     0.000 O
ATOM      9  HD  IDS C   1     145.610  22.822  59.6350  0.00  0.00     0.000 HD
ENDROOT
BRANCH 2 9
ATOM      9   O  IDS C   1     146.455  21.280  58.1160  0.00  0.00     0.000 O
ATOM     10   S  IDS C   1     145.132  21.424  57.2360  0.00  0.00     0.000 S
ATOM     11   O  IDS C   1     145.518  22.173  56.0610  0.00  0.00     0.000 OA
ATOM     12   O  IDS C   1     144.718  20.070  56.9310  0.00  0.00     0.000 OA
ATOM     13   O  IDS C   1     144.181  22.130  58.0650  0.00  0.00     0.000 OA
ENDBRANCH 2 9
BRANCH 5 14
ATOM     14   C  IDS C   1     148.090  19.139  63.0210  0.00  0.00     0.000 C
ATOM     15   O  IDS C   1     147.533  19.000  64.0830  0.00  0.00     0.000 OA
ATOM     16   O  IDS C   1     149.298  19.000  62.9280  0.00  0.00     0.000 OA
ENDBRANCH 5 14
BRANCH 1 17
ATOM     17  O4  SGN C   2     147.902  18.862  58.3200  0.00  0.00     0.000 O
BRANCH 17 21
ATOM     18  C1  SGN C   2     150.850  18.586  55.3620  0.00  0.00     0.000 C
ATOM     19  C2  SGN C   2     151.142  19.529  56.5360  0.00  0.00     0.000 C
ATOM     20  C3  SGN C   2     150.204  19.206  57.7060  0.00  0.00     0.000 C
ATOM     21  C4  SGN C   2     148.754  19.228  57.2380  0.00  0.00     0.000 C
ATOM     22  C5  SGN C   2     148.590  18.252  56.0770  0.00  0.00     0.000 C
ATOM     23  O5  SGN C   2     149.485  18.617  55.0020  0.00  0.00     0.000 O
ATOM     24   O  SGN C   2     150.412  20.132  58.7590  0.00  0.00     0.000 O
ATOM     26  HD  SGN C   2     150.277  19.356  58.4000  0.00  0.00     0.000 HD
BRANCH 19 28
ATOM     26   N  SGN C   2     152.593  19.720  56.4070  0.00  0.00     0.000 N
ATOM     28  HD  SGN C   2     152.313  19.708  55.5870  0.00  0.00     0.000 HD
ATOM     28   O  SGN C   2     154.712  20.672  57.3150  0.00  0.00     0.000 OA
ATOM     29   S  SGN C   2     153.312  21.112  56.7700  0.00  0.00     0.000 S
ATOM     30   O  SGN C   2     153.499  21.821  55.5630  0.00  0.00     0.000 OA
ATOM     31   O  SGN C   2     152.579  21.712  57.8310  0.00  0.00     0.000 OA
ENDBRANCH 19 28
BRANCH 22 32
ATOM     32   C  SGN C   2     147.196  18.239  55.4990  0.00  0.00     0.000 C
ATOM     33   S  SGN C   2     146.028  18.696  53.2480  0.00  0.00     0.000 S
ATOM     34   O  SGN C   2     146.125  20.125  53.4090  0.00  0.00     0.000 OA
ATOM     35   O  SGN C   2     146.247  18.249  51.8880  0.00  0.00     0.000 OA
ATOM     36   O  SGN C   2     144.859  18.112  53.8630  0.00  0.00     0.000 OA
ATOM     37   O  SGN C   2     147.268  18.121  54.0730  0.00  0.00     0.000 O
ENDBRANCH 22 32
BRANCH 18 38
ATOM     38  O4  IDS C   3     151.208  17.314  55.1680  0.00  0.00     0.000 O
BRANCH 38 42
ATOM     39  C1  IDS C   3     152.652  14.550  53.6180  0.00  0.00     0.000 C
ATOM     40  C2  IDS C   3     151.367  14.410  54.4510  0.00  0.00     0.000 C
ATOM     41  C3  IDS C   3     151.540  15.022  55.8400  0.00  0.00     0.000 C
ATOM     42  C4  IDS C   3     152.152  16.414  55.7570  0.00  0.00     0.000 C
ATOM     43  C5  IDS C   3     153.430  16.369  54.9110  0.00  0.00     0.000 C
ATOM     44  O5  IDS C   3     153.109  15.892  53.6060  0.00  0.00     0.000 O
ATOM     45   O  IDS C   3     152.375  14.174  56.6310  0.00  0.00     0.000 O
ATOM     47  HD  IDS C   3     153.169  13.840  56.5400  0.00  0.00     0.000 HD
BRANCH 40 47
ATOM     47   O  IDS C   3     150.241  15.113  53.7920  0.00  0.00     0.000 O
ATOM     48   S  IDS C   3     149.608  14.518  52.4490  0.00  0.00     0.000 S
ATOM     49   O  IDS C   3     150.535  14.856  51.3900  0.00  0.00     0.000 OA
ATOM     50   O  IDS C   3     148.333  15.184  52.3010  0.00  0.00     0.000 OA
ATOM     51   O  IDS C   3     149.486  13.099  52.6510  0.00  0.00     0.000 OA
ENDBRANCH 40 47
BRANCH 43 52
ATOM     52   C  IDS C   3     154.112  17.715  54.8070  0.00  0.00     0.000 C
ATOM     53   O  IDS C   3     153.866  18.445  53.8740  0.00  0.00     0.000 OA
ATOM     54   O  IDS C   3     154.896  18.055  55.6560  0.00  0.00     0.000 OA
ENDBRANCH 43 52
BRANCH 39 55
ATOM     55  O4  SGN C   4     153.629  13.644  53.6100  0.00  0.00     0.000 O
BRANCH 55 59
ATOM     56  C1  SGN C   4     156.756  14.247  50.8970  0.00  0.00     0.000 C
ATOM     57  C2  SGN C   4     155.465  13.631  50.3320  0.00  0.00     0.000 C
ATOM     58  C3  SGN C   4     154.301  13.829  51.3000  0.00  0.00     0.000 C
ATOM     59  C4  SGN C   4     154.681  13.357  52.6990  0.00  0.00     0.000 C
ATOM     60  C5  SGN C   4     155.955  14.079  53.1320  0.00  0.00     0.000 C
ATOM     61  O5  SGN C   4     157.003  13.744  52.2000  0.00  0.00     0.000 O
ATOM     62   O  SGN C   4     153.162  13.124  50.8250  0.00  0.00     0.000 O
ATOM     64  HD  SGN C   4     153.609  13.321  50.1100  0.00  0.00     0.000 HD
BRANCH 57 66
ATOM     64   N  SGN C   4     156.171  13.929  49.0750  0.00  0.00     0.000 N
ATOM     66  HD  SGN C   4     156.495  13.470  48.4160  0.00  0.00     0.000 HD
ATOM     66   S  SGN C   4     155.620  13.373  47.6840  0.00  0.00     0.000 S
ATOM     67   O  SGN C   4     156.536  13.769  46.6760  0.00  0.00     0.000 OA
ATOM     68   O  SGN C   4     155.339  11.991  47.8690  0.00  0.00     0.000 OA
ATOM     69   O  SGN C   4     154.271  14.136  47.4870  0.00  0.00     0.000 OA
ENDBRANCH 57 66
BRANCH 60 70
ATOM     70   C  SGN C   4     156.431  13.700  54.5170  0.00  0.00     0.000 C
ATOM     71   O  SGN C   4     156.888  16.000  57.4520  0.00  0.00     0.000 OA
ATOM     72   O  SGN C   4     155.047  14.487  57.0370  0.00  0.00     0.000 OA
ATOM     73   O  SGN C   4     156.677  14.880  55.3070  0.00  0.00     0.000 O
ATOM     74   S  SGN C   4     156.462  14.741  56.8850  0.00  0.00     0.000 S
ATOM     75   O  SGN C   4     157.295  13.620  57.2750  0.00  0.00     0.000 OA
ENDBRANCH 60 70
BRANCH 56 76
ATOM     76  O4  IDS C   5     157.380  15.435  50.7930  0.00  0.00     0.000 O
BRANCH 76 80
ATOM     77  C1  IDS C   5     159.208  19.083  50.6990  0.00  0.00     0.000 C
ATOM     78  C2  IDS C   5     158.866  18.581  52.1020  0.00  0.00     0.000 C
ATOM     79  C3  IDS C   5     158.613  17.086  52.0650  0.00  0.00     0.000 C
ATOM     80  C4  IDS C   5     157.364  16.800  51.2370  0.00  0.00     0.000 C
ATOM     81  C5  IDS C   5     157.322  17.754  50.0340  0.00  0.00     0.000 C
ATOM     82  O5  IDS C   5     158.636  18.220  49.7160  0.00  0.00     0.000 O
BRANCH 78 83
ATOM     83   O  IDS C   5     159.983  18.844  53.0390  0.00  0.00     0.000 O
ATOM     84   S  IDS C   5     159.807  19.924  54.2000  0.00  0.00     0.000 S
ATOM     85   O  IDS C   5     159.269  21.099  53.5690  0.00  0.00     0.000 OA
ATOM     86   O  IDS C   5     158.896  19.319  55.1430  0.00  0.00     0.000 OA
ATOM     87   O  IDS C   5     161.125  20.125  54.7500  0.00  0.00     0.000 OA
ENDBRANCH 78 83
BRANCH 81 88
ATOM     88   C  IDS C   5     156.739  17.135  48.7770  0.00  0.00     0.000 C
ATOM     89   O  IDS C   5     157.471  16.742  47.9090  0.00  0.00     0.000 OA
ATOM     90   O  IDS C   5     155.539  17.039  48.6580  0.00  0.00     0.000 OA
ENDBRANCH 81 88
ENDBRANCH 76 80
ENDBRANCH 56 76
ENDBRANCH 55 59
ENDBRANCH 39 55
ENDBRANCH 38 42
ENDBRANCH 18 38
ENDBRANCH 17 21
ENDBRANCH 1 17
TORSDOF 18
ENDMDL
MODEL 8
REMARK VINA RESULT:      -8.3      5.246     14.042
ROOT
ATOM      1  C1  IDS C   1     147.288  19.357  59.1560  0.00  0.00     0.000 C
ATOM      2  C2  IDS C   1     146.242  20.476  59.1840  0.00  0.00     0.000 C
ATOM      3  C3  IDS C   1     146.578  21.502  60.2560  0.00  0.00     0.000 C
ATOM      4  C4  IDS C   1     146.647  20.844  61.6270  0.00  0.00     0.000 C
ATOM      5  C5  IDS C   1     147.309  19.473  61.5170  0.00  0.00     0.000 C
ATOM      6  O5  IDS C   1     148.093  19.401  60.3260  0.00  0.00     0.000 O
ATOM      7   O  IDS C   1     145.588  22.540  60.2610  0.00  0.00     0.000 O
ATOM      9  HD  IDS C   1     145.344  22.688  59.4430  0.00  0.00     0.000 HD
ENDROOT
BRANCH 2 9
ATOM      9   O  IDS C   1     146.194  21.186  57.8860  0.00  0.00     0.000 O
ATOM     10   S  IDS C   1     144.801  21.331  57.1240  0.00  0.00     0.000 S
ATOM     11   O  IDS C   1     145.086  22.073  55.9160  0.00  0.00     0.000 OA
ATOM     12   O  IDS C   1     144.357  19.977  56.8620  0.00  0.00     0.000 OA
ATOM     13   O  IDS C   1     143.928  22.045  58.0290  0.00  0.00     0.000 OA
ENDBRANCH 2 9
BRANCH 5 14
ATOM     14   C  IDS C   1     148.208  19.174  62.7050  0.00  0.00     0.000 C
ATOM     15   O  IDS C   1     149.393  19.031  62.5310  0.00  0.00     0.000 OA
ATOM     16   O  IDS C   1     147.725  19.078  63.8200  0.00  0.00     0.000 OA
ENDBRANCH 5 14
BRANCH 1 17
ATOM     17  O4  SGN C   2     147.786  18.856  58.0220  0.00  0.00     0.000 O
BRANCH 17 21
ATOM     18  C1  SGN C   2     150.529  18.580  54.8710  0.00  0.00     0.000 C
ATOM     19  C2  SGN C   2     150.986  19.353  56.1140  0.00  0.00     0.000 C
ATOM     20  C3  SGN C   2     150.079  19.010  57.3020  0.00  0.00     0.000 C
ATOM     21  C4  SGN C   2     148.619  19.241  56.9310  0.00  0.00     0.000 C
ATOM     22  C5  SGN C   2     148.284  18.420  55.6900  0.00  0.00     0.000 C
ATOM     23  O5  SGN C   2     149.160  18.798  54.6020  0.00  0.00     0.000 O
ATOM     24   O  SGN C   2     150.446  19.789  58.4290  0.00  0.00     0.000 O
ATOM     26  HD  SGN C   2     150.203  19.075  58.0020  0.00  0.00     0.000 HD
BRANCH 19 28
ATOM     26   N  SGN C   2     152.439  19.416  55.9060  0.00  0.00     0.000 N
ATOM     28  HD  SGN C   2     152.112  19.553  55.1160  0.00  0.00     0.000 HD
ATOM     28   O  SGN C   2     154.700  20.008  56.7800  0.00  0.00     0.000 OA
ATOM     29   S  SGN C   2     153.326  20.660  56.4070  0.00  0.00     0.000 S
ATOM     30   O  SGN C   2     153.518  21.519  55.3020  0.00  0.00     0.000 OA
ATOM     31   O  SGN C   2     152.727  21.166  57.5940  0.00  0.00     0.000 OA
ENDBRANCH 19 28
BRANCH 22 32
ATOM     32   C  SGN C   2     146.871  18.621  55.2010  0.00  0.00     0.000 C
ATOM     33   S  SGN C   2     145.577  18.662  52.9720  0.00  0.00     0.000 S
ATOM     34   O  SGN C   2     146.056  19.980  52.6390  0.00  0.00     0.000 OA
ATOM     35   O  SGN C   2     145.498  17.768  51.8360  0.00  0.00     0.000 OA
ATOM     36   O  SGN C   2     144.388  18.657  53.7910  0.00  0.00     0.000 OA
ATOM     37   O  SGN C   2     146.725  18.048  53.8960  0.00  0.00     0.000 O
ENDBRANCH 22 32
BRANCH 18 38
ATOM     38  O4  IDS C   3     150.727  17.305  54.5280  0.00  0.00     0.000 O
BRANCH 38 42
ATOM     39  C1  IDS C   3     152.118  14.114  54.4300  0.00  0.00     0.000 C
ATOM     40  C2  IDS C   3     153.007  15.362  54.5480  0.00  0.00     0.000 C
ATOM     41  C3  IDS C   3     152.679  16.380  53.4570  0.00  0.00     0.000 C
ATOM     42  C4  IDS C   3     151.179  16.617  53.3560  0.00  0.00     0.000 C
ATOM     43  C5  IDS C   3     150.449  15.274  53.2240  0.00  0.00     0.000 C
ATOM     44  O5  IDS C   3     150.747  14.467  54.3620  0.00  0.00     0.000 O
ATOM     45   O  IDS C   3     153.178  15.907  52.2040  0.00  0.00     0.000 O
ATOM     47  HD  IDS C   3     153.076  15.184  51.7380  0.00  0.00     0.000 HD
BRANCH 40 47
ATOM     47   O  IDS C   3     152.797  16.029  55.8560  0.00  0.00     0.000 O
ATOM     48   S  IDS C   3     154.040  16.279  56.8300  0.00  0.00     0.000 S
ATOM     49   O  IDS C   3     154.326  15.001  57.4450  0.00  0.00     0.000 OA
ATOM     50   O  IDS C   3     153.581  17.263  57.7860  0.00  0.00     0.000 OA
ATOM     51   O  IDS C   3     155.117  16.753  56.0020  0.00  0.00     0.000 OA
ENDBRANCH 40 47
BRANCH 43 52
ATOM     52   C  IDS C   3     148.951  15.432  53.0920  0.00  0.00     0.000 C
ATOM     53   O  IDS C   3     148.220  14.994  53.9500  0.00  0.00     0.000 OA
ATOM     54   O  IDS C   3     148.493  15.996  52.1300  0.00  0.00     0.000 OA
ENDBRANCH 43 52
BRANCH 39 55
ATOM     55  O4  SGN C   4     152.440  13.045  53.7010  0.00  0.00     0.000 O
BRANCH 55 59
ATOM     56  C1  SGN C   4     156.353  11.705  54.3300  0.00  0.00     0.000 C
ATOM     57  C2  SGN C   4     155.980  12.086  52.8870  0.00  0.00     0.000 C
ATOM     58  C3  SGN C   4     154.697  12.913  52.8590  0.00  0.00     0.000 C
ATOM     59  C4  SGN C   4     153.593  12.217  53.6470  0.00  0.00     0.000 C
ATOM     60  C5  SGN C   4     154.100  11.937  55.0600  0.00  0.00     0.000 C
ATOM     61  O5  SGN C   4     155.252  11.076  54.9650  0.00  0.00     0.000 O
ATOM     62   O  SGN C   4     154.296  13.124  51.5120  0.00  0.00     0.000 O
ATOM     64  HD  SGN C   4     155.157  13.039  51.4710  0.00  0.00     0.000 HD
BRANCH 57 66
ATOM     64   N  SGN C   4     157.153  11.338  52.4050  0.00  0.00     0.000 N
ATOM     66  HD  SGN C   4     157.461  11.086  51.6370  0.00  0.00     0.000 HD
ATOM     66   S  SGN C   4     158.114  11.963  51.2950  0.00  0.00     0.000 S
ATOM     67   O  SGN C   4     159.105  10.993  50.9970  0.00  0.00     0.000 OA
ATOM     68   O  SGN C   4     157.281  12.455  50.2530  0.00  0.00     0.000 OA
ATOM     69   O  SGN C   4     158.779  13.177  52.0200  0.00  0.00     0.000 OA
ENDBRANCH 57 66
BRANCH 60 70
ATOM     70   C  SGN C   4     153.084  11.253  55.9490  0.00  0.00     0.000 C
ATOM     71   O  SGN C   4     151.344  12.724  58.9340  0.00  0.00     0.000 OA
ATOM     72   O  SGN C   4     150.454  12.434  56.7050  0.00  0.00     0.000 OA
ATOM     73   O  SGN C   4     152.800  12.061  57.1070  0.00  0.00     0.000 O
ATOM     74   S  SGN C   4     151.335  11.924  57.7310  0.00  0.00     0.000 S
ATOM     75   O  SGN C   4     151.169  10.506  57.9820  0.00  0.00     0.000 OA
ENDBRANCH 60 70
BRANCH 56 76
ATOM     76  O4  IDS C   5     157.132  12.232  55.2930  0.00  0.00     0.000 O
BRANCH 76 80
ATOM     77  C1  IDS C   5     158.698  15.191  57.6270  0.00  0.00     0.000 C
ATOM     78  C2  IDS C   5     158.768  15.464  56.1250  0.00  0.00     0.000 C
ATOM     79  C3  IDS C   5     157.799  14.558  55.3920  0.00  0.00     0.000 C
ATOM     80  C4  IDS C   5     158.243  13.106  55.5430  0.00  0.00     0.000 C
ATOM     81  C5  IDS C   5     158.790  12.886  56.9600  0.00  0.00     0.000 C
ATOM     82  O5  IDS C   5     158.250  13.856  57.8630  0.00  0.00     0.000 O
BRANCH 78 83
ATOM     83   O  IDS C   5     158.408  16.871  55.8310  0.00  0.00     0.000 O
ATOM     84   S  IDS C   5     159.454  17.817  55.0840  0.00  0.00     0.000 S
ATOM     85   O  IDS C   5     160.702  17.654  55.7800  0.00  0.00     0.000 OA
ATOM     86   O  IDS C   5     159.495  17.335  53.7230  0.00  0.00     0.000 OA
ATOM     87   O  IDS C   5     158.915  19.151  55.1850  0.00  0.00     0.000 OA
ENDBRANCH 78 83
BRANCH 81 88
ATOM     88   C  IDS C   5     158.488  11.512  57.5310  0.00  0.00     0.000 C
ATOM     89   O  IDS C   5     157.647  11.389  58.3810  0.00  0.00     0.000 OA
ATOM     90   O  IDS C   5     159.096  10.549  57.1250  0.00  0.00     0.000 OA
ENDBRANCH 81 88
ENDBRANCH 76 80
ENDBRANCH 56 76
ENDBRANCH 55 59
ENDBRANCH 39 55
ENDBRANCH 38 42
ENDBRANCH 18 38
ENDBRANCH 17 21
ENDBRANCH 1 17
TORSDOF 18
ENDMDL
MODEL 9
REMARK VINA RESULT:      -8.2     15.585     22.412
ROOT
ATOM      1  C1  IDS C   1     134.739  32.599  45.8370  0.00  0.00     0.000 C
ATOM      2  C2  IDS C   1     133.795  31.401  45.9750  0.00  0.00     0.000 C
ATOM      3  C3  IDS C   1     132.487  31.657  45.2420  0.00  0.00     0.000 C
ATOM      4  C4  IDS C   1     131.800  32.902  45.7860  0.00  0.00     0.000 C
ATOM      5  C5  IDS C   1     132.836  33.980  46.0890  0.00  0.00     0.000 C
ATOM      6  O5  IDS C   1     134.032  33.733  45.3500  0.00  0.00     0.000 O
ATOM      7   O  IDS C   1     131.622  30.520  45.3820  0.00  0.00     0.000 O
ATOM      9  HD  IDS C   1     132.109  29.804  45.3640  0.00  0.00     0.000 HD
ENDROOT
BRANCH 2 9
ATOM      9   O  IDS C   1     134.402  30.183  45.3930  0.00  0.00     0.000 O
ATOM     10   S  IDS C   1     134.671  28.918  46.3280  0.00  0.00     0.000 S
ATOM     11   O  IDS C   1     135.247  27.907  45.4700  0.00  0.00     0.000 OA
ATOM     12   O  IDS C   1     135.587  29.378  47.3520  0.00  0.00     0.000 OA
ATOM     13   O  IDS C   1     133.380  28.537  46.8560  0.00  0.00     0.000 OA
ENDBRANCH 2 9
BRANCH 5 14
ATOM     14   C  IDS C   1     132.334  35.371  45.7410  0.00  0.00     0.000 C
ATOM     15   O  IDS C   1     131.275  35.496  45.1750  0.00  0.00     0.000 OA
ATOM     16   O  IDS C   1     133.004  36.347  46.0340  0.00  0.00     0.000 OA
ENDBRANCH 5 14
BRANCH 1 17
ATOM     17  O4  SGN C   2     136.046  32.471  45.5910  0.00  0.00     0.000 O
BRANCH 17 21
ATOM     18  C1  SGN C   2     139.316  32.124  43.0000  0.00  0.00     0.000 C
ATOM     19  C2  SGN C   2     137.944  32.338  42.3490  0.00  0.00     0.000 C
ATOM     20  C3  SGN C   2     136.950  32.862  43.3930  0.00  0.00     0.000 C
ATOM     21  C4  SGN C   2     136.923  31.936  44.6040  0.00  0.00     0.000 C
ATOM     22  C5  SGN C   2     138.337  31.807  45.1620  0.00  0.00     0.000 C
ATOM     23  O5  SGN C   2     139.222  31.294  44.1400  0.00  0.00     0.000 O
ATOM     24   O  SGN C   2     135.660  32.979  42.8150  0.00  0.00     0.000 O
ATOM     26  HD  SGN C   2     136.338  33.217  43.3000  0.00  0.00     0.000 HD
BRANCH 19 28
ATOM     26   N  SGN C   2     138.085  33.200  41.1680  0.00  0.00     0.000 N
ATOM     28  HD  SGN C   2     138.814  33.342  41.6140  0.00  0.00     0.000 HD
ATOM     28   O  SGN C   2     137.640  33.595  38.7450  0.00  0.00     0.000 OA
ATOM     29   S  SGN C   2     138.388  32.608  39.7040  0.00  0.00     0.000 S
ATOM     30   O  SGN C   2     139.777  32.725  39.4770  0.00  0.00     0.000 OA
ATOM     31   O  SGN C   2     137.766  31.333  39.6170  0.00  0.00     0.000 OA
ENDBRANCH 19 28
BRANCH 22 32
ATOM     32   C  SGN C   2     138.433  30.861  46.3350  0.00  0.00     0.000 C
ATOM     33   S  SGN C   2     139.506  28.589  46.9100  0.00  0.00     0.000 S
ATOM     34   O  SGN C   2     138.500  27.853  46.1860  0.00  0.00     0.000 OA
ATOM     35   O  SGN C   2     140.839  28.039  46.7720  0.00  0.00     0.000 OA
ATOM     36   O  SGN C   2     139.147  28.892  48.2750  0.00  0.00     0.000 OA
ATOM     37   O  SGN C   2     139.568  30.002  46.1690  0.00  0.00     0.000 O
ENDBRANCH 22 32
BRANCH 18 38
ATOM     38  O4  IDS C   3     140.266  33.005  43.3180  0.00  0.00     0.000 O
BRANCH 38 42
ATOM     39  C1  IDS C   3     142.463  35.301  44.7430  0.00  0.00     0.000 C
ATOM     40  C2  IDS C   3     140.982  35.652  44.5250  0.00  0.00     0.000 C
ATOM     41  C3  IDS C   3     140.558  35.387  43.0810  0.00  0.00     0.000 C
ATOM     42  C4  IDS C   3     141.010  34.009  42.6180  0.00  0.00     0.000 C
ATOM     43  C5  IDS C   3     142.509  33.835  42.8910  0.00  0.00     0.000 C
ATOM     44  O5  IDS C   3     142.750  33.990  44.2880  0.00  0.00     0.000 O
ATOM     45   O  IDS C   3     141.121  36.389  42.2320  0.00  0.00     0.000 O
ATOM     47  HD  IDS C   3     141.921  36.682  42.0780  0.00  0.00     0.000 HD
BRANCH 40 47
ATOM     47   O  IDS C   3     140.118  34.826  45.4010  0.00  0.00     0.000 O
ATOM     48   S  IDS C   3     140.147  35.047  46.9850  0.00  0.00     0.000 S
ATOM     49   O  IDS C   3     141.357  34.407  47.4530  0.00  0.00     0.000 OA
ATOM     50   O  IDS C   3     138.952  34.401  47.4810  0.00  0.00     0.000 OA
ATOM     51   O  IDS C   3     140.151  36.470  47.1970  0.00  0.00     0.000 OA
ENDBRANCH 40 47
BRANCH 43 52
ATOM     52   C  IDS C   3     143.036  32.494  42.4300  0.00  0.00     0.000 C
ATOM     53   O  IDS C   3     143.513  31.725  43.2330  0.00  0.00     0.000 OA
ATOM     54   O  IDS C   3     142.978  32.198  41.2640  0.00  0.00     0.000 OA
ENDBRANCH 43 52
BRANCH 39 55
ATOM     55  O4  SGN C   4     143.461  36.168  44.5670  0.00  0.00     0.000 O
BRANCH 55 59
ATOM     56  C1  SGN C   4     147.516  35.154  44.7470  0.00  0.00     0.000 C
ATOM     57  C2  SGN C   4     146.664  34.800  45.9780  0.00  0.00     0.000 C
ATOM     58  C3  SGN C   4     145.176  34.852  45.6400  0.00  0.00     0.000 C
ATOM     59  C4  SGN C   4     144.823  36.175  44.9710  0.00  0.00     0.000 C
ATOM     60  C5  SGN C   4     145.725  36.367  43.7540  0.00  0.00     0.000 C
ATOM     61  O5  SGN C   4     147.094  36.395  44.2060  0.00  0.00     0.000 O
ATOM     62   O  SGN C   4     144.412  34.669  46.8240  0.00  0.00     0.000 O
ATOM     64  HD  SGN C   4     145.152  34.245  46.9750  0.00  0.00     0.000 HD
BRANCH 57 66
ATOM     64   N  SGN C   4     146.809  34.273  47.3440  0.00  0.00     0.000 N
ATOM     66  HD  SGN C   4     146.951  33.498  47.7030  0.00  0.00     0.000 HD
ATOM     66   S  SGN C   4     148.092  33.414  47.7500  0.00  0.00     0.000 S
ATOM     67   O  SGN C   4     147.918  33.000  49.0950  0.00  0.00     0.000 OA
ATOM     68   O  SGN C   4     148.276  32.435  46.7350  0.00  0.00     0.000 OA
ATOM     69   O  SGN C   4     149.266  34.442  47.6720  0.00  0.00     0.000 OA
ENDBRANCH 57 66
BRANCH 60 70
ATOM     70   C  SGN C   4     145.463  37.650  42.9950  0.00  0.00     0.000 C
ATOM     71   O  SGN C   4     142.870  38.207  40.3350  0.00  0.00     0.000 OA
ATOM     72   O  SGN C   4     142.768  38.875  42.6570  0.00  0.00     0.000 OA
ATOM     73   O  SGN C   4     144.537  37.417  41.9160  0.00  0.00     0.000 O
ATOM     74   S  SGN C   4     143.603  38.647  41.5000  0.00  0.00     0.000 S
ATOM     75   O  SGN C   4     144.521  39.734  41.2280  0.00  0.00     0.000 OA
ENDBRANCH 60 70
BRANCH 56 76
ATOM     76  O4  IDS C   5     148.114  34.461  43.7600  0.00  0.00     0.000 O
BRANCH 76 80
ATOM     77  C1  IDS C   5     147.204  35.721  39.9860  0.00  0.00     0.000 C
ATOM     78  C2  IDS C   5     146.577  34.383  40.3760  0.00  0.00     0.000 C
ATOM     79  C3  IDS C   5     146.601  34.224  41.8840  0.00  0.00     0.000 C
ATOM     80  C4  IDS C   5     148.046  34.130  42.3650  0.00  0.00     0.000 C
ATOM     81  C5  IDS C   5     148.919  35.089  41.5430  0.00  0.00     0.000 C
ATOM     82  O5  IDS C   5     148.125  36.144  40.9910  0.00  0.00     0.000 O
BRANCH 78 83
ATOM     83   O  IDS C   5     145.169  34.311  39.9200  0.00  0.00     0.000 O
ATOM     84   S  IDS C   5     144.833  33.719  38.4770  0.00  0.00     0.000 S
ATOM     85   O  IDS C   5     145.723  34.381  37.5610  0.00  0.00     0.000 OA
ATOM     86   O  IDS C   5     145.079  32.300  38.5830  0.00  0.00     0.000 OA
ATOM     87   O  IDS C   5     143.443  34.026  38.2430  0.00  0.00     0.000 OA
ENDBRANCH 78 83
BRANCH 81 88
ATOM     88   C  IDS C   5     150.044  35.729  42.3350  0.00  0.00     0.000 C
ATOM     89   O  IDS C   5     149.991  36.897  42.6120  0.00  0.00     0.000 OA
ATOM     90   O  IDS C   5     150.988  35.058  42.6830  0.00  0.00     0.000 OA
ENDBRANCH 81 88
ENDBRANCH 76 80
ENDBRANCH 56 76
ENDBRANCH 55 59
ENDBRANCH 39 55
ENDBRANCH 38 42
ENDBRANCH 18 38
ENDBRANCH 17 21
ENDBRANCH 1 17
TORSDOF 18
ENDMDL
MODEL 10
REMARK VINA RESULT:      -8.2      4.483     15.018
ROOT
ATOM      1  C1  IDS C   1     145.590  21.593  56.0340  0.00  0.00     0.000 C
ATOM      2  C2  IDS C   1     144.627  21.922  57.1780  0.00  0.00     0.000 C
ATOM      3  C3  IDS C   1     143.183  21.710  56.7470  0.00  0.00     0.000 C
ATOM      4  C4  IDS C   1     142.849  22.580  55.5430  0.00  0.00     0.000 C
ATOM      5  C5  IDS C   1     144.032  22.619  54.5810  0.00  0.00     0.000 C
ATOM      6  O5  IDS C   1     144.884  21.495  54.8040  0.00  0.00     0.000 O
ATOM      7   O  IDS C   1     142.302  22.020  57.8350  0.00  0.00     0.000 O
ATOM      9  HD  IDS C   1     142.679  21.765  58.5720  0.00  0.00     0.000 HD
ENDROOT
BRANCH 2 9
ATOM      9   O  IDS C   1     144.878  21.048  58.3450  0.00  0.00     0.000 O
ATOM     10   S  IDS C   1     145.157  21.705  59.7710  0.00  0.00     0.000 S
ATOM     11   O  IDS C   1     145.345  20.601  60.6860  0.00  0.00     0.000 OA
ATOM     12   O  IDS C   1     146.351  22.508  59.6030  0.00  0.00     0.000 OA
ATOM     13   O  IDS C   1     143.986  22.495  60.0780  0.00  0.00     0.000 OA
ENDBRANCH 2 9
BRANCH 5 14
ATOM     14   C  IDS C   1     143.590  22.607  53.1270  0.00  0.00     0.000 C
ATOM     15   O  IDS C   1     144.219  21.967  52.3200  0.00  0.00     0.000 OA
ATOM     16   O  IDS C   1     142.606  23.243  52.7890  0.00  0.00     0.000 OA
ENDBRANCH 5 14
BRANCH 1 17
ATOM     17  O4  SGN C   2     146.721  20.903  56.2100  0.00  0.00     0.000 O
BRANCH 17 21
ATOM     18  C1  SGN C   2     149.243  17.578  55.8850  0.00  0.00     0.000 C
ATOM     19  C2  SGN C   2     148.039  17.623  54.9350  0.00  0.00     0.000 C
ATOM     20  C3  SGN C   2     147.479  19.049  54.8740  0.00  0.00     0.000 C
ATOM     21  C4  SGN C   2     147.178  19.555  56.2800  0.00  0.00     0.000 C
ATOM     22  C5  SGN C   2     148.447  19.466  57.1230  0.00  0.00     0.000 C
ATOM     23  O5  SGN C   2     148.916  18.099  57.1560  0.00  0.00     0.000 O
ATOM     24   O  SGN C   2     146.314  19.075  54.0650  0.00  0.00     0.000 O
ATOM     26  HD  SGN C   2     147.073  19.357  54.3730  0.00  0.00     0.000 HD
BRANCH 19 28
ATOM     26   N  SGN C   2     148.412  16.612  53.9360  0.00  0.00     0.000 N
ATOM     28  HD  SGN C   2     148.655  16.257  54.6870  0.00  0.00     0.000 HD
ATOM     28   O  SGN C   2     147.945  15.484  51.7600  0.00  0.00     0.000 OA
ATOM     29   S  SGN C   2     147.318  15.709  53.1770  0.00  0.00     0.000 S
ATOM     30   O  SGN C   2     147.255  14.467  53.8460  0.00  0.00     0.000 OA
ATOM     31   O  SGN C   2     146.139  16.491  53.0330  0.00  0.00     0.000 OA
ENDBRANCH 19 28
BRANCH 22 32
ATOM     32   C  SGN C   2     148.243  19.892  58.5570  0.00  0.00     0.000 C
ATOM     33   S  SGN C   2     149.647  20.260  60.6870  0.00  0.00     0.000 S
ATOM     34   O  SGN C   2     149.748  18.846  60.9470  0.00  0.00     0.000 OA
ATOM     35   O  SGN C   2     150.860  20.993  60.9810  0.00  0.00     0.000 OA
ATOM     36   O  SGN C   2     148.458  20.875  61.2280  0.00  0.00     0.000 OA
ATOM     37   O  SGN C   2     149.484  20.357  59.1020  0.00  0.00     0.000 O
ENDBRANCH 22 32
BRANCH 18 38
ATOM     38  O4  IDS C   3     150.507  17.961  55.6920  0.00  0.00     0.000 O
BRANCH 38 42
ATOM     39  C1  IDS C   3     153.739  17.337  54.5560  0.00  0.00     0.000 C
ATOM     40  C2  IDS C   3     152.877  16.211  55.1490  0.00  0.00     0.000 C
ATOM     41  C3  IDS C   3     152.321  16.603  56.5180  0.00  0.00     0.000 C
ATOM     42  C4  IDS C   3     151.700  17.993  56.4830  0.00  0.00     0.000 C
ATOM     43  C5  IDS C   3     152.698  18.992  55.8840  0.00  0.00     0.000 C
ATOM     44  O5  IDS C   3     153.044  18.572  54.5650  0.00  0.00     0.000 O
ATOM     45   O  IDS C   3     153.373  16.568  57.4840  0.00  0.00     0.000 O
ATOM     47  HD  IDS C   3     154.153  16.939  57.5530  0.00  0.00     0.000 HD
BRANCH 40 47
ATOM     47   O  IDS C   3     151.723  15.920  54.2660  0.00  0.00     0.000 O
ATOM     48   S  IDS C   3     151.837  14.770  53.1610  0.00  0.00     0.000 S
ATOM     49   O  IDS C   3     152.615  15.334  52.0790  0.00  0.00     0.000 OA
ATOM     50   O  IDS C   3     150.474  14.481  52.7700  0.00  0.00     0.000 OA
ATOM     51   O  IDS C   3     152.491  13.657  53.7970  0.00  0.00     0.000 OA
ENDBRANCH 40 47
BRANCH 43 52
ATOM     52   C  IDS C   3     152.159  20.404  55.8420  0.00  0.00     0.000 C
ATOM     53   O  IDS C   3     151.879  20.973  56.8720  0.00  0.00     0.000 OA
ATOM     54   O  IDS C   3     152.011  20.956  54.7820  0.00  0.00     0.000 OA
ENDBRANCH 43 52
BRANCH 39 55
ATOM     55  O4  SGN C   4     155.051  17.451  54.7660  0.00  0.00     0.000 O
BRANCH 55 59
ATOM     56  C1  SGN C   4     158.983  17.213  53.3570  0.00  0.00     0.000 C
ATOM     57  C2  SGN C   4     158.422  18.626  53.5950  0.00  0.00     0.000 C
ATOM     58  C3  SGN C   4     157.167  18.571  54.4610  0.00  0.00     0.000 C
ATOM     59  C4  SGN C   4     156.167  17.569  53.8950  0.00  0.00     0.000 C
ATOM     60  C5  SGN C   4     156.859  16.215  53.7490  0.00  0.00     0.000 C
ATOM     61  O5  SGN C   4     157.967  16.369  52.8410  0.00  0.00     0.000 O
ATOM     62   O  SGN C   4     156.587  19.866  54.5410  0.00  0.00     0.000 O
ATOM     64  HD  SGN C   4     157.432  20.014  54.4200  0.00  0.00     0.000 HD
BRANCH 57 66
ATOM     64   N  SGN C   4     159.573  19.113  52.8170  0.00  0.00     0.000 N
ATOM     66  HD  SGN C   4     159.789  19.848  52.4140  0.00  0.00     0.000 HD
ATOM     66   S  SGN C   4     160.312  20.468  53.2230  0.00  0.00     0.000 S
ATOM     67   O  SGN C   4     161.327  20.702  52.2610  0.00  0.00     0.000 OA
ATOM     68   O  SGN C   4     159.302  21.448  53.4260  0.00  0.00     0.000 OA
ATOM     69   O  SGN C   4     160.969  20.133  54.6000  0.00  0.00     0.000 OA
ENDBRANCH 57 66
BRANCH 60 70
ATOM     70   C  SGN C   4     155.961  15.126  53.2020  0.00  0.00     0.000 C
ATOM     71   O  SGN C   4     156.988  12.224  51.0510  0.00  0.00     0.000 OA
ATOM     72   O  SGN C   4     156.535  12.211  53.4270  0.00  0.00     0.000 OA
ATOM     73   O  SGN C   4     156.676  14.311  52.2540  0.00  0.00     0.000 O
ATOM     74   S  SGN C   4     156.218  12.783  52.1380  0.00  0.00     0.000 S
ATOM     75   O  SGN C   4     154.795  12.843  51.8680  0.00  0.00     0.000 OA
ENDBRANCH 60 70
BRANCH 56 76
ATOM     76  O4  IDS C   5     159.899  16.429  53.9550  0.00  0.00     0.000 O
BRANCH 76 80
ATOM     77  C1  IDS C   5     159.207  13.610  56.8240  0.00  0.00     0.000 C
ATOM     78  C2  IDS C   5     159.380  15.031  57.3590  0.00  0.00     0.000 C
ATOM     79  C3  IDS C   5     159.190  16.031  56.2360  0.00  0.00     0.000 C
ATOM     80  C4  IDS C   5     160.307  15.865  55.2100  0.00  0.00     0.000 C
ATOM     81  C5  IDS C   5     160.631  14.373  55.0480  0.00  0.00     0.000 C
ATOM     82  O5  IDS C   5     159.510  13.571  55.4290  0.00  0.00     0.000 O
BRANCH 78 83
ATOM     83   O  IDS C   5     158.381  15.318  58.4160  0.00  0.00     0.000 O
ATOM     84   S  IDS C   5     158.847  15.988  59.7860  0.00  0.00     0.000 S
ATOM     85   O  IDS C   5     159.984  15.229  60.2320  0.00  0.00     0.000 OA
ATOM     86   O  IDS C   5     159.174  17.354  59.4470  0.00  0.00     0.000 OA
ATOM     87   O  IDS C   5     157.714  15.892  60.6730  0.00  0.00     0.000 OA
ENDBRANCH 78 83
BRANCH 81 88
ATOM     88   C  IDS C   5     161.017  13.977  53.6340  0.00  0.00     0.000 C
ATOM     89   O  IDS C   5     160.189  13.517  52.8940  0.00  0.00     0.000 OA
ATOM     90   O  IDS C   5     162.158  14.127  53.2600  0.00  0.00     0.000 OA
ENDBRANCH 81 88
ENDBRANCH 76 80
ENDBRANCH 56 76
ENDBRANCH 55 59
ENDBRANCH 39 55
ENDBRANCH 38 42
ENDBRANCH 18 38
ENDBRANCH 17 21
ENDBRANCH 1 17
TORSDOF 18
ENDMDL
MODEL 11
REMARK VINA RESULT:      -8.2      3.864      9.896
ROOT
ATOM      1  C1  IDS C   1     157.655  15.683  57.4790  0.00  0.00     0.000 C
ATOM      2  C2  IDS C   1     159.094  16.166  57.2740  0.00  0.00     0.000 C
ATOM      3  C3  IDS C   1     160.088  15.135  57.7870  0.00  0.00     0.000 C
ATOM      4  C4  IDS C   1     159.858  14.857  59.2660  0.00  0.00     0.000 C
ATOM      5  C5  IDS C   1     158.363  14.827  59.5670  0.00  0.00     0.000 C
ATOM      6  O5  IDS C   1     157.627  14.575  58.3700  0.00  0.00     0.000 O
ATOM      7   O  IDS C   1     161.427  15.608  57.5800  0.00  0.00     0.000 O
ATOM      9  HD  IDS C   1     161.450  16.040  56.8300  0.00  0.00     0.000 HD
ENDROOT
BRANCH 2 9
ATOM      9   O  IDS C   1     159.377  16.383  55.8370  0.00  0.00     0.000 O
ATOM     10   S  IDS C   1     159.796  17.837  55.3320  0.00  0.00     0.000 S
ATOM     11   O  IDS C   1     160.013  17.713  53.9080  0.00  0.00     0.000 OA
ATOM     12   O  IDS C   1     158.679  18.700  55.6600  0.00  0.00     0.000 OA
ATOM     13   O  IDS C   1     161.001  18.174  56.0560  0.00  0.00     0.000 OA
ENDBRANCH 2 9
BRANCH 5 14
ATOM     14   C  IDS C   1     158.004  13.759  60.5860  0.00  0.00     0.000 C
ATOM     15   O  IDS C   1     157.727  14.084  61.7140  0.00  0.00     0.000 OA
ATOM     16   O  IDS C   1     158.002  12.584  60.2570  0.00  0.00     0.000 OA
ENDBRANCH 5 14
BRANCH 1 17
ATOM     17  O4  SGN C   2     156.703  15.819  56.5520  0.00  0.00     0.000 O
BRANCH 17 21
ATOM     18  C1  SGN C   2     153.826  14.401  53.8620  0.00  0.00     0.000 C
ATOM     19  C2  SGN C   2     154.380  13.388  54.8720  0.00  0.00     0.000 C
ATOM     20  C3  SGN C   2     155.071  14.128  56.0230  0.00  0.00     0.000 C
ATOM     21  C4  SGN C   2     156.117  15.092  55.4750  0.00  0.00     0.000 C
ATOM     22  C5  SGN C   2     155.447  16.047  54.4910  0.00  0.00     0.000 C
ATOM     23  O5  SGN C   2     154.829  15.293  53.4230  0.00  0.00     0.000 O
ATOM     24   O  SGN C   2     155.659  13.194  56.9130  0.00  0.00     0.000 O
ATOM     26  HD  SGN C   2     155.218  13.903  56.6850  0.00  0.00     0.000 HD
BRANCH 19 28
ATOM     26   N  SGN C   2     153.389  12.307  54.7810  0.00  0.00     0.000 N
ATOM     28  HD  SGN C   2     153.499  12.555  53.9590  0.00  0.00     0.000 HD
ATOM     28   O  SGN C   2     152.502  10.143  55.6510  0.00  0.00     0.000 OA
ATOM     29   S  SGN C   2     153.782  10.762  54.9940  0.00  0.00     0.000 S
ATOM     30   O  SGN C   2     153.957  10.187  53.7160  0.00  0.00     0.000 OA
ATOM     31   O  SGN C   2     154.845  10.713  55.9380  0.00  0.00     0.000 OA
ENDBRANCH 19 28
BRANCH 22 32
ATOM     32   C  SGN C   2     156.410  17.011  53.8430  0.00  0.00     0.000 C
ATOM     33   S  SGN C   2     156.810  18.098  51.5400  0.00  0.00     0.000 S
ATOM     34   O  SGN C   2     157.390  16.895  50.9970  0.00  0.00     0.000 OA
ATOM     35   O  SGN C   2     155.969  18.812  50.6020  0.00  0.00     0.000 OA
ATOM     36   O  SGN C   2     157.752  18.947  52.2290  0.00  0.00     0.000 OA
ATOM     37   O  SGN C   2     155.811  17.576  52.6710  0.00  0.00     0.000 O
ENDBRANCH 22 32
BRANCH 18 38
ATOM     38  O4  IDS C   3     152.723  15.152  53.9100  0.00  0.00     0.000 O
BRANCH 38 42
ATOM     39  C1  IDS C   3     150.534  17.536  55.1940  0.00  0.00     0.000 C
ATOM     40  C2  IDS C   3     151.348  16.625  56.1270  0.00  0.00     0.000 C
ATOM     41  C3  IDS C   3     151.170  15.153  55.7550  0.00  0.00     0.000 C
ATOM     42  C4  IDS C   3     151.351  14.937  54.2590  0.00  0.00     0.000 C
ATOM     43  C5  IDS C   3     150.456  15.910  53.4820  0.00  0.00     0.000 C
ATOM     44  O5  IDS C   3     150.804  17.247  53.8330  0.00  0.00     0.000 O
ATOM     45   O  IDS C   3     149.867  14.719  56.1510  0.00  0.00     0.000 O
ATOM     47  HD  IDS C   3     149.059  14.988  55.9950  0.00  0.00     0.000 HD
BRANCH 40 47
ATOM     47   O  IDS C   3     152.793  16.937  56.0280  0.00  0.00     0.000 O
ATOM     48   S  IDS C   3     153.353  18.311  56.6260  0.00  0.00     0.000 S
ATOM     49   O  IDS C   3     152.992  19.336  55.6710  0.00  0.00     0.000 OA
ATOM     50   O  IDS C   3     154.785  18.127  56.7250  0.00  0.00     0.000 OA
ATOM     51   O  IDS C   3     152.716  18.488  57.9030  0.00  0.00     0.000 OA
ENDBRANCH 40 47
BRANCH 43 52
ATOM     52   C  IDS C   3     150.562  15.734  51.9830  0.00  0.00     0.000 C
ATOM     53   O  IDS C   3     151.587  15.314  51.4970  0.00  0.00     0.000 OA
ATOM     54   O  IDS C   3     149.623  16.012  51.2810  0.00  0.00     0.000 OA
ENDBRANCH 43 52
BRANCH 39 55
ATOM     55  O4  SGN C   4     149.273  17.899  55.4320  0.00  0.00     0.000 O
BRANCH 55 59
ATOM     56  C1  SGN C   4     146.214  18.924  58.0950  0.00  0.00     0.000 C
ATOM     57  C2  SGN C   4     147.642  19.323  58.5030  0.00  0.00     0.000 C
ATOM     58  C3  SGN C   4     148.586  19.257  57.3050  0.00  0.00     0.000 C
ATOM     59  C4  SGN C   4     148.469  17.908  56.6030  0.00  0.00     0.000 C
ATOM     60  C5  SGN C   4     147.006  17.672  56.2330  0.00  0.00     0.000 C
ATOM     61  O5  SGN C   4     146.229  17.663  57.4470  0.00  0.00     0.000 O
ATOM     62   O  SGN C   4     149.920  19.483  57.7370  0.00  0.00     0.000 O
ATOM     64  HD  SGN C   4     149.432  19.914  58.3080  0.00  0.00     0.000 HD
BRANCH 57 66
ATOM     64   N  SGN C   4     147.206  19.482  59.9000  0.00  0.00     0.000 N
ATOM     66  HD  SGN C   4     147.589  19.635  60.6610  0.00  0.00     0.000 HD
ATOM     66   S  SGN C   4     147.617  20.777  60.7360  0.00  0.00     0.000 S
ATOM     67   O  SGN C   4     147.108  20.615  62.0490  0.00  0.00     0.000 OA
ATOM     68   O  SGN C   4     149.014  20.969  60.5470  0.00  0.00     0.000 OA
ATOM     69   O  SGN C   4     146.852  21.937  60.0230  0.00  0.00     0.000 OA
ENDBRANCH 57 66
BRANCH 60 70
ATOM     70   C  SGN C   4     146.762  16.361  55.5180  0.00  0.00     0.000 C
ATOM     71   O  SGN C   4     144.071  13.850  56.2680  0.00  0.00     0.000 OA
ATOM     72   O  SGN C   4     144.106  15.486  54.4870  0.00  0.00     0.000 OA
ATOM     73   O  SGN C   4     145.777  15.579  56.2200  0.00  0.00     0.000 O
ATOM     74   S  SGN C   4     144.876  14.601  55.3320  0.00  0.00     0.000 S
ATOM     75   O  SGN C   4     145.824  13.785  54.6010  0.00  0.00     0.000 OA
ENDBRANCH 60 70
BRANCH 56 76
ATOM     76  O4  IDS C   5     145.112  19.579  57.6850  0.00  0.00     0.000 O
BRANCH 76 80
ATOM     77  C1  IDS C   5     141.667  21.684  57.0860  0.00  0.00     0.000 C
ATOM     78  C2  IDS C   5     142.851  22.152  56.2390  0.00  0.00     0.000 C
ATOM     79  C3  IDS C   5     143.913  21.070  56.2000  0.00  0.00     0.000 C
ATOM     80  C4  IDS C   5     144.491  20.871  57.5980  0.00  0.00     0.000 C
ATOM     81  C5  IDS C   5     143.367  20.996  58.6360  0.00  0.00     0.000 C
ATOM     82  O5  IDS C   5     142.098  20.713  58.0390  0.00  0.00     0.000 O
BRANCH 78 83
ATOM     83   O  IDS C   5     142.422  22.438  54.8500  0.00  0.00     0.000 O
ATOM     84   S  IDS C   5     143.515  22.754  53.7320  0.00  0.00     0.000 S
ATOM     85   O  IDS C   5     144.388  23.745  54.3020  0.00  0.00     0.000 OA
ATOM     86   O  IDS C   5     144.174  21.495  53.4800  0.00  0.00     0.000 OA
ATOM     87   O  IDS C   5     142.777  23.235  52.5900  0.00  0.00     0.000 OA
ENDBRANCH 78 83
BRANCH 81 88
ATOM     88   C  IDS C   5     143.526  20.074  59.8310  0.00  0.00     0.000 C
ATOM     89   O  IDS C   5     144.227  20.401  60.7500  0.00  0.00     0.000 OA
ATOM     90   O  IDS C   5     142.944  19.014  59.8510  0.00  0.00     0.000 OA
ENDBRANCH 81 88
ENDBRANCH 76 80
ENDBRANCH 56 76
ENDBRANCH 55 59
ENDBRANCH 39 55
ENDBRANCH 38 42
ENDBRANCH 18 38
ENDBRANCH 17 21
ENDBRANCH 1 17
TORSDOF 18
ENDMDL
MODEL 12
REMARK VINA RESULT:      -8.1     25.266     30.423
ROOT
ATOM      1  C1  IDS C   1     166.745  19.358  76.7490  0.00  0.00     0.000 C
ATOM      2  C2  IDS C   1     167.426  18.026  77.0760  0.00  0.00     0.000 C
ATOM      3  C3  IDS C   1     168.626  17.796  76.1690  0.00  0.00     0.000 C
ATOM      4  C4  IDS C   1     168.204  17.799  74.7070  0.00  0.00     0.000 C
ATOM      5  C5  IDS C   1     167.146  18.872  74.4700  0.00  0.00     0.000 C
ATOM      6  O5  IDS C   1     167.207  19.858  75.5010  0.00  0.00     0.000 O
ATOM      7   O  IDS C   1     169.249  16.546  76.4970  0.00  0.00     0.000 O
ATOM      9  HD  IDS C   1     169.203  16.435  77.3540  0.00  0.00     0.000 HD
ENDROOT
BRANCH 2 9
ATOM      9   O  IDS C   1     167.913  18.011  78.4740  0.00  0.00     0.000 O
ATOM     10   S  IDS C   1     167.325  16.939  79.4970  0.00  0.00     0.000 S
ATOM     11   O  IDS C   1     168.004  17.175  80.7520  0.00  0.00     0.000 OA
ATOM     12   O  IDS C   1     165.903  17.204  79.5660  0.00  0.00     0.000 OA
ATOM     13   O  IDS C   1     167.630  15.644  78.9290  0.00  0.00     0.000 OA
ENDBRANCH 2 9
BRANCH 5 14
ATOM     14   C  IDS C   1     167.323  19.566  73.1300  0.00  0.00     0.000 C
ATOM     15   O  IDS C   1     168.435  19.794  72.7220  0.00  0.00     0.000 OA
ATOM     16   O  IDS C   1     166.342  19.887  72.4800  0.00  0.00     0.000 OA
ENDBRANCH 5 14
BRANCH 1 17
ATOM     17  O4  SGN C   2     166.316  20.205  77.6890  0.00  0.00     0.000 O
BRANCH 17 21
ATOM     18  C1  SGN C   2     166.876  23.638  80.0190  0.00  0.00     0.000 C
ATOM     19  C2  SGN C   2     168.035  23.236  79.0980  0.00  0.00     0.000 C
ATOM     20  C3  SGN C   2     167.534  22.254  78.0320  0.00  0.00     0.000 C
ATOM     21  C4  SGN C   2     166.832  21.074  78.6940  0.00  0.00     0.000 C
ATOM     22  C5  SGN C   2     165.702  21.598  79.5760  0.00  0.00     0.000 C
ATOM     23  O5  SGN C   2     166.237  22.504  80.5690  0.00  0.00     0.000 O
ATOM     24   O  SGN C   2     168.620  21.814  77.2340  0.00  0.00     0.000 O
ATOM     26  HD  SGN C   2     167.816  22.091  77.3960  0.00  0.00     0.000 HD
BRANCH 19 28
ATOM     26   N  SGN C   2     168.822  24.476  79.0590  0.00  0.00     0.000 N
ATOM     28  HD  SGN C   2     168.546  24.434  79.8790  0.00  0.00     0.000 HD
ATOM     28   O  SGN C   2     170.755  25.752  78.1310  0.00  0.00     0.000 OA
ATOM     29   S  SGN C   2     170.428  24.472  78.9720  0.00  0.00     0.000 S
ATOM     30   O  SGN C   2     170.926  24.651  80.2810  0.00  0.00     0.000 OA
ATOM     31   O  SGN C   2     170.816  23.326  78.2230  0.00  0.00     0.000 OA
ENDBRANCH 19 28
BRANCH 22 32
ATOM     32   C  SGN C   2     164.975  20.510  80.3270  0.00  0.00     0.000 C
ATOM     33   S  SGN C   2     164.679  19.694  82.7540  0.00  0.00     0.000 S
ATOM     34   O  SGN C   2     165.978  19.068  82.7740  0.00  0.00     0.000 OA
ATOM     35   O  SGN C   2     164.327  20.342  84.0000  0.00  0.00     0.000 OA
ATOM     36   O  SGN C   2     163.630  18.855  82.2250  0.00  0.00     0.000 OA
ATOM     37   O  SGN C   2     164.833  20.885  81.7020  0.00  0.00     0.000 O
ENDBRANCH 22 32
BRANCH 18 38
ATOM     38  O4  IDS C   3     165.882  24.508  79.8260  0.00  0.00     0.000 O
BRANCH 38 42
ATOM     39  C1  IDS C   3     164.258  27.202  78.3310  0.00  0.00     0.000 C
ATOM     40  C2  IDS C   3     165.783  27.207  78.5310  0.00  0.00     0.000 C
ATOM     41  C3  IDS C   3     166.151  26.899  79.9810  0.00  0.00     0.000 C
ATOM     42  C4  IDS C   3     165.399  25.678  80.4930  0.00  0.00     0.000 C
ATOM     43  C5  IDS C   3     163.897  25.846  80.2330  0.00  0.00     0.000 C
ATOM     44  O5  IDS C   3     163.681  26.007  78.8320  0.00  0.00     0.000 O
ATOM     45   O  IDS C   3     165.846  28.031  80.7980  0.00  0.00     0.000 O
ATOM     47  HD  IDS C   3     165.137  28.506  80.9450  0.00  0.00     0.000 HD
BRANCH 40 47
ATOM     47   O  IDS C   3     166.422  26.176  77.6800  0.00  0.00     0.000 O
ATOM     48   S  IDS C   3     167.388  26.617  76.4840  0.00  0.00     0.000 S
ATOM     49   O  IDS C   3     166.520  27.063  75.4160  0.00  0.00     0.000 OA
ATOM     50   O  IDS C   3     168.129  25.425  76.1340  0.00  0.00     0.000 OA
ATOM     51   O  IDS C   3     168.221  27.670  77.0020  0.00  0.00     0.000 OA
ENDBRANCH 40 47
BRANCH 43 52
ATOM     52   C  IDS C   3     163.080  24.680  80.7430  0.00  0.00     0.000 C
ATOM     53   O  IDS C   3     162.162  24.253  80.0810  0.00  0.00     0.000 OA
ATOM     54   O  IDS C   3     163.349  24.181  81.8060  0.00  0.00     0.000 OA
ENDBRANCH 43 52
BRANCH 39 55
ATOM     55  O4  SGN C   4     163.490  28.280  78.4810  0.00  0.00     0.000 O
BRANCH 55 59
ATOM     56  C1  SGN C   4     160.455  30.556  76.7160  0.00  0.00     0.000 C
ATOM     57  C2  SGN C   4     160.299  30.246  78.2150  0.00  0.00     0.000 C
ATOM     58  C3  SGN C   4     161.622  29.773  78.8110  0.00  0.00     0.000 C
ATOM     59  C4  SGN C   4     162.211  28.640  77.9780  0.00  0.00     0.000 C
ATOM     60  C5  SGN C   4     162.335  29.108  76.5290  0.00  0.00     0.000 C
ATOM     61  O5  SGN C   4     161.017  29.439  76.0470  0.00  0.00     0.000 O
ATOM     62   O  SGN C   4     161.417  29.354  80.1530  0.00  0.00     0.000 O
ATOM     64  HD  SGN C   4     160.805  29.951  80.0170  0.00  0.00     0.000 HD
BRANCH 57 66
ATOM     64   N  SGN C   4     159.403  31.414  78.2010  0.00  0.00     0.000 N
ATOM     66  HD  SGN C   4     158.549  31.546  78.1410  0.00  0.00     0.000 HD
ATOM     66   S  SGN C   4     158.184  31.514  79.2270  0.00  0.00     0.000 S
ATOM     67   O  SGN C   4     157.477  32.706  78.9300  0.00  0.00     0.000 OA
ATOM     68   O  SGN C   4     157.502  30.267  79.1860  0.00  0.00     0.000 OA
ATOM     69   O  SGN C   4     158.882  31.657  80.6170  0.00  0.00     0.000 OA
ENDBRANCH 57 66
BRANCH 60 70
ATOM     70   C  SGN C   4     162.920  28.068  75.5990  0.00  0.00     0.000 C
ATOM     71   O  SGN C   4     161.069  25.304  73.8550  0.00  0.00     0.000 OA
ATOM     72   O  SGN C   4     161.808  27.406  72.9140  0.00  0.00     0.000 OA
ATOM     73   O  SGN C   4     161.942  27.055  75.2940  0.00  0.00     0.000 O
ATOM     74   S  SGN C   4     162.067  26.349  73.8650  0.00  0.00     0.000 S
ATOM     75   O  SGN C   4     163.427  25.850  73.8170  0.00  0.00     0.000 OA
ENDBRANCH 60 70
BRANCH 56 76
ATOM     76  O4  IDS C   5     160.730  31.650  75.9830  0.00  0.00     0.000 O
BRANCH 76 80
ATOM     77  C1  IDS C   5     159.484  31.666  72.0970  0.00  0.00     0.000 C
ATOM     78  C2  IDS C   5     160.971  31.368  72.2850  0.00  0.00     0.000 C
ATOM     79  C3  IDS C   5     161.236  30.955  73.7190  0.00  0.00     0.000 C
ATOM     80  C4  IDS C   5     160.956  32.131  74.6500  0.00  0.00     0.000 C
ATOM     81  C5  IDS C   5     159.727  32.900  74.1420  0.00  0.00     0.000 C
ATOM     82  O5  IDS C   5     158.899  32.051  73.3410  0.00  0.00     0.000 O
BRANCH 78 83
ATOM     83   O  IDS C   5     161.402  30.267  71.3930  0.00  0.00     0.000 O
ATOM     84   S  IDS C   5     161.522  30.519  69.8220  0.00  0.00     0.000 S
ATOM     85   O  IDS C   5     160.295  31.158  69.4300  0.00  0.00     0.000 OA
ATOM     86   O  IDS C   5     162.680  31.367  69.6620  0.00  0.00     0.000 OA
ATOM     87   O  IDS C   5     161.701  29.216  69.2300  0.00  0.00     0.000 OA
ENDBRANCH 78 83
BRANCH 81 88
ATOM     88   C  IDS C   5     158.859  33.473  75.2480  0.00  0.00     0.000 C
ATOM     89   O  IDS C   5     159.134  34.538  75.7320  0.00  0.00     0.000 OA
ATOM     90   O  IDS C   5     157.895  32.854  75.6340  0.00  0.00     0.000 OA
ENDBRANCH 81 88
ENDBRANCH 76 80
ENDBRANCH 56 76
ENDBRANCH 55 59
ENDBRANCH 39 55
ENDBRANCH 38 42
ENDBRANCH 18 38
ENDBRANCH 17 21
ENDBRANCH 1 17
TORSDOF 18
ENDMDL
MODEL 13
REMARK VINA RESULT:      -8.0     21.218     24.527
ROOT
ATOM      1  C1  IDS C   1     148.225  35.884  71.9600  0.00  0.00     0.000 C
ATOM      2  C2  IDS C   1     149.187  37.061  72.1440  0.00  0.00     0.000 C
ATOM      3  C3  IDS C   1     148.556  38.356  71.6570  0.00  0.00     0.000 C
ATOM      4  C4  IDS C   1     148.172  38.247  70.1870  0.00  0.00     0.000 C
ATOM      5  C5  IDS C   1     147.611  36.859  69.8950  0.00  0.00     0.000 C
ATOM      6  O5  IDS C   1     147.152  36.251  71.1020  0.00  0.00     0.000 O
ATOM      7   O  IDS C   1     149.473  39.444  71.8440  0.00  0.00     0.000 O
ATOM      9  HD  IDS C   1     149.907  39.309  72.5810  0.00  0.00     0.000 HD
ENDROOT
BRANCH 2 9
ATOM      9   O  IDS C   1     149.531  37.242  73.5730  0.00  0.00     0.000 O
ATOM     10   S  IDS C   1     151.032  37.004  74.0540  0.00  0.00     0.000 S
ATOM     11   O  IDS C   1     151.040  37.270  75.4750  0.00  0.00     0.000 OA
ATOM     12   O  IDS C   1     151.328  35.621  73.7380  0.00  0.00     0.000 OA
ATOM     13   O  IDS C   1     151.840  37.939  73.3030  0.00  0.00     0.000 OA
ENDBRANCH 2 9
BRANCH 5 14
ATOM     14   C  IDS C   1     146.456  36.903  68.9090  0.00  0.00     0.000 C
ATOM     15   O  IDS C   1     145.640  37.788  68.9900  0.00  0.00     0.000 OA
ATOM     16   O  IDS C   1     146.363  36.046  68.0470  0.00  0.00     0.000 OA
ENDBRANCH 5 14
BRANCH 1 17
ATOM     17  O4  SGN C   2     148.045  34.939  72.8870  0.00  0.00     0.000 O
BRANCH 17 21
ATOM     18  C1  SGN C   2     145.862  33.616  76.2060  0.00  0.00     0.000 C
ATOM     19  C2  SGN C   2     145.651  35.075  75.7820  0.00  0.00     0.000 C
ATOM     20  C3  SGN C   2     146.163  35.279  74.3510  0.00  0.00     0.000 C
ATOM     21  C4  SGN C   2     147.606  34.804  74.2370  0.00  0.00     0.000 C
ATOM     22  C5  SGN C   2     147.687  33.346  74.6790  0.00  0.00     0.000 C
ATOM     23  O5  SGN C   2     147.207  33.220  76.0380  0.00  0.00     0.000 O
ATOM     24   O  SGN C   2     146.048  36.645  73.9880  0.00  0.00     0.000 O
ATOM     26  HD  SGN C   2     145.998  35.788  73.8770  0.00  0.00     0.000 HD
BRANCH 19 28
ATOM     26   N  SGN C   2     144.412  35.414  76.4950  0.00  0.00     0.000 N
ATOM     28  HD  SGN C   2     144.855  34.939  77.0670  0.00  0.00     0.000 HD
ATOM     28   O  SGN C   2     142.564  37.036  76.9160  0.00  0.00     0.000 OA
ATOM     29   S  SGN C   2     144.118  36.894  77.0510  0.00  0.00     0.000 S
ATOM     30   O  SGN C   2     144.456  36.908  78.4230  0.00  0.00     0.000 OA
ATOM     31   O  SGN C   2     144.736  37.818  76.1650  0.00  0.00     0.000 OA
ENDBRANCH 19 28
BRANCH 22 32
ATOM     32   C  SGN C   2     149.090  32.791  74.6590  0.00  0.00     0.000 C
ATOM     33   S  SGN C   2     150.596  31.382  73.1130  0.00  0.00     0.000 S
ATOM     34   O  SGN C   2     149.938  30.153  73.4790  0.00  0.00     0.000 OA
ATOM     35   O  SGN C   2     150.952  31.456  71.7120  0.00  0.00     0.000 OA
ATOM     36   O  SGN C   2     151.670  31.761  74.0000  0.00  0.00     0.000 OA
ATOM     37   O  SGN C   2     149.475  32.502  73.3100  0.00  0.00     0.000 O
ENDBRANCH 22 32
BRANCH 18 38
ATOM     38  O4  IDS C   3     145.162  32.521  75.9040  0.00  0.00     0.000 O
BRANCH 38 42
ATOM     39  C1  IDS C   3     143.081  29.730  75.8000  0.00  0.00     0.000 C
ATOM     40  C2  IDS C   3     144.570  29.622  75.4330  0.00  0.00     0.000 C
ATOM     41  C3  IDS C   3     144.956  30.662  74.3820  0.00  0.00     0.000 C
ATOM     42  C4  IDS C   3     144.444  32.045  74.7600  0.00  0.00     0.000 C
ATOM     43  C5  IDS C   3     142.945  31.975  75.0750  0.00  0.00     0.000 C
ATOM     44  O5  IDS C   3     142.735  31.060  76.1490  0.00  0.00     0.000 O
ATOM     45   O  IDS C   3     144.417  30.278  73.1150  0.00  0.00     0.000 O
ATOM     47  HD  IDS C   3     143.626  30.087  72.8200  0.00  0.00     0.000 HD
BRANCH 40 47
ATOM     47   O  IDS C   3     145.418  29.858  76.6250  0.00  0.00     0.000 O
ATOM     48   S  IDS C   3     146.965  29.454  76.5930  0.00  0.00     0.000 S
ATOM     49   O  IDS C   3     147.004  28.016  76.7590  0.00  0.00     0.000 OA
ATOM     50   O  IDS C   3     147.565  30.155  77.7070  0.00  0.00     0.000 OA
ATOM     51   O  IDS C   3     147.471  29.881  75.3160  0.00  0.00     0.000 OA
ENDBRANCH 40 47
BRANCH 43 52
ATOM     52   C  IDS C   3     142.358  33.322  75.4340  0.00  0.00     0.000 C
ATOM     53   O  IDS C   3     141.929  33.516  76.5480  0.00  0.00     0.000 OA
ATOM     54   O  IDS C   3     142.322  34.197  74.6070  0.00  0.00     0.000 OA
ENDBRANCH 43 52
BRANCH 39 55
ATOM     55  O4  SGN C   4     142.114  29.067  75.1660  0.00  0.00     0.000 O
BRANCH 55 59
ATOM     56  C1  SGN C   4     138.801  28.188  77.5660  0.00  0.00     0.000 C
ATOM     57  C2  SGN C   4     139.836  27.065  77.3840  0.00  0.00     0.000 C
ATOM     58  C3  SGN C   4     141.149  27.621  76.8400  0.00  0.00     0.000 C
ATOM     59  C4  SGN C   4     140.899  28.471  75.6000  0.00  0.00     0.000 C
ATOM     60  C5  SGN C   4     139.882  29.557  75.9460  0.00  0.00     0.000 C
ATOM     61  O5  SGN C   4     138.658  28.915  76.3560  0.00  0.00     0.000 O
ATOM     62   O  SGN C   4     142.033  26.548  76.5430  0.00  0.00     0.000 O
ATOM     64  HD  SGN C   4     141.532  26.245  77.1810  0.00  0.00     0.000 HD
BRANCH 57 66
ATOM     64   N  SGN C   4     138.846  26.066  77.8180  0.00  0.00     0.000 N
ATOM     66  HD  SGN C   4     138.810  25.202  77.8690  0.00  0.00     0.000 HD
ATOM     66   S  SGN C   4     139.228  24.965  78.9080  0.00  0.00     0.000 S
ATOM     67   O  SGN C   4     138.102  24.119  79.0700  0.00  0.00     0.000 OA
ATOM     68   O  SGN C   4     140.473  24.403  78.5140  0.00  0.00     0.000 OA
ATOM     69   O  SGN C   4     139.444  25.795  80.2140  0.00  0.00     0.000 OA
ENDBRANCH 57 66
BRANCH 60 70
ATOM     70   C  SGN C   4     139.556  30.479  74.7910  0.00  0.00     0.000 C
ATOM     71   O  SGN C   4     136.602  32.781  74.5070  0.00  0.00     0.000 OA
ATOM     72   O  SGN C   4     138.875  33.364  75.0920  0.00  0.00     0.000 OA
ATOM     73   O  SGN C   4     138.241  31.044  74.9520  0.00  0.00     0.000 O
ATOM     74   S  SGN C   4     138.007  32.497  74.3270  0.00  0.00     0.000 S
ATOM     75   O  SGN C   4     138.398  32.370  72.9370  0.00  0.00     0.000 OA
ENDBRANCH 60 70
BRANCH 56 76
ATOM     76  O4  IDS C   5     138.426  28.998  78.5740  0.00  0.00     0.000 O
BRANCH 76 80
ATOM     77  C1  IDS C   5     138.073  32.552  80.5480  0.00  0.00     0.000 C
ATOM     78  C2  IDS C   5     139.497  32.205  80.1170  0.00  0.00     0.000 C
ATOM     79  C3  IDS C   5     139.464  31.135  79.0440  0.00  0.00     0.000 C
ATOM     80  C4  IDS C   5     138.910  29.840  79.6310  0.00  0.00     0.000 C
ATOM     81  C5  IDS C   5     137.778  30.170  80.6140  0.00  0.00     0.000 C
ATOM     82  O5  IDS C   5     137.204  31.445  80.3090  0.00  0.00     0.000 O
BRANCH 78 83
ATOM     83   O  IDS C   5     140.185  33.397  79.5690  0.00  0.00     0.000 O
ATOM     84   S  IDS C   5     141.575  33.868  80.1930  0.00  0.00     0.000 S
ATOM     85   O  IDS C   5     141.380  33.895  81.6180  0.00  0.00     0.000 OA
ATOM     86   O  IDS C   5     142.535  32.875  79.7700  0.00  0.00     0.000 OA
ATOM     87   O  IDS C   5     141.836  35.169  79.6280  0.00  0.00     0.000 OA
ENDBRANCH 78 83
BRANCH 81 88
ATOM     88   C  IDS C   5     136.652  29.152  80.6210  0.00  0.00     0.000 C
ATOM     89   O  IDS C   5     135.552  29.473  80.2600  0.00  0.00     0.000 OA
ATOM     90   O  IDS C   5     136.870  28.021  80.9910  0.00  0.00     0.000 OA
ENDBRANCH 81 88
ENDBRANCH 76 80
ENDBRANCH 56 76
ENDBRANCH 55 59
ENDBRANCH 39 55
ENDBRANCH 38 42
ENDBRANCH 18 38
ENDBRANCH 17 21
ENDBRANCH 1 17
TORSDOF 18
ENDMDL
MODEL 14
REMARK VINA RESULT:      -8.0     15.658     20.248
ROOT
ATOM      1  C1  IDS C   1     148.525  35.887  43.3800  0.00  0.00     0.000 C
ATOM      2  C2  IDS C   1     149.817  36.466  43.9620  0.00  0.00     0.000 C
ATOM      3  C3  IDS C   1     150.459  37.443  42.9870  0.00  0.00     0.000 C
ATOM      4  C4  IDS C   1     150.768  36.756  41.6640  0.00  0.00     0.000 C
ATOM      5  C5  IDS C   1     149.639  35.797  41.2970  0.00  0.00     0.000 C
ATOM      6  O5  IDS C   1     148.443  36.159  41.9870  0.00  0.00     0.000 O
ATOM      7   O  IDS C   1     151.664  37.974  43.5560  0.00  0.00     0.000 O
ATOM      9  HD  IDS C   1     151.541  38.078  44.4070  0.00  0.00     0.000 HD
ENDROOT
BRANCH 2 9
ATOM      9   O  IDS C   1     149.546  37.202  45.2180  0.00  0.00     0.000 O
ATOM     10   S  IDS C   1     150.315  36.786  46.5510  0.00  0.00     0.000 S
ATOM     11   O  IDS C   1     149.846  37.690  47.5780  0.00  0.00     0.000 OA
ATOM     12   O  IDS C   1     149.944  35.408  46.8010  0.00  0.00     0.000 OA
ATOM     13   O  IDS C   1     151.723  36.947  46.2620  0.00  0.00     0.000 OA
ENDBRANCH 2 9
BRANCH 5 14
ATOM     14   C  IDS C   1     149.352  35.794  39.8050  0.00  0.00     0.000 C
ATOM     15   O  IDS C   1     149.628  36.767  39.1460  0.00  0.00     0.000 OA
ATOM     16   O  IDS C   1     148.845  34.813  39.2880  0.00  0.00     0.000 OA
ENDBRANCH 5 14
BRANCH 1 17
ATOM     17  O4  SGN C   2     147.407  35.737  44.0970  0.00  0.00     0.000 O
BRANCH 17 21
ATOM     18  C1  SGN C   2     143.525  37.036  44.9740  0.00  0.00     0.000 C
ATOM     19  C2  SGN C   2     144.364  37.943  44.0640  0.00  0.00     0.000 C
ATOM     20  C3  SGN C   2     145.555  37.156  43.5020  0.00  0.00     0.000 C
ATOM     21  C4  SGN C   2     146.345  36.517  44.6380  0.00  0.00     0.000 C
ATOM     22  C5  SGN C   2     145.408  35.641  45.4650  0.00  0.00     0.000 C
ATOM     23  O5  SGN C   2     144.318  36.440  45.9790  0.00  0.00     0.000 O
ATOM     24   O  SGN C   2     146.379  38.014  42.7310  0.00  0.00     0.000 O
ATOM     26  HD  SGN C   2     145.952  37.285  42.9230  0.00  0.00     0.000 HD
BRANCH 19 28
ATOM     26   N  SGN C   2     143.397  38.940  43.5860  0.00  0.00     0.000 N
ATOM     28  HD  SGN C   2     143.366  39.020  44.4470  0.00  0.00     0.000 HD
ATOM     28   O  SGN C   2     142.711  40.589  41.8430  0.00  0.00     0.000 OA
ATOM     29   S  SGN C   2     143.854  40.309  42.8770  0.00  0.00     0.000 S
ATOM     30   O  SGN C   2     143.832  41.324  43.8590  0.00  0.00     0.000 OA
ATOM     31   O  SGN C   2     145.056  40.046  42.1650  0.00  0.00     0.000 OA
ENDBRANCH 19 28
BRANCH 22 32
ATOM     32   C  SGN C   2     146.080  35.004  46.6560  0.00  0.00     0.000 C
ATOM     33   S  SGN C   2     147.373  32.849  47.2300  0.00  0.00     0.000 S
ATOM     34   O  SGN C   2     146.168  32.058  47.2780  0.00  0.00     0.000 OA
ATOM     35   O  SGN C   2     148.498  32.159  46.6340  0.00  0.00     0.000 OA
ATOM     36   O  SGN C   2     147.695  33.507  48.4740  0.00  0.00     0.000 OA
ATOM     37   O  SGN C   2     147.028  34.027  46.2090  0.00  0.00     0.000 O
ENDBRANCH 22 32
BRANCH 18 38
ATOM     38  O4  IDS C   3     142.631  36.095  44.6650  0.00  0.00     0.000 O
BRANCH 38 42
ATOM     39  C1  IDS C   3     140.540  33.321  44.9100  0.00  0.00     0.000 C
ATOM     40  C2  IDS C   3     141.228  33.679  43.5830  0.00  0.00     0.000 C
ATOM     41  C3  IDS C   3     140.970  35.136  43.2020  0.00  0.00     0.000 C
ATOM     42  C4  IDS C   3     141.228  36.067  44.3790  0.00  0.00     0.000 C
ATOM     43  C5  IDS C   3     140.454  35.577  45.6080  0.00  0.00     0.000 C
ATOM     44  O5  IDS C   3     140.873  34.251  45.9260  0.00  0.00     0.000 O
ATOM     45   O  IDS C   3     139.619  35.278  42.7620  0.00  0.00     0.000 O
ATOM     47  HD  IDS C   3     138.842  35.096  43.1000  0.00  0.00     0.000 HD
BRANCH 40 47
ATOM     47   O  IDS C   3     142.696  33.501  43.6940  0.00  0.00     0.000 O
ATOM     48   S  IDS C   3     143.418  32.327  42.8830  0.00  0.00     0.000 S
ATOM     49   O  IDS C   3     143.142  31.110  43.6160  0.00  0.00     0.000 OA
ATOM     50   O  IDS C   3     144.823  32.669  42.8890  0.00  0.00     0.000 OA
ATOM     51   O  IDS C   3     142.841  32.327  41.5650  0.00  0.00     0.000 OA
ENDBRANCH 40 47
BRANCH 43 52
ATOM     52   C  IDS C   3     140.640  36.472  46.8130  0.00  0.00     0.000 C
ATOM     53   O  IDS C   3     140.773  37.665  46.6640  0.00  0.00     0.000 OA
ATOM     54   O  IDS C   3     140.654  35.991  47.9180  0.00  0.00     0.000 OA
ENDBRANCH 43 52
BRANCH 39 55
ATOM     55  O4  SGN C   4     139.296  32.849  44.9930  0.00  0.00     0.000 O
BRANCH 55 59
ATOM     56  C1  SGN C   4     136.508  29.775  45.5250  0.00  0.00     0.000 C
ATOM     57  C2  SGN C   4     137.170  30.331  46.7970  0.00  0.00     0.000 C
ATOM     58  C3  SGN C   4     137.841  31.673  46.5170  0.00  0.00     0.000 C
ATOM     59  C4  SGN C   4     138.760  31.571  45.3050  0.00  0.00     0.000 C
ATOM     60  C5  SGN C   4     137.955  31.040  44.1210  0.00  0.00     0.000 C
ATOM     61  O5  SGN C   4     137.451  29.735  44.4660  0.00  0.00     0.000 O
ATOM     62   O  SGN C   4     138.569  32.090  47.6650  0.00  0.00     0.000 O
ATOM     64  HD  SGN C   4     137.926  31.603  47.9810  0.00  0.00     0.000 HD
BRANCH 57 66
ATOM     64   N  SGN C   4     136.781  30.460  48.2110  0.00  0.00     0.000 N
ATOM     66  HD  SGN C   4     136.058  30.347  48.6730  0.00  0.00     0.000 HD
ATOM     66   S  SGN C   4     136.090  29.243  48.9770  0.00  0.00     0.000 S
ATOM     67   O  SGN C   4     135.781  29.686  50.2870  0.00  0.00     0.000 OA
ATOM     68   O  SGN C   4     135.047  28.762  48.1380  0.00  0.00     0.000 OA
ATOM     69   O  SGN C   4     137.215  28.161  49.0470  0.00  0.00     0.000 OA
ENDBRANCH 57 66
BRANCH 60 70
ATOM     70   C  SGN C   4     138.760  30.903  42.8470  0.00  0.00     0.000 C
ATOM     71   O  SGN C   4     137.720  31.960  39.3960  0.00  0.00     0.000 OA
ATOM     72   O  SGN C   4     139.213  33.118  40.9050  0.00  0.00     0.000 OA
ATOM     73   O  SGN C   4     137.950  31.227  41.7010  0.00  0.00     0.000 O
ATOM     74   S  SGN C   4     138.713  31.845  40.4390  0.00  0.00     0.000 S
ATOM     75   O  SGN C   4     139.761  30.890  40.1350  0.00  0.00     0.000 OA
ENDBRANCH 60 70
BRANCH 56 76
ATOM     76  O4  IDS C   5     135.281  29.834  44.9750  0.00  0.00     0.000 O
BRANCH 76 80
ATOM     77  C1  IDS C   5     133.806  33.145  43.0980  0.00  0.00     0.000 C
ATOM     78  C2  IDS C   5     133.514  33.082  44.5970  0.00  0.00     0.000 C
ATOM     79  C3  IDS C   5     134.447  32.089  45.2620  0.00  0.00     0.000 C
ATOM     80  C4  IDS C   5     134.146  30.684  44.7500  0.00  0.00     0.000 C
ATOM     81  C5  IDS C   5     133.813  30.749  43.2520  0.00  0.00     0.000 C
ATOM     82  O5  IDS C   5     134.388  31.917  42.6600  0.00  0.00     0.000 O
BRANCH 78 83
ATOM     83   O  IDS C   5     133.715  34.408  45.2260  0.00  0.00     0.000 O
ATOM     84   S  IDS C   5     132.455  35.246  45.7320  0.00  0.00     0.000 S
ATOM     85   O  IDS C   5     131.513  35.239  44.6450  0.00  0.00     0.000 OA
ATOM     86   O  IDS C   5     131.979  34.543  46.9010  0.00  0.00     0.000 OA
ATOM     87   O  IDS C   5     132.959  36.561  46.0420  0.00  0.00     0.000 OA
ENDBRANCH 78 83
BRANCH 81 88
ATOM     88   C  IDS C   5     134.299  29.548  42.4610  0.00  0.00     0.000 C
ATOM     89   O  IDS C   5     133.779  28.476  42.6190  0.00  0.00     0.000 OA
ATOM     90   O  IDS C   5     135.208  29.678  41.6740  0.00  0.00     0.000 OA
ENDBRANCH 81 88
ENDBRANCH 76 80
ENDBRANCH 56 76
ENDBRANCH 55 59
ENDBRANCH 39 55
ENDBRANCH 38 42
ENDBRANCH 18 38
ENDBRANCH 17 21
ENDBRANCH 1 17
TORSDOF 18
ENDMDL
MODEL 15
REMARK VINA RESULT:      -8.0      4.627      8.452
ROOT
ATOM      1  C1  IDS C   1     145.059  21.325  59.5680  0.00  0.00     0.000 C
ATOM      2  C2  IDS C   1     146.370  20.539  59.4800  0.00  0.00     0.000 C
ATOM      3  C3  IDS C   1     146.757  19.979  60.8410  0.00  0.00     0.000 C
ATOM      4  C4  IDS C   1     146.911  21.101  61.8590  0.00  0.00     0.000 C
ATOM      5  C5  IDS C   1     145.830  22.156  61.6430  0.00  0.00     0.000 C
ATOM      6  O5  IDS C   1     144.732  21.593  60.9250  0.00  0.00     0.000 O
ATOM      7   O  IDS C   1     147.984  19.245  60.7320  0.00  0.00     0.000 O
ATOM      9  HD  IDS C   1     147.990  18.835  59.9690  0.00  0.00     0.000 HD
ENDROOT
BRANCH 2 9
ATOM      9   O  IDS C   1     146.238  19.396  58.5480  0.00  0.00     0.000 O
ATOM     10   S  IDS C   1     147.311  19.206  57.3840  0.00  0.00     0.000 S
ATOM     11   O  IDS C   1     146.915  18.011  56.6720  0.00  0.00     0.000 OA
ATOM     12   O  IDS C   1     147.221  20.402  56.5720  0.00  0.00     0.000 OA
ATOM     13   O  IDS C   1     148.590  19.067  58.0450  0.00  0.00     0.000 OA
ENDBRANCH 2 9
BRANCH 5 14
ATOM     14   C  IDS C   1     145.310  22.720  62.9540  0.00  0.00     0.000 C
ATOM     15   O  IDS C   1     144.230  22.370  63.3640  0.00  0.00     0.000 OA
ATOM     16   O  IDS C   1     145.984  23.522  63.5780  0.00  0.00     0.000 OA
ENDBRANCH 5 14
BRANCH 1 17
ATOM     17  O4  SGN C   2     144.088  21.225  58.6550  0.00  0.00     0.000 O
BRANCH 17 21
ATOM     18  C1  SGN C   2     140.447  19.868  57.0990  0.00  0.00     0.000 C
ATOM     19  C2  SGN C   2     140.639  19.733  58.6140  0.00  0.00     0.000 C
ATOM     20  C3  SGN C   2     141.792  20.634  59.0740  0.00  0.00     0.000 C
ATOM     21  C4  SGN C   2     143.047  20.336  58.2610  0.00  0.00     0.000 C
ATOM     22  C5  SGN C   2     142.732  20.507  56.7780  0.00  0.00     0.000 C
ATOM     23  O5  SGN C   2     141.651  19.623  56.4020  0.00  0.00     0.000 O
ATOM     24   O  SGN C   2     142.028  20.446  60.4590  0.00  0.00     0.000 O
ATOM     26  HD  SGN C   2     141.935  20.893  59.7230  0.00  0.00     0.000 HD
BRANCH 19 28
ATOM     26   N  SGN C   2     139.252  19.568  59.0710  0.00  0.00     0.000 N
ATOM     28  HD  SGN C   2     139.263  19.174  58.3000  0.00  0.00     0.000 HD
ATOM     28   O  SGN C   2     137.644  19.263  60.9530  0.00  0.00     0.000 OA
ATOM     29   S  SGN C   2     138.851  18.554  60.2520  0.00  0.00     0.000 S
ATOM     30   O  SGN C   2     138.388  17.363  59.6510  0.00  0.00     0.000 OA
ATOM     31   O  SGN C   2     139.940  18.503  61.1650  0.00  0.00     0.000 OA
ENDBRANCH 19 28
BRANCH 22 32
ATOM     32   C  SGN C   2     143.897  20.178  55.8770  0.00  0.00     0.000 C
ATOM     33   S  SGN C   2     144.387  18.758  53.7830  0.00  0.00     0.000 S
ATOM     34   O  SGN C   2     144.411  17.530  54.5380  0.00  0.00     0.000 OA
ATOM     35   O  SGN C   2     143.763  18.629  52.4830  0.00  0.00     0.000 OA
ATOM     36   O  SGN C   2     145.653  19.451  53.7470  0.00  0.00     0.000 OA
ATOM     37   O  SGN C   2     143.411  19.711  54.6130  0.00  0.00     0.000 O
ENDBRANCH 22 32
BRANCH 18 38
ATOM     38  O4  IDS C   3     139.850  20.827  56.3870  0.00  0.00     0.000 O
BRANCH 38 42
ATOM     39  C1  IDS C   3     138.105  21.662  53.4920  0.00  0.00     0.000 C
ATOM     40  C2  IDS C   3     138.972  22.701  54.2210  0.00  0.00     0.000 C
ATOM     41  C3  IDS C   3     138.611  22.779  55.7040  0.00  0.00     0.000 C
ATOM     42  C4  IDS C   3     138.536  21.392  56.3270  0.00  0.00     0.000 C
ATOM     43  C5  IDS C   3     137.618  20.494  55.4880  0.00  0.00     0.000 C
ATOM     44  O5  IDS C   3     138.133  20.412  54.1600  0.00  0.00     0.000 O
ATOM     45   O  IDS C   3     137.353  23.442  55.8500  0.00  0.00     0.000 O
ATOM     47  HD  IDS C   3     136.557  23.321  55.5320  0.00  0.00     0.000 HD
BRANCH 40 47
ATOM     47   O  IDS C   3     140.406  22.336  54.1310  0.00  0.00     0.000 O
ATOM     48   S  IDS C   3     141.507  23.480  53.9440  0.00  0.00     0.000 S
ATOM     49   O  IDS C   3     141.444  23.868  52.5510  0.00  0.00     0.000 OA
ATOM     50   O  IDS C   3     142.766  22.856  54.2870  0.00  0.00     0.000 OA
ATOM     51   O  IDS C   3     141.142  24.547  54.8370  0.00  0.00     0.000 OA
ENDBRANCH 40 47
BRANCH 43 52
ATOM     52   C  IDS C   3     137.473  19.103  56.0640  0.00  0.00     0.000 C
ATOM     53   O  IDS C   3     136.971  18.951  57.1540  0.00  0.00     0.000 OA
ATOM     54   O  IDS C   3     137.859  18.152  55.4330  0.00  0.00     0.000 OA
ENDBRANCH 43 52
BRANCH 39 55
ATOM     55  O4  SGN C   4     136.933  21.947  52.9230  0.00  0.00     0.000 O
BRANCH 55 59
ATOM     56  C1  SGN C   4     134.506  24.217  50.3810  0.00  0.00     0.000 C
ATOM     57  C2  SGN C   4     135.862  23.763  49.8130  0.00  0.00     0.000 C
ATOM     58  C3  SGN C   4     136.457  22.643  50.6620  0.00  0.00     0.000 C
ATOM     59  C4  SGN C   4     136.475  23.036  52.1350  0.00  0.00     0.000 C
ATOM     60  C5  SGN C   4     135.060  23.426  52.5560  0.00  0.00     0.000 C
ATOM     61  O5  SGN C   4     134.642  24.548  51.7540  0.00  0.00     0.000 O
ATOM     62   O  SGN C   4     137.770  22.346  50.2060  0.00  0.00     0.000 O
ATOM     64  HD  SGN C   4     137.359  22.644  49.5040  0.00  0.00     0.000 HD
BRANCH 57 66
ATOM     64   N  SGN C   4     135.635  24.745  48.7400  0.00  0.00     0.000 N
ATOM     66  HD  SGN C   4     136.119  25.136  48.1380  0.00  0.00     0.000 HD
ATOM     66   S  SGN C   4     136.079  24.425  47.2410  0.00  0.00     0.000 S
ATOM     67   O  SGN C   4     135.789  25.571  46.4580  0.00  0.00     0.000 OA
ATOM     68   O  SGN C   4     137.413  23.935  47.2970  0.00  0.00     0.000 OA
ATOM     69   O  SGN C   4     135.134  23.255  46.8160  0.00  0.00     0.000 OA
ENDBRANCH 57 66
BRANCH 60 70
ATOM     70   C  SGN C   4     134.945  23.830  54.0100  0.00  0.00     0.000 C
ATOM     71   O  SGN C   4     131.866  23.684  56.1560  0.00  0.00     0.000 OA
ATOM     72   O  SGN C   4     133.719  22.131  56.1290  0.00  0.00     0.000 OA
ATOM     73   O  SGN C   4     133.566  23.829  54.4270  0.00  0.00     0.000 O
ATOM     74   S  SGN C   4     133.287  23.500  55.9670  0.00  0.00     0.000 S
ATOM     75   O  SGN C   4     134.095  24.452  56.7020  0.00  0.00     0.000 OA
ENDBRANCH 60 70
BRANCH 56 76
ATOM     76  O4  IDS C   5     133.217  23.896  50.1650  0.00  0.00     0.000 O
BRANCH 76 80
ATOM     77  C1  IDS C   5     130.729  26.870  51.4390  0.00  0.00     0.000 C
ATOM     78  C2  IDS C   5     130.386  25.481  51.9790  0.00  0.00     0.000 C
ATOM     79  C3  IDS C   5     131.579  24.559  51.8210  0.00  0.00     0.000 C
ATOM     80  C4  IDS C   5     131.863  24.340  50.3380  0.00  0.00     0.000 C
ATOM     81  C5  IDS C   5     131.627  25.651  49.5750  0.00  0.00     0.000 C
ATOM     82  O5  IDS C   5     131.757  26.773  50.4530  0.00  0.00     0.000 O
BRANCH 78 83
ATOM     83   O  IDS C   5     130.034  25.550  53.4160  0.00  0.00     0.000 O
ATOM     84   S  IDS C   5     128.506  25.442  53.8640  0.00  0.00     0.000 S
ATOM     85   O  IDS C   5     127.783  26.364  53.0280  0.00  0.00     0.000 OA
ATOM     86   O  IDS C   5     128.141  24.064  53.6360  0.00  0.00     0.000 OA
ATOM     87   O  IDS C   5     128.482  25.801  55.2610  0.00  0.00     0.000 OA
ENDBRANCH 78 83
BRANCH 81 88
ATOM     88   C  IDS C   5     132.578  25.867  48.4130  0.00  0.00     0.000 C
ATOM     89   O  IDS C   5     132.566  25.109  47.4800  0.00  0.00     0.000 OA
ATOM     90   O  IDS C   5     133.343  26.804  48.4310  0.00  0.00     0.000 OA
ENDBRANCH 81 88
ENDBRANCH 76 80
ENDBRANCH 56 76
ENDBRANCH 55 59
ENDBRANCH 39 55
ENDBRANCH 38 42
ENDBRANCH 18 38
ENDBRANCH 17 21
ENDBRANCH 1 17
TORSDOF 18
ENDMDL
MODEL 16
REMARK VINA RESULT:      -7.9      4.466      9.208
ROOT
ATOM      1  C1  IDS C   1     144.948  21.492  59.7770  0.00  0.00     0.000 C
ATOM      2  C2  IDS C   1     146.370  20.972  59.5520  0.00  0.00     0.000 C
ATOM      3  C3  IDS C   1     146.957  20.427  60.8450  0.00  0.00     0.000 C
ATOM      4  C4  IDS C   1     146.981  21.504  61.9210  0.00  0.00     0.000 C
ATOM      5  C5  IDS C   1     145.711  22.347  61.8450  0.00  0.00     0.000 C
ATOM      6  O5  IDS C   1     144.683  21.625  61.1670  0.00  0.00     0.000 O
ATOM      7   O  IDS C   1     148.287  19.942  60.6090  0.00  0.00     0.000 O
ATOM      9  HD  IDS C   1     148.308  19.581  59.8220  0.00  0.00     0.000 HD
ENDROOT
BRANCH 2 9
ATOM      9   O  IDS C   1     146.379  19.873  58.5600  0.00  0.00     0.000 O
ATOM     10   S  IDS C   1     147.392  19.937  57.3290  0.00  0.00     0.000 S
ATOM     11   O  IDS C   1     147.164  18.729  56.5670  0.00  0.00     0.000 OA
ATOM     12   O  IDS C   1     147.044  21.139  56.6000  0.00  0.00     0.000 OA
ATOM     13   O  IDS C   1     148.715  19.992  57.9100  0.00  0.00     0.000 OA
ENDBRANCH 2 9
BRANCH 5 14
ATOM     14   C  IDS C   1     145.199  22.736  63.2210  0.00  0.00     0.000 C
ATOM     15   O  IDS C   1     144.186  22.232  63.6430  0.00  0.00     0.000 OA
ATOM     16   O  IDS C   1     145.812  23.554  63.8870  0.00  0.00     0.000 OA
ENDBRANCH 5 14
BRANCH 1 17
ATOM     17  O4  SGN C   2     143.945  21.259  58.9260  0.00  0.00     0.000 O
BRANCH 17 21
ATOM     18  C1  SGN C   2     140.411  19.439  57.6120  0.00  0.00     0.000 C
ATOM     19  C2  SGN C   2     140.710  19.354  59.1140  0.00  0.00     0.000 C
ATOM     20  C3  SGN C   2     141.769  20.397  59.4930  0.00  0.00     0.000 C
ATOM     21  C4  SGN C   2     142.999  20.242  58.6060  0.00  0.00     0.000 C
ATOM     22  C5  SGN C   2     142.575  20.349  57.1440  0.00  0.00     0.000 C
ATOM     23  O5  SGN C   2     141.591  19.333  56.8440  0.00  0.00     0.000 O
ATOM     24   O  SGN C   2     142.110  20.262  60.8620  0.00  0.00     0.000 O
ATOM     26  HD  SGN C   2     141.918  20.683  60.1300  0.00  0.00     0.000 HD
BRANCH 19 28
ATOM     26   N  SGN C   2     139.593  19.546  60.0500  0.00  0.00     0.000 N
ATOM     28  HD  SGN C   2     139.467  20.158  59.4500  0.00  0.00     0.000 HD
ATOM     28   O  SGN C   2     137.944  18.558  61.6400  0.00  0.00     0.000 OA
ATOM     29   S  SGN C   2     138.354  18.525  60.1290  0.00  0.00     0.000 S
ATOM     30   O  SGN C   2     137.301  19.073  59.3630  0.00  0.00     0.000 OA
ATOM     31   O  SGN C   2     138.844  17.226  59.8210  0.00  0.00     0.000 OA
ENDBRANCH 19 28
BRANCH 22 32
ATOM     32   C  SGN C   2     143.715  20.151  56.1750  0.00  0.00     0.000 C
ATOM     33   S  SGN C   2     144.230  20.550  53.6810  0.00  0.00     0.000 S
ATOM     34   O  SGN C   2     143.461  19.403  53.2680  0.00  0.00     0.000 OA
ATOM     35   O  SGN C   2     144.100  21.687  52.7940  0.00  0.00     0.000 OA
ATOM     36   O  SGN C   2     145.598  20.248  54.0310  0.00  0.00     0.000 OA
ATOM     37   O  SGN C   2     143.542  21.015  55.0450  0.00  0.00     0.000 O
ENDBRANCH 22 32
BRANCH 18 38
ATOM     38  O4  IDS C   3     139.658  20.306  56.9310  0.00  0.00     0.000 O
BRANCH 38 42
ATOM     39  C1  IDS C   3     137.034  21.636  55.0670  0.00  0.00     0.000 C
ATOM     40  C2  IDS C   3     137.568  20.222  54.7870  0.00  0.00     0.000 C
ATOM     41  C3  IDS C   3     139.083  20.231  54.5910  0.00  0.00     0.000 C
ATOM     42  C4  IDS C   3     139.777  21.018  55.6950  0.00  0.00     0.000 C
ATOM     43  C5  IDS C   3     139.136  22.405  55.8250  0.00  0.00     0.000 C
ATOM     44  O5  IDS C   3     137.750  22.253  56.1240  0.00  0.00     0.000 O
ATOM     45   O  IDS C   3     139.392  20.808  53.3200  0.00  0.00     0.000 O
ATOM     47  HD  IDS C   3     139.209  21.558  52.9280  0.00  0.00     0.000 HD
BRANCH 40 47
ATOM     47   O  IDS C   3     137.272  19.320  55.9250  0.00  0.00     0.000 O
ATOM     48   S  IDS C   3     135.991  18.364  55.8710  0.00  0.00     0.000 S
ATOM     49   O  IDS C   3     134.852  19.210  56.1510  0.00  0.00     0.000 OA
ATOM     50   O  IDS C   3     136.212  17.373  56.9020  0.00  0.00     0.000 OA
ATOM     51   O  IDS C   3     135.957  17.804  54.5460  0.00  0.00     0.000 OA
ENDBRANCH 40 47
BRANCH 43 52
ATOM     52   C  IDS C   3     139.794  23.256  56.8880  0.00  0.00     0.000 C
ATOM     53   O  IDS C   3     139.241  23.431  57.9490  0.00  0.00     0.000 OA
ATOM     54   O  IDS C   3     140.869  23.757  56.6720  0.00  0.00     0.000 OA
ENDBRANCH 43 52
BRANCH 39 55
ATOM     55  O4  SGN C   4     136.643  22.480  54.1120  0.00  0.00     0.000 O
BRANCH 55 59
ATOM     56  C1  SGN C   4     134.216  23.603  50.8940  0.00  0.00     0.000 C
ATOM     57  C2  SGN C   4     133.557  23.602  52.2850  0.00  0.00     0.000 C
ATOM     58  C3  SGN C   4     134.615  23.568  53.3850  0.00  0.00     0.000 C
ATOM     59  C4  SGN C   4     135.606  22.435  53.1410  0.00  0.00     0.000 C
ATOM     60  C5  SGN C   4     136.197  22.592  51.7410  0.00  0.00     0.000 C
ATOM     61  O5  SGN C   4     135.120  22.516  50.7860  0.00  0.00     0.000 O
ATOM     62   O  SGN C   4     133.983  23.417  54.6490  0.00  0.00     0.000 O
ATOM     64  HD  SGN C   4     133.395  23.824  54.1590  0.00  0.00     0.000 HD
BRANCH 57 66
ATOM     64   N  SGN C   4     132.216  23.560  51.6800  0.00  0.00     0.000 N
ATOM     66  HD  SGN C   4     131.402  23.490  51.9680  0.00  0.00     0.000 HD
ATOM     66   S  SGN C   4     131.078  24.572  52.1580  0.00  0.00     0.000 S
ATOM     67   O  SGN C   4     129.896  24.249  51.4450  0.00  0.00     0.000 OA
ATOM     68   O  SGN C   4     131.067  24.544  53.5790  0.00  0.00     0.000 OA
ATOM     69   O  SGN C   4     131.602  25.967  51.6880  0.00  0.00     0.000 OA
ENDBRANCH 57 66
BRANCH 60 70
ATOM     70   C  SGN C   4     137.209  21.526  51.3830  0.00  0.00     0.000 C
ATOM     71   O  SGN C   4     136.589  17.834  51.0880  0.00  0.00     0.000 OA
ATOM     72   O  SGN C   4     136.780  19.444  49.2940  0.00  0.00     0.000 OA
ATOM     73   O  SGN C   4     136.649  20.213  51.5740  0.00  0.00     0.000 O
ATOM     74   S  SGN C   4     137.203  19.055  50.6200  0.00  0.00     0.000 S
ATOM     75   O  SGN C   4     138.641  19.084  50.8000  0.00  0.00     0.000 OA
ENDBRANCH 60 70
BRANCH 56 76
ATOM     76  O4  IDS C   5     134.603  24.545  50.0140  0.00  0.00     0.000 O
BRANCH 76 80
ATOM     77  C1  IDS C   5     135.069  27.296  47.0360  0.00  0.00     0.000 C
ATOM     78  C2  IDS C   5     135.501  27.780  48.4200  0.00  0.00     0.000 C
ATOM     79  C3  IDS C   5     135.707  26.592  49.3390  0.00  0.00     0.000 C
ATOM     80  C4  IDS C   5     134.372  25.891  49.5740  0.00  0.00     0.000 C
ATOM     81  C5  IDS C   5     133.558  25.897  48.2710  0.00  0.00     0.000 C
ATOM     82  O5  IDS C   5     134.424  26.027  47.1390  0.00  0.00     0.000 O
BRANCH 78 83
ATOM     83   O  IDS C   5     136.774  28.534  48.3370  0.00  0.00     0.000 O
ATOM     84   S  IDS C   5     136.756  30.129  48.3860  0.00  0.00     0.000 S
ATOM     85   O  IDS C   5     135.756  30.542  47.4370  0.00  0.00     0.000 OA
ATOM     86   O  IDS C   5     136.417  30.462  49.7490  0.00  0.00     0.000 OA
ATOM     87   O  IDS C   5     138.089  30.545  48.0260  0.00  0.00     0.000 OA
ENDBRANCH 78 83
BRANCH 81 88
ATOM     88   C  IDS C   5     132.719  24.650  48.0640  0.00  0.00     0.000 C
ATOM     89   O  IDS C   5     131.671  24.531  48.6400  0.00  0.00     0.000 OA
ATOM     90   O  IDS C   5     133.110  23.782  47.3180  0.00  0.00     0.000 OA
ENDBRANCH 81 88
ENDBRANCH 76 80
ENDBRANCH 56 76
ENDBRANCH 55 59
ENDBRANCH 39 55
ENDBRANCH 38 42
ENDBRANCH 18 38
ENDBRANCH 17 21
ENDBRANCH 1 17
TORSDOF 18
ENDMDL
MODEL 17
REMARK VINA RESULT:      -7.9     18.803     24.097
ROOT
ATOM      1  C1  IDS C   1     142.280  34.541  45.0100  0.00  0.00     0.000 C
ATOM      2  C2  IDS C   1     141.122  33.632  44.5860  0.00  0.00     0.000 C
ATOM      3  C3  IDS C   1     139.798  34.378  44.6510  0.00  0.00     0.000 C
ATOM      4  C4  IDS C   1     139.541  34.895  46.0600  0.00  0.00     0.000 C
ATOM      5  C5  IDS C   1     140.841  35.404  46.6750  0.00  0.00     0.000 C
ATOM      6  O5  IDS C   1     141.784  35.710  45.6480  0.00  0.00     0.000 O
ATOM      7   O  IDS C   1     138.731  33.509  44.2460  0.00  0.00     0.000 O
ATOM      9  HD  IDS C   1     139.022  32.999  43.6100  0.00  0.00     0.000 HD
ENDROOT
BRANCH 2 9
ATOM      9   O  IDS C   1     141.303  33.163  43.1940  0.00  0.00     0.000 O
ATOM     10   S  IDS C   1     141.576  31.616  42.9170  0.00  0.00     0.000 S
ATOM     11   O  IDS C   1     141.690  31.485  41.4810  0.00  0.00     0.000 OA
ATOM     12   O  IDS C   1     142.809  31.308  43.6110  0.00  0.00     0.000 OA
ATOM     13   O  IDS C   1     140.434  30.911  43.4560  0.00  0.00     0.000 OA
ENDBRANCH 2 9
BRANCH 5 14
ATOM     14   C  IDS C   1     140.626  36.649  47.5190  0.00  0.00     0.000 C
ATOM     15   O  IDS C   1     141.388  37.579  47.4090  0.00  0.00     0.000 OA
ATOM     16   O  IDS C   1     139.691  36.697  48.3000  0.00  0.00     0.000 OA
ENDBRANCH 5 14
BRANCH 1 17
ATOM     17  O4  SGN C   2     143.449  34.578  44.3640  0.00  0.00     0.000 O
BRANCH 17 21
ATOM     18  C1  SGN C   2     145.781  36.266  41.3240  0.00  0.00     0.000 C
ATOM     19  C2  SGN C   2     144.286  36.611  41.3160  0.00  0.00     0.000 C
ATOM     20  C3  SGN C   2     143.670  36.287  42.6820  0.00  0.00     0.000 C
ATOM     21  C4  SGN C   2     143.971  34.843  43.0650  0.00  0.00     0.000 C
ATOM     22  C5  SGN C   2     145.481  34.625  43.0420  0.00  0.00     0.000 C
ATOM     23  O5  SGN C   2     145.999  34.930  41.7270  0.00  0.00     0.000 O
ATOM     24   O  SGN C   2     142.273  36.524  42.6500  0.00  0.00     0.000 O
ATOM     26  HD  SGN C   2     143.072  36.537  42.9820  0.00  0.00     0.000 HD
BRANCH 19 28
ATOM     26   N  SGN C   2     144.268  37.808  40.4630  0.00  0.00     0.000 N
ATOM     28  HD  SGN C   2     144.899  37.323  40.1230  0.00  0.00     0.000 HD
ATOM     28   O  SGN C   2     142.969  39.648  39.3910  0.00  0.00     0.000 OA
ATOM     29   S  SGN C   2     143.094  38.087  39.4000  0.00  0.00     0.000 S
ATOM     30   O  SGN C   2     143.557  37.664  38.1340  0.00  0.00     0.000 OA
ATOM     31   O  SGN C   2     141.894  37.539  39.9290  0.00  0.00     0.000 OA
ENDBRANCH 19 28
BRANCH 22 32
ATOM     32   C  SGN C   2     145.885  33.205  43.3510  0.00  0.00     0.000 C
ATOM     33   S  SGN C   2     147.736  31.952  44.6360  0.00  0.00     0.000 S
ATOM     34   O  SGN C   2     148.706  32.177  43.5940  0.00  0.00     0.000 OA
ATOM     35   O  SGN C   2     148.283  32.056  45.9720  0.00  0.00     0.000 OA
ATOM     36   O  SGN C   2     146.921  30.776  44.4380  0.00  0.00     0.000 OA
ATOM     37   O  SGN C   2     146.730  33.185  44.5080  0.00  0.00     0.000 O
ENDBRANCH 22 32
BRANCH 18 38
ATOM     38  O4  IDS C   3     146.816  36.933  41.8380  0.00  0.00     0.000 O
BRANCH 38 42
ATOM     39  C1  IDS C   3     148.502  39.661  43.1960  0.00  0.00     0.000 C
ATOM     40  C2  IDS C   3     147.435  39.852  42.1070  0.00  0.00     0.000 C
ATOM     41  C3  IDS C   3     147.715  38.963  40.8960  0.00  0.00     0.000 C
ATOM     42  C4  IDS C   3     148.010  37.531  41.3210  0.00  0.00     0.000 C
ATOM     43  C5  IDS C   3     149.106  37.522  42.3940  0.00  0.00     0.000 C
ATOM     44  O5  IDS C   3     148.669  38.290  43.5140  0.00  0.00     0.000 O
ATOM     45   O  IDS C   3     148.828  39.489  40.1700  0.00  0.00     0.000 O
ATOM     47  HD  IDS C   3     149.645  39.695  40.3680  0.00  0.00     0.000 HD
BRANCH 40 47
ATOM     47   O  IDS C   3     146.093  39.490  42.6230  0.00  0.00     0.000 O
ATOM     48   S  IDS C   3     144.980  40.623  42.8100  0.00  0.00     0.000 S
ATOM     49   O  IDS C   3     145.335  41.333  44.0200  0.00  0.00     0.000 OA
ATOM     50   O  IDS C   3     143.728  39.910  42.9340  0.00  0.00     0.000 OA
ATOM     51   O  IDS C   3     145.045  41.454  41.6370  0.00  0.00     0.000 OA
ENDBRANCH 40 47
BRANCH 43 52
ATOM     52   C  IDS C   3     149.473  36.126  42.8460  0.00  0.00     0.000 C
ATOM     53   O  IDS C   3     149.348  35.817  44.0090  0.00  0.00     0.000 OA
ATOM     54   O  IDS C   3     149.887  35.328  42.0440  0.00  0.00     0.000 OA
ENDBRANCH 43 52
BRANCH 39 55
ATOM     55  O4  SGN C   4     149.626  40.374  43.2620  0.00  0.00     0.000 O
BRANCH 55 59
ATOM     56  C1  SGN C   4     151.312  41.092  47.0240  0.00  0.00     0.000 C
ATOM     57  C2  SGN C   4     150.047  41.894  46.6720  0.00  0.00     0.000 C
ATOM     58  C3  SGN C   4     149.323  41.271  45.4820  0.00  0.00     0.000 C
ATOM     59  C4  SGN C   4     150.288  41.050  44.3220  0.00  0.00     0.000 C
ATOM     60  C5  SGN C   4     151.467  40.214  44.8170  0.00  0.00     0.000 C
ATOM     61  O5  SGN C   4     152.126  40.942  45.8720  0.00  0.00     0.000 O
ATOM     62   O  SGN C   4     148.247  42.110  45.0860  0.00  0.00     0.000 O
ATOM     64  HD  SGN C   4     148.343  42.265  45.9330  0.00  0.00     0.000 HD
BRANCH 57 66
ATOM     64   N  SGN C   4     149.241  43.007  47.1980  0.00  0.00     0.000 N
ATOM     66  HD  SGN C   4     148.636  43.107  47.8100  0.00  0.00     0.000 HD
ATOM     66   S  SGN C   4     149.233  43.337  48.7600  0.00  0.00     0.000 S
ATOM     67   O  SGN C   4     148.327  44.408  48.9630  0.00  0.00     0.000 OA
ATOM     68   O  SGN C   4     149.027  42.108  49.4440  0.00  0.00     0.000 OA
ATOM     69   O  SGN C   4     150.689  43.829  49.0420  0.00  0.00     0.000 OA
ENDBRANCH 57 66
BRANCH 60 70
ATOM     70   C  SGN C   4     152.496  39.917  43.7480  0.00  0.00     0.000 C
ATOM     71   O  SGN C   4     152.743  36.806  41.6570  0.00  0.00     0.000 OA
ATOM     72   O  SGN C   4     151.833  38.950  41.0080  0.00  0.00     0.000 OA
ATOM     73   O  SGN C   4     152.394  38.546  43.3160  0.00  0.00     0.000 O
ATOM     74   S  SGN C   4     152.811  38.242  41.8020  0.00  0.00     0.000 S
ATOM     75   O  SGN C   4     154.153  38.773  41.6740  0.00  0.00     0.000 OA
ENDBRANCH 60 70
BRANCH 56 76
ATOM     76  O4  IDS C   5     151.609  40.085  47.8660  0.00  0.00     0.000 O
BRANCH 76 80
ATOM     77  C1  IDS C   5     150.967  36.129  47.0960  0.00  0.00     0.000 C
ATOM     78  C2  IDS C   5     149.781  36.851  47.7350  0.00  0.00     0.000 C
ATOM     79  C3  IDS C   5     149.945  38.350  47.5750  0.00  0.00     0.000 C
ATOM     80  C4  IDS C   5     151.159  38.819  48.3710  0.00  0.00     0.000 C
ATOM     81  C5  IDS C   5     152.275  37.771  48.2620  0.00  0.00     0.000 C
ATOM     82  O5  IDS C   5     152.111  36.983  47.0790  0.00  0.00     0.000 O
BRANCH 78 83
ATOM     83   O  IDS C   5     148.511  36.447  47.0880  0.00  0.00     0.000 O
ATOM     84   S  IDS C   5     147.346  35.800  47.9640  0.00  0.00     0.000 S
ATOM     85   O  IDS C   5     147.968  34.770  48.7520  0.00  0.00     0.000 OA
ATOM     86   O  IDS C   5     146.824  36.887  48.7600  0.00  0.00     0.000 OA
ATOM     87   O  IDS C   5     146.382  35.292  47.0190  0.00  0.00     0.000 OA
ENDBRANCH 78 83
BRANCH 81 88
ATOM     88   C  IDS C   5     153.673  38.361  48.2280  0.00  0.00     0.000 C
ATOM     89   O  IDS C   5     154.203  38.706  49.2500  0.00  0.00     0.000 OA
ATOM     90   O  IDS C   5     154.247  38.480  47.1690  0.00  0.00     0.000 OA
ENDBRANCH 81 88
ENDBRANCH 76 80
ENDBRANCH 56 76
ENDBRANCH 55 59
ENDBRANCH 39 55
ENDBRANCH 38 42
ENDBRANCH 18 38
ENDBRANCH 17 21
ENDBRANCH 1 17
TORSDOF 18
ENDMDL
MODEL 18
REMARK VINA RESULT:      -7.9     19.127     24.394
ROOT
ATOM      1  C1  IDS C   1     143.512  35.271  45.3140  0.00  0.00     0.000 C
ATOM      2  C2  IDS C   1     142.687  34.576  44.2270  0.00  0.00     0.000 C
ATOM      3  C3  IDS C   1     141.398  35.339  43.9570  0.00  0.00     0.000 C
ATOM      4  C4  IDS C   1     140.565  35.450  45.2260  0.00  0.00     0.000 C
ATOM      5  C5  IDS C   1     141.471  35.700  46.4280  0.00  0.00     0.000 C
ATOM      6  O5  IDS C   1     142.722  36.236  45.9960  0.00  0.00     0.000 O
ATOM      7   O  IDS C   1     140.645  34.672  42.9340  0.00  0.00     0.000 O
ATOM      9  HD  IDS C   1     141.201  34.348  42.3540  0.00  0.00     0.000 HD
ENDROOT
BRANCH 2 9
ATOM      9   O  IDS C   1     143.441  34.510  42.9550  0.00  0.00     0.000 O
ATOM     10   S  IDS C   1     143.873  33.089  42.3730  0.00  0.00     0.000 S
ATOM     11   O  IDS C   1     144.569  33.363  41.1350  0.00  0.00     0.000 OA
ATOM     12   O  IDS C   1     144.729  32.500  43.3820  0.00  0.00     0.000 OA
ATOM     13   O  IDS C   1     142.645  32.353  42.1750  0.00  0.00     0.000 OA
ENDBRANCH 2 9
BRANCH 5 14
ATOM     14   C  IDS C   1     140.851  36.667  47.4220  0.00  0.00     0.000 C
ATOM     15   O  IDS C   1     139.838  36.356  48.0000  0.00  0.00     0.000 OA
ATOM     16   O  IDS C   1     141.379  37.747  47.6270  0.00  0.00     0.000 OA
ENDBRANCH 5 14
BRANCH 1 17
ATOM     17  O4  SGN C   2     144.836  35.431  45.2310  0.00  0.00     0.000 O
BRANCH 17 21
ATOM     18  C1  SGN C   2     148.083  37.795  44.0500  0.00  0.00     0.000 C
ATOM     19  C2  SGN C   2     146.696  38.246  43.5750  0.00  0.00     0.000 C
ATOM     20  C3  SGN C   2     145.611  37.559  44.4130  0.00  0.00     0.000 C
ATOM     21  C4  SGN C   2     145.811  36.048  44.3950  0.00  0.00     0.000 C
ATOM     22  C5  SGN C   2     147.218  35.727  44.8910  0.00  0.00     0.000 C
ATOM     23  O5  SGN C   2     148.195  36.387  44.0530  0.00  0.00     0.000 O
ATOM     24   O  SGN C   2     144.328  37.907  43.9200  0.00  0.00     0.000 O
ATOM     26  HD  SGN C   2     144.931  37.750  44.5210  0.00  0.00     0.000 HD
BRANCH 19 28
ATOM     26   N  SGN C   2     146.943  39.658  43.2510  0.00  0.00     0.000 N
ATOM     28  HD  SGN C   2     147.703  39.275  43.0940  0.00  0.00     0.000 HD
ATOM     28   O  SGN C   2     146.084  41.831  42.3780  0.00  0.00     0.000 OA
ATOM     29   S  SGN C   2     146.344  40.353  41.9300  0.00  0.00     0.000 S
ATOM     30   O  SGN C   2     147.360  40.350  40.9500  0.00  0.00     0.000 OA
ATOM     31   O  SGN C   2     145.093  39.739  41.6480  0.00  0.00     0.000 OA
ENDBRANCH 19 28
BRANCH 22 32
ATOM     32   C  SGN C   2     147.542  34.253  44.8580  0.00  0.00     0.000 C
ATOM     33   S  SGN C   2     147.424  32.207  46.4210  0.00  0.00     0.000 S
ATOM     34   O  SGN C   2     148.594  32.616  47.1570  0.00  0.00     0.000 OA
ATOM     35   O  SGN C   2     146.387  31.630  47.2510  0.00  0.00     0.000 OA
ATOM     36   O  SGN C   2     147.715  31.429  45.2400  0.00  0.00     0.000 OA
ATOM     37   O  SGN C   2     146.802  33.574  45.8800  0.00  0.00     0.000 O
ENDBRANCH 22 32
BRANCH 18 38
ATOM     38  O4  IDS C   3     148.798  38.179  45.1090  0.00  0.00     0.000 O
BRANCH 38 42
ATOM     39  C1  IDS C   3     150.212  40.063  47.6750  0.00  0.00     0.000 C
ATOM     40  C2  IDS C   3     150.091  40.629  46.2510  0.00  0.00     0.000 C
ATOM     41  C3  IDS C   3     150.690  39.670  45.2220  0.00  0.00     0.000 C
ATOM     42  C4  IDS C   3     150.190  38.249  45.4370  0.00  0.00     0.000 C
ATOM     43  C5  IDS C   3     150.404  37.839  46.8990  0.00  0.00     0.000 C
ATOM     44  O5  IDS C   3     149.698  38.744  47.7460  0.00  0.00     0.000 O
ATOM     45   O  IDS C   3     152.115  39.701  45.3200  0.00  0.00     0.000 O
ATOM     47  HD  IDS C   3     152.687  39.576  45.9580  0.00  0.00     0.000 HD
BRANCH 40 47
ATOM     47   O  IDS C   3     148.667  40.834  45.8920  0.00  0.00     0.000 O
ATOM     48   S  IDS C   3     147.922  42.179  46.3320  0.00  0.00     0.000 S
ATOM     49   O  IDS C   3     147.621  42.025  47.7390  0.00  0.00     0.000 OA
ATOM     50   O  IDS C   3     146.730  42.238  45.5140  0.00  0.00     0.000 OA
ATOM     51   O  IDS C   3     148.840  43.256  46.0730  0.00  0.00     0.000 OA
ENDBRANCH 40 47
BRANCH 43 52
ATOM     52   C  IDS C   3     149.955  36.422  47.1820  0.00  0.00     0.000 C
ATOM     53   O  IDS C   3     149.038  36.222  47.9460  0.00  0.00     0.000 OA
ATOM     54   O  IDS C   3     150.513  35.500  46.6450  0.00  0.00     0.000 OA
ENDBRANCH 43 52
BRANCH 39 55
ATOM     55  O4  SGN C   4     151.261  40.280  48.4690  0.00  0.00     0.000 O
BRANCH 55 59
ATOM     56  C1  SGN C   4     153.070  40.359  52.2410  0.00  0.00     0.000 C
ATOM     57  C2  SGN C   4     153.266  39.079  51.4100  0.00  0.00     0.000 C
ATOM     58  C3  SGN C   4     152.912  39.323  49.9460  0.00  0.00     0.000 C
ATOM     59  C4  SGN C   4     151.533  39.962  49.8260  0.00  0.00     0.000 C
ATOM     60  C5  SGN C   4     151.505  41.232  50.6740  0.00  0.00     0.000 C
ATOM     61  O5  SGN C   4     151.760  40.867  52.0450  0.00  0.00     0.000 O
ATOM     62   O  SGN C   4     152.959  38.095  49.2330  0.00  0.00     0.000 O
ATOM     64  HD  SGN C   4     153.525  37.991  49.8800  0.00  0.00     0.000 HD
BRANCH 57 66
ATOM     64   N  SGN C   4     154.373  38.871  52.3580  0.00  0.00     0.000 N
ATOM     66  HD  SGN C   4     154.514  38.381  53.0580  0.00  0.00     0.000 HD
ATOM     66   S  SGN C   4     154.941  37.406  52.6350  0.00  0.00     0.000 S
ATOM     67   O  SGN C   4     155.947  37.520  53.6270  0.00  0.00     0.000 OA
ATOM     68   O  SGN C   4     153.820  36.563  52.8700  0.00  0.00     0.000 OA
ATOM     69   O  SGN C   4     155.596  36.999  51.2760  0.00  0.00     0.000 OA
ENDBRANCH 57 66
BRANCH 60 70
ATOM     70   C  SGN C   4     150.183  41.967  50.6300  0.00  0.00     0.000 C
ATOM     71   O  SGN C   4     146.928  40.847  52.1320  0.00  0.00     0.000 OA
ATOM     72   O  SGN C   4     148.473  42.484  53.0150  0.00  0.00     0.000 OA
ATOM     73   O  SGN C   4     149.123  41.130  51.1310  0.00  0.00     0.000 O
ATOM     74   S  SGN C   4     147.898  41.877  51.8370  0.00  0.00     0.000 S
ATOM     75   O  SGN C   4     147.437  42.841  50.8570  0.00  0.00     0.000 OA
ENDBRANCH 60 70
BRANCH 56 76
ATOM     76  O4  IDS C   5     153.851  41.384  52.6260  0.00  0.00     0.000 O
BRANCH 76 80
ATOM     77  C1  IDS C   5     155.839  44.032  55.0140  0.00  0.00     0.000 C
ATOM     78  C2  IDS C   5     154.380  43.796  55.4050  0.00  0.00     0.000 C
ATOM     79  C3  IDS C   5     153.877  42.516  54.7670  0.00  0.00     0.000 C
ATOM     80  C4  IDS C   5     153.850  42.677  53.2500  0.00  0.00     0.000 C
ATOM     81  C5  IDS C   5     155.073  43.490  52.8030  0.00  0.00     0.000 C
ATOM     82  O5  IDS C   5     156.123  43.391  53.7700  0.00  0.00     0.000 O
BRANCH 78 83
ATOM     83   O  IDS C   5     154.246  43.672  56.8750  0.00  0.00     0.000 O
ATOM     84   S  IDS C   5     152.956  44.260  57.6060  0.00  0.00     0.000 S
ATOM     85   O  IDS C   5     152.793  45.598  57.1040  0.00  0.00     0.000 OA
ATOM     86   O  IDS C   5     151.874  43.379  57.2340  0.00  0.00     0.000 OA
ATOM     87   O  IDS C   5     153.251  44.213  59.0170  0.00  0.00     0.000 OA
ENDBRANCH 78 83
BRANCH 81 88
ATOM     88   C  IDS C   5     155.643  43.059  51.4640  0.00  0.00     0.000 C
ATOM     89   O  IDS C   5     155.126  43.433  50.4450  0.00  0.00     0.000 OA
ATOM     90   O  IDS C   5     156.615  42.340  51.4300  0.00  0.00     0.000 OA
ENDBRANCH 81 88
ENDBRANCH 76 80
ENDBRANCH 56 76
ENDBRANCH 55 59
ENDBRANCH 39 55
ENDBRANCH 38 42
ENDBRANCH 18 38
ENDBRANCH 17 21
ENDBRANCH 1 17
TORSDOF 18
ENDMDL
MODEL 19
REMARK VINA RESULT:      -7.9     19.148     24.501
ROOT
ATOM      1  C1  IDS C   1     143.475  35.324  45.4150  0.00  0.00     0.000 C
ATOM      2  C2  IDS C   1     142.666  34.600  44.3350  0.00  0.00     0.000 C
ATOM      3  C3  IDS C   1     141.359  35.329  44.0600  0.00  0.00     0.000 C
ATOM      4  C4  IDS C   1     140.524  35.432  45.3280  0.00  0.00     0.000 C
ATOM      5  C5  IDS C   1     141.425  35.714  46.5260  0.00  0.00     0.000 C
ATOM      6  O5  IDS C   1     142.662  36.276  46.0890  0.00  0.00     0.000 O
ATOM      7   O  IDS C   1     140.622  34.635  43.0430  0.00  0.00     0.000 O
ATOM      9  HD  IDS C   1     141.185  34.320  42.4660  0.00  0.00     0.000 HD
ENDROOT
BRANCH 2 9
ATOM      9   O  IDS C   1     143.421  34.541  43.0620  0.00  0.00     0.000 O
ATOM     10   S  IDS C   1     143.891  33.127  42.4960  0.00  0.00     0.000 S
ATOM     11   O  IDS C   1     144.578  33.406  41.2540  0.00  0.00     0.000 OA
ATOM     12   O  IDS C   1     144.763  32.571  43.5100  0.00  0.00     0.000 OA
ATOM     13   O  IDS C   1     142.683  32.355  42.3070  0.00  0.00     0.000 OA
ENDBRANCH 2 9
BRANCH 5 14
ATOM     14   C  IDS C   1     140.782  36.674  47.5130  0.00  0.00     0.000 C
ATOM     15   O  IDS C   1     141.285  37.754  47.7040  0.00  0.00     0.000 OA
ATOM     16   O  IDS C   1     139.768  36.344  48.1050  0.00  0.00     0.000 OA
ENDBRANCH 5 14
BRANCH 1 17
ATOM     17  O4  SGN C   2     144.795  35.515  45.3300  0.00  0.00     0.000 O
BRANCH 17 21
ATOM     18  C1  SGN C   2     148.009  37.907  44.1160  0.00  0.00     0.000 C
ATOM     19  C2  SGN C   2     146.613  38.350  43.6600  0.00  0.00     0.000 C
ATOM     20  C3  SGN C   2     145.544  37.652  44.5100  0.00  0.00     0.000 C
ATOM     21  C4  SGN C   2     145.755  36.143  44.4840  0.00  0.00     0.000 C
ATOM     22  C5  SGN C   2     147.170  35.829  44.9600  0.00  0.00     0.000 C
ATOM     23  O5  SGN C   2     148.131  36.500  44.1120  0.00  0.00     0.000 O
ATOM     24   O  SGN C   2     144.252  37.993  44.0350  0.00  0.00     0.000 O
ATOM     26  HD  SGN C   2     144.864  37.838  44.6270  0.00  0.00     0.000 HD
BRANCH 19 28
ATOM     26   N  SGN C   2     146.847  39.764  43.3350  0.00  0.00     0.000 N
ATOM     28  HD  SGN C   2     147.606  39.384  43.1620  0.00  0.00     0.000 HD
ATOM     28   O  SGN C   2     145.961  41.936  42.4860  0.00  0.00     0.000 OA
ATOM     29   S  SGN C   2     146.218  40.460  42.0290  0.00  0.00     0.000 S
ATOM     30   O  SGN C   2     147.214  40.464  41.0280  0.00  0.00     0.000 OA
ATOM     31   O  SGN C   2     144.964  39.840  41.7710  0.00  0.00     0.000 OA
ENDBRANCH 19 28
BRANCH 22 32
ATOM     32   C  SGN C   2     147.504  34.358  44.9170  0.00  0.00     0.000 C
ATOM     33   S  SGN C   2     147.451  32.312  46.4830  0.00  0.00     0.000 S
ATOM     34   O  SGN C   2     148.640  32.730  47.1820  0.00  0.00     0.000 OA
ATOM     35   O  SGN C   2     146.445  31.728  47.3460  0.00  0.00     0.000 OA
ATOM     36   O  SGN C   2     147.709  31.535  45.2940  0.00  0.00     0.000 OA
ATOM     37   O  SGN C   2     146.802  33.674  45.9610  0.00  0.00     0.000 O
ENDBRANCH 22 32
BRANCH 18 38
ATOM     38  O4  IDS C   3     148.735  38.292  45.1680  0.00  0.00     0.000 O
BRANCH 38 42
ATOM     39  C1  IDS C   3     150.152  40.037  47.8280  0.00  0.00     0.000 C
ATOM     40  C2  IDS C   3     149.991  40.692  46.4460  0.00  0.00     0.000 C
ATOM     41  C3  IDS C   3     150.593  39.818  45.3470  0.00  0.00     0.000 C
ATOM     42  C4  IDS C   3     150.131  38.374  45.4760  0.00  0.00     0.000 C
ATOM     43  C5  IDS C   3     150.381  37.874  46.9040  0.00  0.00     0.000 C
ATOM     44  O5  IDS C   3     149.669  38.704  47.8200  0.00  0.00     0.000 O
ATOM     45   O  IDS C   3     152.019  39.877  45.4230  0.00  0.00     0.000 O
ATOM     47  HD  IDS C   3     152.605  39.725  46.0420  0.00  0.00     0.000 HD
BRANCH 40 47
ATOM     47   O  IDS C   3     148.557  40.886  46.1260  0.00  0.00     0.000 O
ATOM     48   S  IDS C   3     147.896  42.335  46.2770  0.00  0.00     0.000 S
ATOM     49   O  IDS C   3     147.680  42.527  47.6950  0.00  0.00     0.000 OA
ATOM     50   O  IDS C   3     146.658  42.267  45.5320  0.00  0.00     0.000 OA
ATOM     51   O  IDS C   3     148.839  43.271  45.7240  0.00  0.00     0.000 OA
ENDBRANCH 40 47
BRANCH 43 52
ATOM     52   C  IDS C   3     149.970  36.432  47.1010  0.00  0.00     0.000 C
ATOM     53   O  IDS C   3     149.084  36.158  47.8770  0.00  0.00     0.000 OA
ATOM     54   O  IDS C   3     150.528  35.562  46.4820  0.00  0.00     0.000 OA
ENDBRANCH 43 52
BRANCH 39 55
ATOM     55  O4  SGN C   4     151.209  40.228  48.6170  0.00  0.00     0.000 O
BRANCH 55 59
ATOM     56  C1  SGN C   4     153.097  40.199  52.3500  0.00  0.00     0.000 C
ATOM     57  C2  SGN C   4     153.132  38.884  51.5520  0.00  0.00     0.000 C
ATOM     58  C3  SGN C   4     152.775  39.130  50.0890  0.00  0.00     0.000 C
ATOM     59  C4  SGN C   4     151.474  39.916  49.9780  0.00  0.00     0.000 C
ATOM     60  C5  SGN C   4     151.606  41.202  50.7900  0.00  0.00     0.000 C
ATOM     61  O5  SGN C   4     151.849  40.846  52.1660  0.00  0.00     0.000 O
ATOM     62   O  SGN C   4     152.669  37.886  49.4100  0.00  0.00     0.000 O
ATOM     64  HD  SGN C   4     153.234  37.736  50.0490  0.00  0.00     0.000 HD
BRANCH 57 66
ATOM     64   N  SGN C   4     154.242  37.920  51.5020  0.00  0.00     0.000 N
ATOM     66  HD  SGN C   4     154.966  37.775  51.9550  0.00  0.00     0.000 HD
ATOM     66   S  SGN C   4     154.635  37.066  52.7910  0.00  0.00     0.000 S
ATOM     67   O  SGN C   4     155.767  36.282  52.4530  0.00  0.00     0.000 OA
ATOM     68   O  SGN C   4     154.715  37.974  53.8830  0.00  0.00     0.000 OA
ATOM     69   O  SGN C   4     153.403  36.131  53.0060  0.00  0.00     0.000 OA
ENDBRANCH 57 66
BRANCH 60 70
ATOM     70   C  SGN C   4     150.374  42.080  50.7500  0.00  0.00     0.000 C
ATOM     71   O  SGN C   4     146.944  41.209  52.0080  0.00  0.00     0.000 OA
ATOM     72   O  SGN C   4     148.605  42.591  53.0940  0.00  0.00     0.000 OA
ATOM     73   O  SGN C   4     149.206  41.328  51.1320  0.00  0.00     0.000 O
ATOM     74   S  SGN C   4     148.031  42.146  51.8440  0.00  0.00     0.000 S
ATOM     75   O  SGN C   4     147.728  43.229  50.9300  0.00  0.00     0.000 OA
ENDBRANCH 60 70
BRANCH 56 76
ATOM     76  O4  IDS C   5     153.996  41.140  52.6930  0.00  0.00     0.000 O
BRANCH 76 80
ATOM     77  C1  IDS C   5     156.921  43.918  53.3170  0.00  0.00     0.000 C
ATOM     78  C2  IDS C   5     157.244  42.889  52.2330  0.00  0.00     0.000 C
ATOM     79  C3  IDS C   5     155.970  42.205  51.7780  0.00  0.00     0.000 C
ATOM     80  C4  IDS C   5     155.391  41.386  52.9280  0.00  0.00     0.000 C
ATOM     81  C5  IDS C   5     155.586  42.151  54.2450  0.00  0.00     0.000 C
ATOM     82  O5  IDS C   5     155.720  43.554  53.9960  0.00  0.00     0.000 O
BRANCH 78 83
ATOM     83   O  IDS C   5     157.869  43.543  51.0600  0.00  0.00     0.000 O
ATOM     84   S  IDS C   5     159.214  42.948  50.4430  0.00  0.00     0.000 S
ATOM     85   O  IDS C   5     160.103  42.744  51.5550  0.00  0.00     0.000 OA
ATOM     86   O  IDS C   5     158.822  41.717  49.7970  0.00  0.00     0.000 OA
ATOM     87   O  IDS C   5     159.689  43.939  49.5090  0.00  0.00     0.000 OA
ENDBRANCH 78 83
BRANCH 81 88
ATOM     88   C  IDS C   5     154.451  41.969  55.2370  0.00  0.00     0.000 C
ATOM     89   O  IDS C   5     153.582  42.796  55.3110  0.00  0.00     0.000 OA
ATOM     90   O  IDS C   5     154.428  40.990  55.9470  0.00  0.00     0.000 OA
ENDBRANCH 81 88
ENDBRANCH 76 80
ENDBRANCH 56 76
ENDBRANCH 55 59
ENDBRANCH 39 55
ENDBRANCH 38 42
ENDBRANCH 18 38
ENDBRANCH 17 21
ENDBRANCH 1 17
TORSDOF 18
ENDMDL
MODEL 20
REMARK VINA RESULT:      -7.9      4.857     14.109
ROOT
ATOM      1  C1  IDS C   1     131.223  22.256  60.6170  0.00  0.00     0.000 C
ATOM      2  C2  IDS C   1     130.405  22.754  61.8120  0.00  0.00     0.000 C
ATOM      3  C3  IDS C   1     128.933  22.872  61.4470  0.00  0.00     0.000 C
ATOM      4  C4  IDS C   1     128.745  23.828  60.2770  0.00  0.00     0.000 C
ATOM      5  C5  IDS C   1     129.865  23.636  59.2600  0.00  0.00     0.000 C
ATOM      6  O5  IDS C   1     130.460  22.349  59.4210  0.00  0.00     0.000 O
ATOM      7   O  IDS C   1     128.188  23.336  62.5820  0.00  0.00     0.000 O
ATOM      9  HD  IDS C   1     128.531  22.984  63.2950  0.00  0.00     0.000 HD
ENDROOT
BRANCH 2 9
ATOM      9   O  IDS C   1     130.509  21.813  62.9500  0.00  0.00     0.000 O
ATOM     10   S  IDS C   1     131.111  22.323  64.3360  0.00  0.00     0.000 S
ATOM     11   O  IDS C   1     131.063  21.188  65.2310  0.00  0.00     0.000 OA
ATOM     12   O  IDS C   1     132.462  22.752  64.0400  0.00  0.00     0.000 OA
ATOM     13   O  IDS C   1     130.255  23.409  64.7620  0.00  0.00     0.000 OA
ENDBRANCH 2 9
BRANCH 5 14
ATOM     14   C  IDS C   1     129.369  23.762  57.8290  0.00  0.00     0.000 C
ATOM     15   O  IDS C   1     130.156  24.000  56.9460  0.00  0.00     0.000 OA
ATOM     16   O  IDS C   1     128.182  23.624  57.5860  0.00  0.00     0.000 OA
ENDBRANCH 5 14
BRANCH 1 17
ATOM     17  O4  SGN C   2     132.183  21.333  60.7260  0.00  0.00     0.000 O
BRANCH 17 21
ATOM     18  C1  SGN C   2     133.858  17.574  59.9550  0.00  0.00     0.000 C
ATOM     19  C2  SGN C   2     132.570  17.921  59.1970  0.00  0.00     0.000 C
ATOM     20  C3  SGN C   2     132.327  19.434  59.2520  0.00  0.00     0.000 C
ATOM     21  C4  SGN C   2     132.344  19.917  60.6970  0.00  0.00     0.000 C
ATOM     22  C5  SGN C   2     133.670  19.519  61.3390  0.00  0.00     0.000 C
ATOM     23  O5  SGN C   2     133.834  18.084  61.2720  0.00  0.00     0.000 O
ATOM     24   O  SGN C   2     131.093  19.747  58.6270  0.00  0.00     0.000 O
ATOM     26  HD  SGN C   2     131.930  19.847  58.8240  0.00  0.00     0.000 HD
BRANCH 19 28
ATOM     26   N  SGN C   2     132.600  16.939  58.1050  0.00  0.00     0.000 N
ATOM     28  HD  SGN C   2     132.935  16.509  58.7780  0.00  0.00     0.000 HD
ATOM     28   O  SGN C   2     131.569  16.022  56.0270  0.00  0.00     0.000 OA
ATOM     29   S  SGN C   2     131.268  16.231  57.5490  0.00  0.00     0.000 S
ATOM     30   O  SGN C   2     131.169  14.965  58.1680  0.00  0.00     0.000 OA
ATOM     31   O  SGN C   2     130.200  17.161  57.6760  0.00  0.00     0.000 OA
ENDBRANCH 19 28
BRANCH 22 32
ATOM     32   C  SGN C   2     133.768  19.901  62.7960  0.00  0.00     0.000 C
ATOM     33   S  SGN C   2     135.589  20.393  64.5520  0.00  0.00     0.000 S
ATOM     34   O  SGN C   2     135.894  18.995  64.7280  0.00  0.00     0.000 OA
ATOM     35   O  SGN C   2     136.755  21.251  64.5830  0.00  0.00     0.000 OA
ATOM     36   O  SGN C   2     134.505  20.867  65.3800  0.00  0.00     0.000 OA
ATOM     37   O  SGN C   2     135.047  20.492  63.0540  0.00  0.00     0.000 O
ENDBRANCH 22 32
BRANCH 18 38
ATOM     38  O4  IDS C   3     135.134  17.693  59.5840  0.00  0.00     0.000 O
BRANCH 38 42
ATOM     39  C1  IDS C   3     137.848  18.123  57.4440  0.00  0.00     0.000 C
ATOM     40  C2  IDS C   3     136.615  17.315  57.0070  0.00  0.00     0.000 C
ATOM     41  C3  IDS C   3     136.269  16.236  58.0330  0.00  0.00     0.000 C
ATOM     42  C4  IDS C   3     136.249  16.805  59.4450  0.00  0.00     0.000 C
ATOM     43  C5  IDS C   3     137.556  17.559  59.7200  0.00  0.00     0.000 C
ATOM     44  O5  IDS C   3     137.698  18.610  58.7670  0.00  0.00     0.000 O
ATOM     45   O  IDS C   3     137.229  15.181  57.9520  0.00  0.00     0.000 O
ATOM     47  HD  IDS C   3     138.092  15.134  58.0040  0.00  0.00     0.000 HD
BRANCH 40 47
ATOM     47   O  IDS C   3     135.433  18.200  56.8770  0.00  0.00     0.000 O
ATOM     48   S  IDS C   3     135.191  19.008  55.5180  0.00  0.00     0.000 S
ATOM     49   O  IDS C   3     136.113  20.123  55.5490  0.00  0.00     0.000 OA
ATOM     50   O  IDS C   3     133.809  19.432  55.5690  0.00  0.00     0.000 OA
ATOM     51   O  IDS C   3     135.462  18.090  54.4450  0.00  0.00     0.000 OA
ENDBRANCH 40 47
BRANCH 43 52
ATOM     52   C  IDS C   3     137.619  18.130  61.1200  0.00  0.00     0.000 C
ATOM     53   O  IDS C   3     137.171  17.500  62.0490  0.00  0.00     0.000 OA
ATOM     54   O  IDS C   3     138.118  19.212  61.3010  0.00  0.00     0.000 OA
ENDBRANCH 43 52
BRANCH 39 55
ATOM     55  O4  SGN C   4     139.099  17.789  57.1270  0.00  0.00     0.000 O
BRANCH 55 59
ATOM     56  C1  SGN C   4     141.934  20.860  56.9210  0.00  0.00     0.000 C
ATOM     57  C2  SGN C   4     140.971  20.731  55.7280  0.00  0.00     0.000 C
ATOM     58  C3  SGN C   4     139.769  19.864  56.0930  0.00  0.00     0.000 C
ATOM     59  C4  SGN C   4     140.225  18.541  56.6970  0.00  0.00     0.000 C
ATOM     60  C5  SGN C   4     141.141  18.833  57.8830  0.00  0.00     0.000 C
ATOM     61  O5  SGN C   4     142.282  19.572  57.4040  0.00  0.00     0.000 O
ATOM     62   O  SGN C   4     138.975  19.640  54.9350  0.00  0.00     0.000 O
ATOM     64  HD  SGN C   4     139.357  20.404  54.7920  0.00  0.00     0.000 HD
BRANCH 57 66
ATOM     64   N  SGN C   4     140.944  22.176  55.4490  0.00  0.00     0.000 N
ATOM     66  HD  SGN C   4     141.499  22.763  55.1360  0.00  0.00     0.000 HD
ATOM     66   S  SGN C   4     141.330  22.731  54.0040  0.00  0.00     0.000 S
ATOM     67   O  SGN C   4     141.271  24.147  54.0630  0.00  0.00     0.000 OA
ATOM     68   O  SGN C   4     142.546  22.098  53.6250  0.00  0.00     0.000 OA
ATOM     69   O  SGN C   4     140.183  22.202  53.0850  0.00  0.00     0.000 OA
ENDBRANCH 57 66
BRANCH 60 70
ATOM     70   C  SGN C   4     141.655  17.590  58.5780  0.00  0.00     0.000 C
ATOM     71   O  SGN C   4     143.258  14.602  56.9630  0.00  0.00     0.000 OA
ATOM     72   O  SGN C   4     144.357  16.415  58.1270  0.00  0.00     0.000 OA
ATOM     73   O  SGN C   4     142.009  16.581  57.6120  0.00  0.00     0.000 O
ATOM     74   S  SGN C   4     143.183  15.578  58.0260  0.00  0.00     0.000 S
ATOM     75   O  SGN C   4     142.762  15.018  59.2950  0.00  0.00     0.000 OA
ENDBRANCH 60 70
BRANCH 56 76
ATOM     76  O4  IDS C   5     142.102  21.732  57.9310  0.00  0.00     0.000 O
BRANCH 76 80
ATOM     77  C1  IDS C   5     145.999  21.979  59.1210  0.00  0.00     0.000 C
ATOM     78  C2  IDS C   5     145.036  21.485  60.2000  0.00  0.00     0.000 C
ATOM     79  C3  IDS C   5     143.744  21.016  59.5610  0.00  0.00     0.000 C
ATOM     80  C4  IDS C   5     143.031  22.203  58.9200  0.00  0.00     0.000 C
ATOM     81  C5  IDS C   5     144.069  23.135  58.2800  0.00  0.00     0.000 C
ATOM     82  O5  IDS C   5     145.268  22.417  57.9750  0.00  0.00     0.000 O
BRANCH 78 83
ATOM     83   O  IDS C   5     145.626  20.352  60.9500  0.00  0.00     0.000 O
ATOM     84   S  IDS C   5     146.509  20.634  62.2480  0.00  0.00     0.000 S
ATOM     85   O  IDS C   5     147.451  21.655  61.8720  0.00  0.00     0.000 OA
ATOM     86   O  IDS C   5     145.571  21.071  63.2560  0.00  0.00     0.000 OA
ATOM     87   O  IDS C   5     147.134  19.376  62.5770  0.00  0.00     0.000 OA
ENDBRANCH 78 83
BRANCH 81 88
ATOM     88   C  IDS C   5     143.595  23.799  57.0000  0.00  0.00     0.000 C
ATOM     89   O  IDS C   5     144.247  23.696  55.9950  0.00  0.00     0.000 OA
ATOM     90   O  IDS C   5     142.562  24.427  56.9990  0.00  0.00     0.000 OA
ENDBRANCH 81 88
ENDBRANCH 76 80
ENDBRANCH 56 76
ENDBRANCH 55 59
ENDBRANCH 39 55
ENDBRANCH 38 42
ENDBRANCH 18 38
ENDBRANCH 17 21
ENDBRANCH 1 17
TORSDOF 18
ENDMDL
MODEL 21
REMARK VINA RESULT:      -7.8      5.000     11.234
ROOT
ATOM      1  C1  IDS C   1     147.022  19.448  59.4350  0.00  0.00     0.000 C
ATOM      2  C2  IDS C   1     146.162  20.715  59.4730  0.00  0.00     0.000 C
ATOM      3  C3  IDS C   1     146.701  21.704  60.4960  0.00  0.00     0.000 C
ATOM      4  C4  IDS C   1     146.733  21.077  61.8830  0.00  0.00     0.000 C
ATOM      5  C5  IDS C   1     147.172  19.619  61.7890  0.00  0.00     0.000 C
ATOM      6  O5  IDS C   1     147.879  19.397  60.5690  0.00  0.00     0.000 O
ATOM      7   O  IDS C   1     145.883  22.882  60.5090  0.00  0.00     0.000 O
ATOM      9  HD  IDS C   1     145.626  23.044  59.6980  0.00  0.00     0.000 HD
ENDROOT
BRANCH 2 9
ATOM      9   O  IDS C   1     146.162  21.391  58.1560  0.00  0.00     0.000 O
ATOM     10   S  IDS C   1     144.779  21.629  57.3980  0.00  0.00     0.000 S
ATOM     11   O  IDS C   1     145.114  22.313  56.1680  0.00  0.00     0.000 OA
ATOM     12   O  IDS C   1     144.224  20.310  57.1760  0.00  0.00     0.000 OA
ATOM     13   O  IDS C   1     143.976  22.438  58.2880  0.00  0.00     0.000 OA
ENDBRANCH 2 9
BRANCH 5 14
ATOM     14   C  IDS C   1     148.070  19.215  62.9460  0.00  0.00     0.000 C
ATOM     15   O  IDS C   1     147.599  19.104  64.0520  0.00  0.00     0.000 OA
ATOM     16   O  IDS C   1     149.255  19.009  62.7490  0.00  0.00     0.000 OA
ENDBRANCH 5 14
BRANCH 1 17
ATOM     17  O4  SGN C   2     147.384  18.848  58.2980  0.00  0.00     0.000 O
BRANCH 17 21
ATOM     18  C1  SGN C   2     150.110  18.131  55.2030  0.00  0.00     0.000 C
ATOM     19  C2  SGN C   2     150.571  19.077  56.3190  0.00  0.00     0.000 C
ATOM     20  C3  SGN C   2     149.672  18.905  57.5490  0.00  0.00     0.000 C
ATOM     21  C4  SGN C   2     148.209  19.075  57.1580  0.00  0.00     0.000 C
ATOM     22  C5  SGN C   2     147.871  18.082  56.0500  0.00  0.00     0.000 C
ATOM     23  O5  SGN C   2     148.738  18.304  54.9140  0.00  0.00     0.000 O
ATOM     24   O  SGN C   2     150.042  19.839  58.5500  0.00  0.00     0.000 O
ATOM     26  HD  SGN C   2     149.800  19.070  58.2320  0.00  0.00     0.000 HD
BRANCH 19 28
ATOM     26   N  SGN C   2     152.024  19.103  56.1010  0.00  0.00     0.000 N
ATOM     28  HD  SGN C   2     151.696  19.104  55.3000  0.00  0.00     0.000 HD
ATOM     28   O  SGN C   2     154.286  19.833  56.8600  0.00  0.00     0.000 OA
ATOM     29   S  SGN C   2     152.912  20.414  56.3830  0.00  0.00     0.000 S
ATOM     30   O  SGN C   2     153.103  21.071  55.1480  0.00  0.00     0.000 OA
ATOM     31   O  SGN C   2     152.314  21.114  57.4670  0.00  0.00     0.000 OA
ENDBRANCH 19 28
BRANCH 22 32
ATOM     32   C  SGN C   2     146.454  18.207  55.5460  0.00  0.00     0.000 C
ATOM     33   S  SGN C   2     145.211  18.985  53.4260  0.00  0.00     0.000 S
ATOM     34   O  SGN C   2     145.395  20.378  53.7460  0.00  0.00     0.000 OA
ATOM     35   O  SGN C   2     145.344  18.690  52.0150  0.00  0.00     0.000 OA
ATOM     36   O  SGN C   2     144.041  18.391  54.0300  0.00  0.00     0.000 OA
ATOM     37   O  SGN C   2     146.454  18.256  54.1140  0.00  0.00     0.000 O
ENDBRANCH 22 32
BRANCH 18 38
ATOM     38  O4  IDS C   3     150.312  16.821  55.0450  0.00  0.00     0.000 O
BRANCH 38 42
ATOM     39  C1  IDS C   3     151.351  13.501  55.2090  0.00  0.00     0.000 C
ATOM     40  C2  IDS C   3     152.365  14.640  55.0120  0.00  0.00     0.000 C
ATOM     41  C3  IDS C   3     151.965  15.540  53.8440  0.00  0.00     0.000 C
ATOM     42  C4  IDS C   3     150.498  15.938  53.9330  0.00  0.00     0.000 C
ATOM     43  C5  IDS C   3     149.630  14.687  54.1070  0.00  0.00     0.000 C
ATOM     44  O5  IDS C   3     150.028  14.004  55.2940  0.00  0.00     0.000 O
ATOM     45   O  IDS C   3     152.205  14.854  52.6140  0.00  0.00     0.000 O
ATOM     47  HD  IDS C   3     151.958  14.094  52.2790  0.00  0.00     0.000 HD
BRANCH 40 47
ATOM     47   O  IDS C   3     152.436  15.489  56.2250  0.00  0.00     0.000 O
ATOM     48   S  IDS C   3     153.859  15.940  56.7990  0.00  0.00     0.000 S
ATOM     49   O  IDS C   3     154.393  14.785  57.4880  0.00  0.00     0.000 OA
ATOM     50   O  IDS C   3     153.576  17.038  57.6970  0.00  0.00     0.000 OA
ATOM     51   O  IDS C   3     154.651  16.327  55.6630  0.00  0.00     0.000 OA
ENDBRANCH 40 47
BRANCH 43 52
ATOM     52   C  IDS C   3     148.152  15.004  54.1750  0.00  0.00     0.000 C
ATOM     53   O  IDS C   3     147.515  14.703  55.1580  0.00  0.00     0.000 OA
ATOM     54   O  IDS C   3     147.617  15.556  53.2480  0.00  0.00     0.000 OA
ENDBRANCH 43 52
BRANCH 39 55
ATOM     55  O4  SGN C   4     151.444  12.316  54.6050  0.00  0.00     0.000 O
BRANCH 55 59
ATOM     56  C1  SGN C   4     148.981   9.263  56.0600  0.00  0.00     0.000 C
ATOM     57  C2  SGN C   4     150.281   9.528  56.8390  0.00  0.00     0.000 C
ATOM     58  C3  SGN C   4     150.873  10.883  56.4610  0.00  0.00     0.000 C
ATOM     59  C4  SGN C   4     150.992  11.014  54.9470  0.00  0.00     0.000 C
ATOM     60  C5  SGN C   4     149.621  10.758  54.3220  0.00  0.00     0.000 C
ATOM     61  O5  SGN C   4     149.209   9.421  54.6690  0.00  0.00     0.000 O
ATOM     62   O  SGN C   4     152.143  11.037  57.0790  0.00  0.00     0.000 O
ATOM     64  HD  SGN C   4     151.707  10.510  57.6090  0.00  0.00     0.000 HD
BRANCH 57 66
ATOM     64   N  SGN C   4     149.574   8.740  57.8620  0.00  0.00     0.000 N
ATOM     66  HD  SGN C   4     149.632   7.939  58.1850  0.00  0.00     0.000 HD
ATOM     66   S  SGN C   4     150.381   8.038  59.0460  0.00  0.00     0.000 S
ATOM     67   O  SGN C   4     149.445   7.311  59.8240  0.00  0.00     0.000 OA
ATOM     68   O  SGN C   4     151.478   7.354  58.4530  0.00  0.00     0.000 OA
ATOM     69   O  SGN C   4     150.931   9.237  59.8820  0.00  0.00     0.000 OA
ENDBRANCH 57 66
BRANCH 60 70
ATOM     70   C  SGN C   4     149.608  10.869  52.8130  0.00  0.00     0.000 C
ATOM     71   O  SGN C   4     147.732  13.389  50.7540  0.00  0.00     0.000 OA
ATOM     72   O  SGN C   4     150.084  13.401  51.3160  0.00  0.00     0.000 OA
ATOM     73   O  SGN C   4     148.614  11.821  52.3860  0.00  0.00     0.000 O
ATOM     74   S  SGN C   4     148.914  12.604  51.0250  0.00  0.00     0.000 S
ATOM     75   O  SGN C   4     149.154  11.564  50.0440  0.00  0.00     0.000 OA
ENDBRANCH 60 70
BRANCH 56 76
ATOM     76  O4  IDS C   5     147.669   9.462  56.2830  0.00  0.00     0.000 O
BRANCH 76 80
ATOM     77  C1  IDS C   5     143.829  10.815  56.5780  0.00  0.00     0.000 C
ATOM     78  C2  IDS C   5     144.897  11.897  56.7350  0.00  0.00     0.000 C
ATOM     79  C3  IDS C   5     146.219  11.400  56.1840  0.00  0.00     0.000 C
ATOM     80  C4  IDS C   5     146.720  10.235  57.0330  0.00  0.00     0.000 C
ATOM     81  C5  IDS C   5     145.529   9.362  57.4530  0.00  0.00     0.000 C
ATOM     82  O5  IDS C   5     144.440   9.525  56.5400  0.00  0.00     0.000 O
BRANCH 78 83
ATOM     83   O  IDS C   5     144.513  13.123  55.9960  0.00  0.00     0.000 O
ATOM     84   S  IDS C   5     143.993  14.401  56.7970  0.00  0.00     0.000 S
ATOM     85   O  IDS C   5     142.992  13.917  57.7080  0.00  0.00     0.000 OA
ATOM     86   O  IDS C   5     145.160  14.930  57.4630  0.00  0.00     0.000 OA
ATOM     87   O  IDS C   5     143.468  15.300  55.7980  0.00  0.00     0.000 OA
ENDBRANCH 78 83
BRANCH 81 88
ATOM     88   C  IDS C   5     145.848   7.880  57.5250  0.00  0.00     0.000 C
ATOM     89   O  IDS C   5     146.573   7.464  58.3890  0.00  0.00     0.000 OA
ATOM     90   O  IDS C   5     145.368   7.124  56.7110  0.00  0.00     0.000 OA
ENDBRANCH 81 88
ENDBRANCH 76 80
ENDBRANCH 56 76
ENDBRANCH 55 59
ENDBRANCH 39 55
ENDBRANCH 38 42
ENDBRANCH 18 38
ENDBRANCH 17 21
ENDBRANCH 1 17
TORSDOF 18
ENDMDL
MODEL 22
REMARK VINA RESULT:      -7.8     16.012     22.790
ROOT
ATOM      1  C1  IDS C   1     134.748  32.780  45.7520  0.00  0.00     0.000 C
ATOM      2  C2  IDS C   1     133.784  31.591  45.7910  0.00  0.00     0.000 C
ATOM      3  C3  IDS C   1     132.529  31.885  44.9820  0.00  0.00     0.000 C
ATOM      4  C4  IDS C   1     131.823  33.123  45.5190  0.00  0.00     0.000 C
ATOM      5  C5  IDS C   1     132.848  34.178  45.9210  0.00  0.00     0.000 C
ATOM      6  O5  IDS C   1     134.088  33.937  45.2550  0.00  0.00     0.000 O
ATOM      7   O  IDS C   1     131.645  30.757  45.0310  0.00  0.00     0.000 O
ATOM      9  HD  IDS C   1     132.124  30.035  45.0230  0.00  0.00     0.000 HD
ENDROOT
BRANCH 2 9
ATOM      9   O  IDS C   1     134.414  30.383  45.2130  0.00  0.00     0.000 O
ATOM     10   S  IDS C   1     134.647  29.103  46.1360  0.00  0.00     0.000 S
ATOM     11   O  IDS C   1     135.257  28.106  45.2850  0.00  0.00     0.000 OA
ATOM     12   O  IDS C   1     135.521  29.545  47.2030  0.00  0.00     0.000 OA
ATOM     13   O  IDS C   1     133.336  28.712  46.6070  0.00  0.00     0.000 OA
ENDBRANCH 2 9
BRANCH 5 14
ATOM     14   C  IDS C   1     132.385  35.585  45.5840  0.00  0.00     0.000 C
ATOM     15   O  IDS C   1     132.955  36.530  46.0730  0.00  0.00     0.000 OA
ATOM     16   O  IDS C   1     131.444  35.747  44.8270  0.00  0.00     0.000 OA
ENDBRANCH 5 14
BRANCH 1 17
ATOM     17  O4  SGN C   2     136.067  32.643  45.5870  0.00  0.00     0.000 O
BRANCH 17 21
ATOM     18  C1  SGN C   2     139.481  32.458  43.1710  0.00  0.00     0.000 C
ATOM     19  C2  SGN C   2     138.146  32.702  42.4570  0.00  0.00     0.000 C
ATOM     20  C3  SGN C   2     137.090  33.161  43.4700  0.00  0.00     0.000 C
ATOM     21  C4  SGN C   2     137.003  32.168  44.6230  0.00  0.00     0.000 C
ATOM     22  C5  SGN C   2     138.384  32.014  45.2530  0.00  0.00     0.000 C
ATOM     23  O5  SGN C   2     139.330  31.565  44.2550  0.00  0.00     0.000 O
ATOM     24   O  SGN C   2     135.835  33.304  42.8270  0.00  0.00     0.000 O
ATOM     26  HD  SGN C   2     136.481  33.518  43.3620  0.00  0.00     0.000 HD
BRANCH 19 28
ATOM     26   N  SGN C   2     138.600  33.242  41.1670  0.00  0.00     0.000 N
ATOM     28  HD  SGN C   2     139.216  32.672  41.3800  0.00  0.00     0.000 HD
ATOM     28   O  SGN C   2     138.036  34.159  38.9170  0.00  0.00     0.000 OA
ATOM     29   S  SGN C   2     137.888  32.859  39.7770  0.00  0.00     0.000 S
ATOM     30   O  SGN C   2     138.650  31.832  39.1780  0.00  0.00     0.000 OA
ATOM     31   O  SGN C   2     136.508  32.646  40.0440  0.00  0.00     0.000 OA
ENDBRANCH 19 28
BRANCH 22 32
ATOM     32   C  SGN C   2     138.422  31.004  46.3740  0.00  0.00     0.000 C
ATOM     33   S  SGN C   2     139.466  28.702  46.8750  0.00  0.00     0.000 S
ATOM     34   O  SGN C   2     138.498  28.010  46.0610  0.00  0.00     0.000 OA
ATOM     35   O  SGN C   2     140.804  28.158  46.7740  0.00  0.00     0.000 OA
ATOM     36   O  SGN C   2     139.038  28.929  48.2350  0.00  0.00     0.000 OA
ATOM     37   O  SGN C   2     139.564  30.154  46.2190  0.00  0.00     0.000 O
ENDBRANCH 22 32
BRANCH 18 38
ATOM     38  O4  IDS C   3     140.405  33.325  43.5920  0.00  0.00     0.000 O
BRANCH 38 42
ATOM     39  C1  IDS C   3     142.936  35.072  45.2260  0.00  0.00     0.000 C
ATOM     40  C2  IDS C   3     141.592  35.744  44.9020  0.00  0.00     0.000 C
ATOM     41  C3  IDS C   3     141.235  35.583  43.4250  0.00  0.00     0.000 C
ATOM     42  C4  IDS C   3     141.405  34.139  42.9710  0.00  0.00     0.000 C
ATOM     43  C5  IDS C   3     142.802  33.635  43.3540  0.00  0.00     0.000 C
ATOM     44  O5  IDS C   3     142.960  33.730  44.7690  0.00  0.00     0.000 O
ATOM     45   O  IDS C   3     142.071  36.436  42.6410  0.00  0.00     0.000 O
ATOM     47  HD  IDS C   3     142.926  36.544  42.5540  0.00  0.00     0.000 HD
BRANCH 40 47
ATOM     47   O  IDS C   3     140.499  35.129  45.6930  0.00  0.00     0.000 O
ATOM     48   S  IDS C   3     140.491  35.273  47.2850  0.00  0.00     0.000 S
ATOM     49   O  IDS C   3     141.474  34.330  47.7740  0.00  0.00     0.000 OA
ATOM     50   O  IDS C   3     139.146  34.931  47.6920  0.00  0.00     0.000 OA
ATOM     51   O  IDS C   3     140.839  36.639  47.5720  0.00  0.00     0.000 OA
ENDBRANCH 40 47
BRANCH 43 52
ATOM     52   C  IDS C   3     143.054  32.212  42.9090  0.00  0.00     0.000 C
ATOM     53   O  IDS C   3     142.744  31.866  41.7920  0.00  0.00     0.000 OA
ATOM     54   O  IDS C   3     143.563  31.429  43.6700  0.00  0.00     0.000 OA
ENDBRANCH 43 52
BRANCH 39 55
ATOM     55  O4  SGN C   4     144.111  35.695  45.1440  0.00  0.00     0.000 O
BRANCH 55 59
ATOM     56  C1  SGN C   4     147.204  37.560  43.0320  0.00  0.00     0.000 C
ATOM     57  C2  SGN C   4     145.850  38.290  43.0560  0.00  0.00     0.000 C
ATOM     58  C3  SGN C   4     144.952  37.730  44.1560  0.00  0.00     0.000 C
ATOM     59  C4  SGN C   4     144.863  36.211  44.0540  0.00  0.00     0.000 C
ATOM     60  C5  SGN C   4     146.276  35.633  44.0760  0.00  0.00     0.000 C
ATOM     61  O5  SGN C   4     146.998  36.159  42.9450  0.00  0.00     0.000 O
ATOM     62   O  SGN C   4     143.661  38.316  44.0610  0.00  0.00     0.000 O
ATOM     64  HD  SGN C   4     144.195  38.914  43.7350  0.00  0.00     0.000 HD
BRANCH 57 66
ATOM     64   N  SGN C   4     146.283  39.100  41.9060  0.00  0.00     0.000 N
ATOM     66  HD  SGN C   4     145.913  39.667  41.3660  0.00  0.00     0.000 HD
ATOM     66   S  SGN C   4     146.043  40.678  41.8880  0.00  0.00     0.000 S
ATOM     67   O  SGN C   4     146.505  41.164  40.6390  0.00  0.00     0.000 OA
ATOM     68   O  SGN C   4     144.690  40.897  42.2670  0.00  0.00     0.000 OA
ATOM     69   O  SGN C   4     146.973  41.207  43.0270  0.00  0.00     0.000 OA
ENDBRANCH 57 66
BRANCH 60 70
ATOM     70   C  SGN C   4     146.320  34.123  43.9910  0.00  0.00     0.000 C
ATOM     71   O  SGN C   4     148.137  31.785  46.3010  0.00  0.00     0.000 OA
ATOM     72   O  SGN C   4     145.774  32.299  46.2830  0.00  0.00     0.000 OA
ATOM     73   O  SGN C   4     147.283  33.592  44.9220  0.00  0.00     0.000 O
ATOM     74   S  SGN C   4     146.982  32.135  45.5070  0.00  0.00     0.000 S
ATOM     75   O  SGN C   4     146.808  31.295  44.3390  0.00  0.00     0.000 OA
ENDBRANCH 60 70
BRANCH 56 76
ATOM     76  O4  IDS C   5     148.415  37.760  43.5850  0.00  0.00     0.000 O
BRANCH 76 80
ATOM     77  C1  IDS C   5     150.831  38.256  46.8370  0.00  0.00     0.000 C
ATOM     78  C2  IDS C   5     149.687  39.265  46.7360  0.00  0.00     0.000 C
ATOM     79  C3  IDS C   5     148.625  38.747  45.7860  0.00  0.00     0.000 C
ATOM     80  C4  IDS C   5     149.198  38.668  44.3740  0.00  0.00     0.000 C
ATOM     81  C5  IDS C   5     150.658  38.196  44.4430  0.00  0.00     0.000 C
ATOM     82  O5  IDS C   5     150.894  37.466  45.6500  0.00  0.00     0.000 O
BRANCH 78 83
ATOM     83   O  IDS C   5     149.063  39.485  48.0620  0.00  0.00     0.000 O
ATOM     84   S  IDS C   5     148.907  40.967  48.6290  0.00  0.00     0.000 S
ATOM     85   O  IDS C   5     150.193  41.591  48.4650  0.00  0.00     0.000 OA
ATOM     86   O  IDS C   5     147.874  41.574  47.8220  0.00  0.00     0.000 OA
ATOM     87   O  IDS C   5     148.518  40.818  50.0100  0.00  0.00     0.000 OA
ENDBRANCH 78 83
BRANCH 81 88
ATOM     88   C  IDS C   5     151.074  37.311  43.2820  0.00  0.00     0.000 C
ATOM     89   O  IDS C   5     151.170  36.123  43.4400  0.00  0.00     0.000 OA
ATOM     90   O  IDS C   5     151.306  37.807  42.2040  0.00  0.00     0.000 OA
ENDBRANCH 81 88
ENDBRANCH 76 80
ENDBRANCH 56 76
ENDBRANCH 55 59
ENDBRANCH 39 55
ENDBRANCH 38 42
ENDBRANCH 18 38
ENDBRANCH 17 21
ENDBRANCH 1 17
TORSDOF 18
ENDMDL
MODEL 23
REMARK VINA RESULT:      -7.7     21.454     25.652
ROOT
ATOM      1  C1  IDS C   1     148.164  42.374  70.1380  0.00  0.00     0.000 C
ATOM      2  C2  IDS C   1     147.685  43.025  68.8370  0.00  0.00     0.000 C
ATOM      3  C3  IDS C   1     148.402  44.345  68.5980  0.00  0.00     0.000 C
ATOM      4  C4  IDS C   1     148.163  45.304  69.7560  0.00  0.00     0.000 C
ATOM      5  C5  IDS C   1     148.188  44.544  71.0780  0.00  0.00     0.000 C
ATOM      6  O5  IDS C   1     148.891  43.311  70.9220  0.00  0.00     0.000 O
ATOM      7   O  IDS C   1     147.941  44.933  67.3730  0.00  0.00     0.000 O
ATOM      9  HD  IDS C   1     147.797  44.296  66.8030  0.00  0.00     0.000 HD
ENDROOT
BRANCH 2 9
ATOM      9   O  IDS C   1     147.964  42.149  67.6760  0.00  0.00     0.000 O
ATOM     10   S  IDS C   1     146.756  41.652  66.7620  0.00  0.00     0.000 S
ATOM     11   O  IDS C   1     147.353  40.840  65.7250  0.00  0.00     0.000 OA
ATOM     12   O  IDS C   1     145.888  40.896  67.6410  0.00  0.00     0.000 OA
ATOM     13   O  IDS C   1     146.132  42.850  66.2470  0.00  0.00     0.000 OA
ENDBRANCH 2 9
BRANCH 5 14
ATOM     14   C  IDS C   1     148.856  45.342  72.1850  0.00  0.00     0.000 C
ATOM     15   O  IDS C   1     149.235  46.465  71.9620  0.00  0.00     0.000 OA
ATOM     16   O  IDS C   1     149.005  44.841  73.2870  0.00  0.00     0.000 OA
ENDBRANCH 5 14
BRANCH 1 17
ATOM     17  O4  SGN C   2     148.426  41.068  70.2450  0.00  0.00     0.000 O
BRANCH 17 21
ATOM     18  C1  SGN C   2     150.978  37.860  71.0890  0.00  0.00     0.000 C
ATOM     19  C2  SGN C   2     151.546  39.267  71.3140  0.00  0.00     0.000 C
ATOM     20  C3  SGN C   2     150.401  40.285  71.3770  0.00  0.00     0.000 C
ATOM     21  C4  SGN C   2     149.520  40.162  70.1390  0.00  0.00     0.000 C
ATOM     22  C5  SGN C   2     149.015  38.727  70.0280  0.00  0.00     0.000 C
ATOM     23  O5  SGN C   2     150.137  37.818  69.9550  0.00  0.00     0.000 O
ATOM     24   O  SGN C   2     150.928  41.596  71.4980  0.00  0.00     0.000 O
ATOM     26  HD  SGN C   2     150.390  40.938  71.6650  0.00  0.00     0.000 HD
BRANCH 19 28
ATOM     26   N  SGN C   2     152.760  38.987  72.0940  0.00  0.00     0.000 N
ATOM     28  HD  SGN C   2     152.795  38.413  71.4460  0.00  0.00     0.000 HD
ATOM     28   O  SGN C   2     154.617  39.829  73.5310  0.00  0.00     0.000 OA
ATOM     29   S  SGN C   2     154.032  39.971  72.0860  0.00  0.00     0.000 S
ATOM     30   O  SGN C   2     154.968  39.449  71.1660  0.00  0.00     0.000 OA
ATOM     31   O  SGN C   2     153.549  41.299  71.9210  0.00  0.00     0.000 OA
ENDBRANCH 19 28
BRANCH 22 32
ATOM     32   C  SGN C   2     148.176  38.482  68.7980  0.00  0.00     0.000 C
ATOM     33   S  SGN C   2     145.985  37.289  68.1520  0.00  0.00     0.000 S
ATOM     34   O  SGN C   2     146.601  35.987  68.1930  0.00  0.00     0.000 OA
ATOM     35   O  SGN C   2     144.634  37.309  68.6740  0.00  0.00     0.000 OA
ATOM     36   O  SGN C   2     146.121  37.966  66.8840  0.00  0.00     0.000 OA
ATOM     37   O  SGN C   2     146.835  38.159  69.1850  0.00  0.00     0.000 O
ENDBRANCH 22 32
BRANCH 18 38
ATOM     38  O4  IDS C   3     150.406  37.014  71.9480  0.00  0.00     0.000 O
BRANCH 38 42
ATOM     39  C1  IDS C   3     148.337  35.243  74.1190  0.00  0.00     0.000 C
ATOM     40  C2  IDS C   3     148.679  36.719  74.3780  0.00  0.00     0.000 C
ATOM     41  C3  IDS C   3     150.189  36.950  74.3490  0.00  0.00     0.000 C
ATOM     42  C4  IDS C   3     150.821  36.307  73.1220  0.00  0.00     0.000 C
ATOM     43  C5  IDS C   3     150.393  34.838  73.0270  0.00  0.00     0.000 C
ATOM     44  O5  IDS C   3     148.971  34.771  72.9420  0.00  0.00     0.000 O
ATOM     45   O  IDS C   3     150.774  36.406  75.5340  0.00  0.00     0.000 O
ATOM     47  HD  IDS C   3     150.772  35.629  75.9160  0.00  0.00     0.000 HD
BRANCH 40 47
ATOM     47   O  IDS C   3     148.077  37.584  73.3360  0.00  0.00     0.000 O
ATOM     48   S  IDS C   3     146.490  37.598  73.1330  0.00  0.00     0.000 S
ATOM     49   O  IDS C   3     146.171  36.384  72.4130  0.00  0.00     0.000 OA
ATOM     50   O  IDS C   3     146.217  38.788  72.3580  0.00  0.00     0.000 OA
ATOM     51   O  IDS C   3     145.912  37.635  74.4500  0.00  0.00     0.000 OA
ENDBRANCH 40 47
BRANCH 43 52
ATOM     52   C  IDS C   3     151.007  34.124  71.8430  0.00  0.00     0.000 C
ATOM     53   O  IDS C   3     152.137  33.699  71.9150  0.00  0.00     0.000 OA
ATOM     54   O  IDS C   3     150.365  33.982  70.8330  0.00  0.00     0.000 OA
ENDBRANCH 43 52
BRANCH 39 55
ATOM     55  O4  SGN C   4     148.232  34.329  75.0830  0.00  0.00     0.000 O
BRANCH 55 59
ATOM     56  C1  SGN C   4     145.503  32.138  77.3760  0.00  0.00     0.000 C
ATOM     57  C2  SGN C   4     144.908  33.115  76.3480  0.00  0.00     0.000 C
ATOM     58  C3  SGN C   4     145.965  33.540  75.3310  0.00  0.00     0.000 C
ATOM     59  C4  SGN C   4     147.221  34.036  76.0380  0.00  0.00     0.000 C
ATOM     60  C5  SGN C   4     147.708  32.949  76.9940  0.00  0.00     0.000 C
ATOM     61  O5  SGN C   4     146.668  32.698  77.9610  0.00  0.00     0.000 O
ATOM     62   O  SGN C   4     145.432  34.552  74.4870  0.00  0.00     0.000 O
ATOM     64  HD  SGN C   4     144.743  34.088  74.7310  0.00  0.00     0.000 HD
BRANCH 57 66
ATOM     64   N  SGN C   4     143.719  32.533  75.7060  0.00  0.00     0.000 N
ATOM     66  HD  SGN C   4     143.028  32.079  75.9640  0.00  0.00     0.000 HD
ATOM     66   S  SGN C   4     142.256  32.878  76.2430  0.00  0.00     0.000 S
ATOM     67   O  SGN C   4     141.333  32.128  75.4720  0.00  0.00     0.000 OA
ATOM     68   O  SGN C   4     142.283  32.714  77.6560  0.00  0.00     0.000 OA
ATOM     69   O  SGN C   4     142.090  34.397  75.9190  0.00  0.00     0.000 OA
ENDBRANCH 57 66
BRANCH 60 70
ATOM     70   C  SGN C   4     148.963  33.321  77.7530  0.00  0.00     0.000 C
ATOM     71   O  SGN C   4     149.167  35.224  80.9850  0.00  0.00     0.000 OA
ATOM     72   O  SGN C   4     149.366  32.835  80.6650  0.00  0.00     0.000 OA
ATOM     73   O  SGN C   4     148.653  34.225  78.8310  0.00  0.00     0.000 O
ATOM     74   S  SGN C   4     149.600  34.152  80.1180  0.00  0.00     0.000 S
ATOM     75   O  SGN C   4     150.942  34.333  79.6010  0.00  0.00     0.000 OA
ENDBRANCH 60 70
BRANCH 56 76
ATOM     76  O4  IDS C   5     145.594  30.800  77.4920  0.00  0.00     0.000 O
BRANCH 76 80
ATOM     77  C1  IDS C   5     143.484  28.806  74.6220  0.00  0.00     0.000 C
ATOM     78  C2  IDS C   5     142.962  28.609  76.0450  0.00  0.00     0.000 C
ATOM     79  C3  IDS C   5     143.507  29.699  76.9480  0.00  0.00     0.000 C
ATOM     80  C4  IDS C   5     145.021  29.554  77.0680  0.00  0.00     0.000 C
ATOM     81  C5  IDS C   5     145.600  29.131  75.7100  0.00  0.00     0.000 C
ATOM     82  O5  IDS C   5     144.723  29.516  74.6480  0.00  0.00     0.000 O
BRANCH 78 83
ATOM     83   O  IDS C   5     141.482  28.673  76.0740  0.00  0.00     0.000 O
ATOM     84   S  IDS C   5     140.670  27.777  77.1140  0.00  0.00     0.000 S
ATOM     85   O  IDS C   5     141.207  26.448  76.9940  0.00  0.00     0.000 OA
ATOM     86   O  IDS C   5     140.918  28.376  78.4040  0.00  0.00     0.000 OA
ATOM     87   O  IDS C   5     139.287  27.871  76.7140  0.00  0.00     0.000 OA
ENDBRANCH 78 83
BRANCH 81 88
ATOM     88   C  IDS C   5     146.966  29.723  75.4120  0.00  0.00     0.000 C
ATOM     89   O  IDS C   5     147.096  30.504  74.5080  0.00  0.00     0.000 OA
ATOM     90   O  IDS C   5     147.917  29.404  76.0890  0.00  0.00     0.000 OA
ENDBRANCH 81 88
ENDBRANCH 76 80
ENDBRANCH 56 76
ENDBRANCH 55 59
ENDBRANCH 39 55
ENDBRANCH 38 42
ENDBRANCH 18 38
ENDBRANCH 17 21
ENDBRANCH 1 17
TORSDOF 18
ENDMDL
MODEL 24
REMARK VINA RESULT:      -7.7      4.044      8.263
ROOT
ATOM      1  C1  IDS C   1     145.798  20.971  59.5530  0.00  0.00     0.000 C
ATOM      2  C2  IDS C   1     147.190  20.338  59.4780  0.00  0.00     0.000 C
ATOM      3  C3  IDS C   1     147.608  19.791  60.8350  0.00  0.00     0.000 C
ATOM      4  C4  IDS C   1     147.615  20.897  61.8810  0.00  0.00     0.000 C
ATOM      5  C5  IDS C   1     146.428  21.830  61.6640  0.00  0.00     0.000 C
ATOM      6  O5  IDS C   1     145.414  21.167  60.9080  0.00  0.00     0.000 O
ATOM      7   O  IDS C   1     148.912  19.200  60.7390  0.00  0.00     0.000 O
ATOM      9  HD  IDS C   1     148.979  18.813  59.9670  0.00  0.00     0.000 HD
ENDROOT
BRANCH 2 9
ATOM      9   O  IDS C   1     147.205  19.211  58.5190  0.00  0.00     0.000 O
ATOM     10   S  IDS C   1     148.277  19.202  57.3380  0.00  0.00     0.000 S
ATOM     11   O  IDS C   1     148.042  17.981  56.5990  0.00  0.00     0.000 OA
ATOM     12   O  IDS C   1     148.008  20.393  56.5590  0.00  0.00     0.000 OA
ATOM     13   O  IDS C   1     149.573  19.228  57.9800  0.00  0.00     0.000 OA
ENDBRANCH 2 9
BRANCH 5 14
ATOM     14   C  IDS C   1     145.821  22.300  62.9750  0.00  0.00     0.000 C
ATOM     15   O  IDS C   1     146.017  23.431  63.3480  0.00  0.00     0.000 OA
ATOM     16   O  IDS C   1     145.144  21.533  63.6380  0.00  0.00     0.000 OA
ENDBRANCH 5 14
BRANCH 1 17
ATOM     17  O4  SGN C   2     144.863  20.787  58.6150  0.00  0.00     0.000 O
BRANCH 17 21
ATOM     18  C1  SGN C   2     141.205  19.355  57.1700  0.00  0.00     0.000 C
ATOM     19  C2  SGN C   2     141.412  19.301  58.6890  0.00  0.00     0.000 C
ATOM     20  C3  SGN C   2     142.570  20.223  59.0880  0.00  0.00     0.000 C
ATOM     21  C4  SGN C   2     143.817  19.880  58.2800  0.00  0.00     0.000 C
ATOM     22  C5  SGN C   2     143.487  19.972  56.7930  0.00  0.00     0.000 C
ATOM     23  O5  SGN C   2     142.402  19.071  56.4760  0.00  0.00     0.000 O
ATOM     24   O  SGN C   2     142.820  20.109  60.4790  0.00  0.00     0.000 O
ATOM     26  HD  SGN C   2     142.720  20.517  59.7220  0.00  0.00     0.000 HD
BRANCH 19 28
ATOM     26   N  SGN C   2     140.610  18.895  59.8510  0.00  0.00     0.000 N
ATOM     28  HD  SGN C   2     141.413  18.962  60.1680  0.00  0.00     0.000 HD
ATOM     28   O  SGN C   2     138.439  18.963  61.0790  0.00  0.00     0.000 OA
ATOM     29   S  SGN C   2     139.593  19.901  60.5870  0.00  0.00     0.000 S
ATOM     30   O  SGN C   2     140.259  20.428  61.7160  0.00  0.00     0.000 OA
ATOM     31   O  SGN C   2     139.072  20.784  59.6030  0.00  0.00     0.000 OA
ENDBRANCH 19 28
BRANCH 22 32
ATOM     32   C  SGN C   2     144.643  19.593  55.9000  0.00  0.00     0.000 C
ATOM     33   S  SGN C   2     145.197  17.854  54.0800  0.00  0.00     0.000 S
ATOM     34   O  SGN C   2     145.384  16.801  55.0470  0.00  0.00     0.000 OA
ATOM     35   O  SGN C   2     144.537  17.419  52.8670  0.00  0.00     0.000 OA
ATOM     36   O  SGN C   2     146.379  18.648  53.8390  0.00  0.00     0.000 OA
ATOM     37   O  SGN C   2     144.159  18.847  54.7770  0.00  0.00     0.000 O
ENDBRANCH 22 32
BRANCH 18 38
ATOM     38  O4  IDS C   3     140.602  20.276  56.4140  0.00  0.00     0.000 O
BRANCH 38 42
ATOM     39  C1  IDS C   3     138.998  22.025  53.8660  0.00  0.00     0.000 C
ATOM     40  C2  IDS C   3     140.151  22.661  54.6590  0.00  0.00     0.000 C
ATOM     41  C3  IDS C   3     139.903  22.570  56.1640  0.00  0.00     0.000 C
ATOM     42  C4  IDS C   3     139.489  21.162  56.5700  0.00  0.00     0.000 C
ATOM     43  C5  IDS C   3     138.320  20.692  55.6960  0.00  0.00     0.000 C
ATOM     44  O5  IDS C   3     138.722  20.713  54.3280  0.00  0.00     0.000 O
ATOM     45   O  IDS C   3     138.881  23.498  56.5330  0.00  0.00     0.000 O
ATOM     47  HD  IDS C   3     138.066  23.644  56.2780  0.00  0.00     0.000 HD
BRANCH 40 47
ATOM     47   O  IDS C   3     141.426  21.961  54.3750  0.00  0.00     0.000 O
ATOM     48   S  IDS C   3     142.728  22.804  53.9860  0.00  0.00     0.000 S
ATOM     49   O  IDS C   3     142.549  23.194  52.6030  0.00  0.00     0.000 OA
ATOM     50   O  IDS C   3     143.838  21.895  54.1650  0.00  0.00     0.000 OA
ATOM     51   O  IDS C   3     142.766  23.929  54.8820  0.00  0.00     0.000 OA
ENDBRANCH 40 47
BRANCH 43 52
ATOM     52   C  IDS C   3     137.835  19.307  56.0620  0.00  0.00     0.000 C
ATOM     53   O  IDS C   3     137.429  19.086  57.1800  0.00  0.00     0.000 OA
ATOM     54   O  IDS C   3     137.854  18.430  55.2360  0.00  0.00     0.000 OA
ENDBRANCH 43 52
BRANCH 39 55
ATOM     55  O4  SGN C   4     137.919  22.697  53.4650  0.00  0.00     0.000 O
BRANCH 55 59
ATOM     56  C1  SGN C   4     133.858  22.981  52.5000  0.00  0.00     0.000 C
ATOM     57  C2  SGN C   4     134.212  22.999  53.9970  0.00  0.00     0.000 C
ATOM     58  C3  SGN C   4     135.697  23.287  54.1990  0.00  0.00     0.000 C
ATOM     59  C4  SGN C   4     136.546  22.350  53.3480  0.00  0.00     0.000 C
ATOM     60  C5  SGN C   4     136.101  22.469  51.8920  0.00  0.00     0.000 C
ATOM     61  O5  SGN C   4     134.714  22.085  51.8100  0.00  0.00     0.000 O
ATOM     62   O  SGN C   4     136.025  23.152  55.5750  0.00  0.00     0.000 O
ATOM     64  HD  SGN C   4     135.191  23.383  55.5730  0.00  0.00     0.000 HD
BRANCH 57 66
ATOM     64   N  SGN C   4     132.929  23.699  54.1730  0.00  0.00     0.000 N
ATOM     66  HD  SGN C   4     132.109  23.471  54.3330  0.00  0.00     0.000 HD
ATOM     66   S  SGN C   4     132.041  23.450  55.4760  0.00  0.00     0.000 S
ATOM     67   O  SGN C   4     130.851  24.207  55.3300  0.00  0.00     0.000 OA
ATOM     68   O  SGN C   4     131.956  22.043  55.6590  0.00  0.00     0.000 OA
ATOM     69   O  SGN C   4     132.902  24.054  56.6320  0.00  0.00     0.000 OA
ENDBRANCH 57 66
BRANCH 60 70
ATOM     70   C  SGN C   4     136.881  21.588  50.9410  0.00  0.00     0.000 C
ATOM     71   O  SGN C   4     137.155  17.843  51.0450  0.00  0.00     0.000 OA
ATOM     72   O  SGN C   4     135.761  19.179  49.5890  0.00  0.00     0.000 OA
ATOM     73   O  SGN C   4     136.916  20.231  51.4230  0.00  0.00     0.000 O
ATOM     74   S  SGN C   4     137.007  19.082  50.3150  0.00  0.00     0.000 S
ATOM     75   O  SGN C   4     138.168  19.425  49.5190  0.00  0.00     0.000 OA
ENDBRANCH 60 70
BRANCH 56 76
ATOM     76  O4  IDS C   5     133.407  23.882  51.6070  0.00  0.00     0.000 O
BRANCH 76 80
ATOM     77  C1  IDS C   5     132.969  26.478  48.4890  0.00  0.00     0.000 C
ATOM     78  C2  IDS C   5     134.346  26.509  49.1520  0.00  0.00     0.000 C
ATOM     79  C3  IDS C   5     134.552  25.249  49.9690  0.00  0.00     0.000 C
ATOM     80  C4  IDS C   5     133.563  25.227  51.1310  0.00  0.00     0.000 C
ATOM     81  C5  IDS C   5     132.214  25.790  50.6620  0.00  0.00     0.000 C
ATOM     82  O5  IDS C   5     132.079  25.656  49.2440  0.00  0.00     0.000 O
BRANCH 78 83
ATOM     83   O  IDS C   5     135.417  26.586  48.1310  0.00  0.00     0.000 O
ATOM     84   S  IDS C   5     136.202  27.956  47.9070  0.00  0.00     0.000 S
ATOM     85   O  IDS C   5     135.194  28.976  47.7910  0.00  0.00     0.000 OA
ATOM     86   O  IDS C   5     137.034  28.111  49.0780  0.00  0.00     0.000 OA
ATOM     87   O  IDS C   5     136.970  27.774  46.7000  0.00  0.00     0.000 OA
ENDBRANCH 78 83
BRANCH 81 88
ATOM     88   C  IDS C   5     131.011  25.120  51.3010  0.00  0.00     0.000 C
ATOM     89   O  IDS C   5     130.732  25.357  52.4460  0.00  0.00     0.000 OA
ATOM     90   O  IDS C   5     130.340  24.351  50.6530  0.00  0.00     0.000 OA
ENDBRANCH 81 88
ENDBRANCH 76 80
ENDBRANCH 56 76
ENDBRANCH 55 59
ENDBRANCH 39 55
ENDBRANCH 38 42
ENDBRANCH 18 38
ENDBRANCH 17 21
ENDBRANCH 1 17
TORSDOF 18
ENDMDL
MODEL 25
REMARK VINA RESULT:      -7.7     18.852     22.387
ROOT
ATOM      1  C1  IDS C   1     159.616  35.007  48.7690  0.00  0.00     0.000 C
ATOM      2  C2  IDS C   1     160.024  33.723  49.4970  0.00  0.00     0.000 C
ATOM      3  C3  IDS C   1     161.538  33.582  49.5360  0.00  0.00     0.000 C
ATOM      4  C4  IDS C   1     162.113  33.565  48.1270  0.00  0.00     0.000 C
ATOM      5  C5  IDS C   1     161.370  34.564  47.2460  0.00  0.00     0.000 C
ATOM      6  O5  IDS C   1     160.722  35.545  48.0560  0.00  0.00     0.000 O
ATOM      7   O  IDS C   1     161.896  32.375  50.2250  0.00  0.00     0.000 O
ATOM      9  HD  IDS C   1     161.334  32.256  50.8740  0.00  0.00     0.000 HD
ENDROOT
BRANCH 2 9
ATOM      9   O  IDS C   1     159.540  33.733  50.8960  0.00  0.00     0.000 O
ATOM     10   S  IDS C   1     158.545  32.588  51.3890  0.00  0.00     0.000 S
ATOM     11   O  IDS C   1     158.276  32.870  52.7820  0.00  0.00     0.000 OA
ATOM     12   O  IDS C   1     157.368  32.708  50.5520  0.00  0.00     0.000 OA
ATOM     13   O  IDS C   1     159.251  31.341  51.1950  0.00  0.00     0.000 OA
ENDBRANCH 2 9
BRANCH 5 14
ATOM     14   C  IDS C   1     162.298  35.277  46.2770  0.00  0.00     0.000 C
ATOM     15   O  IDS C   1     161.830  35.965  45.4040  0.00  0.00     0.000 OA
ATOM     16   O  IDS C   1     163.505  35.146  46.3890  0.00  0.00     0.000 OA
ENDBRANCH 5 14
BRANCH 1 17
ATOM     17  O4  SGN C   2     158.648  35.816  49.2090  0.00  0.00     0.000 O
BRANCH 17 21
ATOM     18  C1  SGN C   2     157.108  39.461  50.5760  0.00  0.00     0.000 C
ATOM     19  C2  SGN C   2     158.515  39.496  49.9660  0.00  0.00     0.000 C
ATOM     20  C3  SGN C   2     158.758  38.221  49.1480  0.00  0.00     0.000 C
ATOM     21  C4  SGN C   2     158.482  36.989  50.0020  0.00  0.00     0.000 C
ATOM     22  C5  SGN C   2     157.058  37.067  50.5450  0.00  0.00     0.000 C
ATOM     23  O5  SGN C   2     156.896  38.279  51.3190  0.00  0.00     0.000 O
ATOM     24   O  SGN C   2     160.087  38.211  48.6560  0.00  0.00     0.000 O
ATOM     26  HD  SGN C   2     159.229  38.100  48.6260  0.00  0.00     0.000 HD
BRANCH 19 28
ATOM     26   N  SGN C   2     158.678  40.929  49.6870  0.00  0.00     0.000 N
ATOM     28  HD  SGN C   2     158.232  40.913  50.4300  0.00  0.00     0.000 HD
ATOM     28   O  SGN C   2     160.058  42.778  48.7380  0.00  0.00     0.000 OA
ATOM     29   S  SGN C   2     160.089  41.682  49.8560  0.00  0.00     0.000 S
ATOM     30   O  SGN C   2     160.082  42.321  51.1150  0.00  0.00     0.000 OA
ATOM     31   O  SGN C   2     161.116  40.748  49.5480  0.00  0.00     0.000 OA
ENDBRANCH 19 28
BRANCH 22 32
ATOM     32   C  SGN C   2     156.701  35.918  51.4550  0.00  0.00     0.000 C
ATOM     33   S  SGN C   2     155.525  35.529  53.7150  0.00  0.00     0.000 S
ATOM     34   O  SGN C   2     156.667  35.985  54.4670  0.00  0.00     0.000 OA
ATOM     35   O  SGN C   2     154.256  35.945  54.2770  0.00  0.00     0.000 OA
ATOM     36   O  SGN C   2     155.568  34.128  53.3690  0.00  0.00     0.000 OA
ATOM     37   O  SGN C   2     155.632  36.307  52.3260  0.00  0.00     0.000 O
ENDBRANCH 22 32
BRANCH 18 38
ATOM     38  O4  IDS C   3     155.921  39.711  50.0190  0.00  0.00     0.000 O
BRANCH 38 42
ATOM     39  C1  IDS C   3     153.074  39.976  48.0300  0.00  0.00     0.000 C
ATOM     40  C2  IDS C   3     154.431  40.513  47.5470  0.00  0.00     0.000 C
ATOM     41  C3  IDS C   3     155.057  41.446  48.5840  0.00  0.00     0.000 C
ATOM     42  C4  IDS C   3     155.023  40.825  49.9740  0.00  0.00     0.000 C
ATOM     43  C5  IDS C   3     153.598  40.363  50.3020  0.00  0.00     0.000 C
ATOM     44  O5  IDS C   3     153.180  39.410  49.3260  0.00  0.00     0.000 O
ATOM     45   O  IDS C   3     154.350  42.687  48.5920  0.00  0.00     0.000 O
ATOM     47  HD  IDS C   3     153.522  42.919  48.6960  0.00  0.00     0.000 HD
BRANCH 40 47
ATOM     47   O  IDS C   3     155.381  39.399  47.3200  0.00  0.00     0.000 O
ATOM     48   S  IDS C   3     155.889  39.077  45.8380  0.00  0.00     0.000 S
ATOM     49   O  IDS C   3     154.801  38.379  45.1870  0.00  0.00     0.000 OA
ATOM     50   O  IDS C   3     157.058  38.242  46.0100  0.00  0.00     0.000 OA
ATOM     51   O  IDS C   3     156.184  40.344  45.2250  0.00  0.00     0.000 OA
ENDBRANCH 40 47
BRANCH 43 52
ATOM     52   C  IDS C   3     153.482  39.760  51.6840  0.00  0.00     0.000 C
ATOM     53   O  IDS C   3     153.579  40.467  52.6610  0.00  0.00     0.000 OA
ATOM     54   O  IDS C   3     153.291  38.576  51.8050  0.00  0.00     0.000 OA
ENDBRANCH 43 52
BRANCH 39 55
ATOM     55  O4  SGN C   4     151.912  40.587  47.7990  0.00  0.00     0.000 O
BRANCH 55 59
ATOM     56  C1  SGN C   4     148.538  38.407  46.6310  0.00  0.00     0.000 C
ATOM     57  C2  SGN C   4     149.713  38.440  45.6380  0.00  0.00     0.000 C
ATOM     58  C3  SGN C   4     150.991  38.912  46.3270  0.00  0.00     0.000 C
ATOM     59  C4  SGN C   4     150.746  40.216  47.0780  0.00  0.00     0.000 C
ATOM     60  C5  SGN C   4     149.579  40.015  48.0430  0.00  0.00     0.000 C
ATOM     61  O5  SGN C   4     148.412  39.665  47.2740  0.00  0.00     0.000 O
ATOM     62   O  SGN C   4     152.020  39.075  45.3600  0.00  0.00     0.000 O
ATOM     64  HD  SGN C   4     151.506  38.462  45.0290  0.00  0.00     0.000 HD
BRANCH 57 66
ATOM     64   N  SGN C   4     149.560  37.078  45.1010  0.00  0.00     0.000 N
ATOM     66  HD  SGN C   4     148.959  36.648  44.6490  0.00  0.00     0.000 HD
ATOM     66   S  SGN C   4     149.235  36.847  43.5550  0.00  0.00     0.000 S
ATOM     67   O  SGN C   4     149.087  35.452  43.3570  0.00  0.00     0.000 OA
ATOM     68   O  SGN C   4     148.163  37.719  43.2200  0.00  0.00     0.000 OA
ATOM     69   O  SGN C   4     150.527  37.340  42.8280  0.00  0.00     0.000 OA
ENDBRANCH 57 66
BRANCH 60 70
ATOM     70   C  SGN C   4     149.244  41.244  48.8590  0.00  0.00     0.000 C
ATOM     71   O  SGN C   4     147.818  41.325  52.3330  0.00  0.00     0.000 OA
ATOM     72   O  SGN C   4     150.119  41.675  51.6750  0.00  0.00     0.000 OA
ATOM     73   O  SGN C   4     148.526  40.877  50.0530  0.00  0.00     0.000 O
ATOM     74   S  SGN C   4     148.724  41.825  51.3250  0.00  0.00     0.000 S
ATOM     75   O  SGN C   4     148.387  43.153  50.8530  0.00  0.00     0.000 OA
ENDBRANCH 60 70
BRANCH 56 76
ATOM     76  O4  IDS C   5     147.984  37.481  47.4350  0.00  0.00     0.000 O
BRANCH 76 80
ATOM     77  C1  IDS C   5     145.184  34.833  46.0920  0.00  0.00     0.000 C
ATOM     78  C2  IDS C   5     144.608  36.116  46.6900  0.00  0.00     0.000 C
ATOM     79  C3  IDS C   5     145.682  37.185  46.7450  0.00  0.00     0.000 C
ATOM     80  C4  IDS C   5     146.776  36.760  47.7200  0.00  0.00     0.000 C
ATOM     81  C5  IDS C   5     147.011  35.248  47.5940  0.00  0.00     0.000 C
ATOM     82  O5  IDS C   5     146.594  34.781  46.3070  0.00  0.00     0.000 O
BRANCH 78 83
ATOM     83   O  IDS C   5     143.486  36.621  45.8650  0.00  0.00     0.000 O
ATOM     84   S  IDS C   5     142.000  36.591  46.4440  0.00  0.00     0.000 S
ATOM     85   O  IDS C   5     141.805  35.266  46.9680  0.00  0.00     0.000 OA
ATOM     86   O  IDS C   5     141.971  37.614  47.4640  0.00  0.00     0.000 OA
ATOM     87   O  IDS C   5     141.139  36.895  45.3270  0.00  0.00     0.000 OA
ENDBRANCH 78 83
BRANCH 81 88
ATOM     88   C  IDS C   5     148.458  34.832  47.7850  0.00  0.00     0.000 C
ATOM     89   O  IDS C   5     149.161  34.651  46.8270  0.00  0.00     0.000 OA
ATOM     90   O  IDS C   5     148.896  34.685  48.9030  0.00  0.00     0.000 OA
ENDBRANCH 81 88
ENDBRANCH 76 80
ENDBRANCH 56 76
ENDBRANCH 55 59
ENDBRANCH 39 55
ENDBRANCH 38 42
ENDBRANCH 18 38
ENDBRANCH 17 21
ENDBRANCH 1 17
TORSDOF 18
ENDMDL
MODEL 26
REMARK VINA RESULT:      -7.6     20.422     28.864
ROOT
ATOM      1  C1  IDS C   1     159.692  34.148  51.7310  0.00  0.00     0.000 C
ATOM      2  C2  IDS C   1     158.710  33.116  51.1720  0.00  0.00     0.000 C
ATOM      3  C3  IDS C   1     157.274  33.509  51.4880  0.00  0.00     0.000 C
ATOM      4  C4  IDS C   1     157.070  33.633  52.9910  0.00  0.00     0.000 C
ATOM      5  C5  IDS C   1     158.294  34.276  53.6340  0.00  0.00     0.000 C
ATOM      6  O5  IDS C   1     159.036  35.006  52.6570  0.00  0.00     0.000 O
ATOM      7   O  IDS C   1     156.373  32.530  50.9500  0.00  0.00     0.000 O
ATOM      9  HD  IDS C   1     156.693  32.251  50.1950  0.00  0.00     0.000 HD
ENDROOT
BRANCH 2 9
ATOM      9   O  IDS C   1     158.831  33.016  49.7000  0.00  0.00     0.000 O
ATOM     10   S  IDS C   1     159.311  31.644  49.0440  0.00  0.00     0.000 S
ATOM     11   O  IDS C   1     159.312  31.866  47.6150  0.00  0.00     0.000 OA
ATOM     12   O  IDS C   1     160.635  31.398  49.5780  0.00  0.00     0.000 OA
ATOM     13   O  IDS C   1     158.344  30.650  49.4560  0.00  0.00     0.000 OA
ENDBRANCH 2 9
BRANCH 5 14
ATOM     14   C  IDS C   1     157.919  35.224  54.7600  0.00  0.00     0.000 C
ATOM     15   O  IDS C   1     157.085  36.075  54.5670  0.00  0.00     0.000 OA
ATOM     16   O  IDS C   1     158.463  35.120  55.8470  0.00  0.00     0.000 OA
ENDBRANCH 5 14
BRANCH 1 17
ATOM     17  O4  SGN C   2     160.751  34.591  51.0470  0.00  0.00     0.000 O
BRANCH 17 21
ATOM     18  C1  SGN C   2     162.958  37.578  49.1150  0.00  0.00     0.000 C
ATOM     19  C2  SGN C   2     161.695  38.030  49.8600  0.00  0.00     0.000 C
ATOM     20  C3  SGN C   2     161.252  36.937  50.8410  0.00  0.00     0.000 C
ATOM     21  C4  SGN C   2     161.099  35.607  50.1110  0.00  0.00     0.000 C
ATOM     22  C5  SGN C   2     162.414  35.266  49.4170  0.00  0.00     0.000 C
ATOM     23  O5  SGN C   2     162.770  36.322  48.4960  0.00  0.00     0.000 O
ATOM     24   O  SGN C   2     160.037  37.315  51.4670  0.00  0.00     0.000 O
ATOM     26  HD  SGN C   2     160.837  36.987  51.4200  0.00  0.00     0.000 HD
BRANCH 19 28
ATOM     26   N  SGN C   2     161.935  39.473  49.9930  0.00  0.00     0.000 N
ATOM     28  HD  SGN C   2     162.272  39.279  49.2190  0.00  0.00     0.000 HD
ATOM     28   O  SGN C   2     161.190  41.693  50.8550  0.00  0.00     0.000 OA
ATOM     29   S  SGN C   2     160.752  40.555  49.8720  0.00  0.00     0.000 S
ATOM     30   O  SGN C   2     160.774  41.064  48.5540  0.00  0.00     0.000 OA
ATOM     31   O  SGN C   2     159.565  39.955  50.3730  0.00  0.00     0.000 OA
ENDBRANCH 19 28
BRANCH 22 32
ATOM     32   C  SGN C   2     162.353  33.990  48.6140  0.00  0.00     0.000 C
ATOM     33   S  SGN C   2     163.948  32.443  47.3080  0.00  0.00     0.000 S
ATOM     34   O  SGN C   2     164.010  33.343  46.1830  0.00  0.00     0.000 OA
ATOM     35   O  SGN C   2     165.213  31.808  47.6140  0.00  0.00     0.000 OA
ATOM     36   O  SGN C   2     162.838  31.521  47.2630  0.00  0.00     0.000 OA
ATOM     37   O  SGN C   2     163.654  33.394  48.5560  0.00  0.00     0.000 O
ENDBRANCH 22 32
BRANCH 18 38
ATOM     38  O4  IDS C   3     164.232  37.556  49.5130  0.00  0.00     0.000 O
BRANCH 38 42
ATOM     39  C1  IDS C   3     167.261  36.776  51.0430  0.00  0.00     0.000 C
ATOM     40  C2  IDS C   3     165.959  36.850  51.8560  0.00  0.00     0.000 C
ATOM     41  C3  IDS C   3     165.233  38.173  51.6180  0.00  0.00     0.000 C
ATOM     42  C4  IDS C   3     165.129  38.485  50.1310  0.00  0.00     0.000 C
ATOM     43  C5  IDS C   3     166.514  38.385  49.4810  0.00  0.00     0.000 C
ATOM     44  O5  IDS C   3     167.027  37.068  49.6750  0.00  0.00     0.000 O
ATOM     45   O  IDS C   3     165.936  39.225  52.2830  0.00  0.00     0.000 O
ATOM     47  HD  IDS C   3     166.749  39.522  52.2680  0.00  0.00     0.000 HD
BRANCH 40 47
ATOM     47   O  IDS C   3     165.037  35.759  51.4620  0.00  0.00     0.000 O
ATOM     48   S  IDS C   3     165.268  34.280  52.0240  0.00  0.00     0.000 S
ATOM     49   O  IDS C   3     166.363  33.729  51.2550  0.00  0.00     0.000 OA
ATOM     50   O  IDS C   3     164.022  33.584  51.7870  0.00  0.00     0.000 OA
ATOM     51   O  IDS C   3     165.581  34.419  53.4210  0.00  0.00     0.000 OA
ENDBRANCH 40 47
BRANCH 43 52
ATOM     52   C  IDS C   3     166.493  38.710  48.0040  0.00  0.00     0.000 C
ATOM     53   O  IDS C   3     166.154  39.810  47.6340  0.00  0.00     0.000 OA
ATOM     54   O  IDS C   3     166.816  37.869  47.2030  0.00  0.00     0.000 OA
ENDBRANCH 43 52
BRANCH 39 55
ATOM     55  O4  SGN C   4     168.440  37.204  51.4950  0.00  0.00     0.000 O
BRANCH 55 59
ATOM     56  C1  SGN C   4     170.843  34.131  53.0080  0.00  0.00     0.000 C
ATOM     57  C2  SGN C   4     170.384  35.202  54.0120  0.00  0.00     0.000 C
ATOM     58  C3  SGN C   4     169.223  36.015  53.4440  0.00  0.00     0.000 C
ATOM     59  C4  SGN C   4     169.565  36.540  52.0540  0.00  0.00     0.000 C
ATOM     60  C5  SGN C   4     169.967  35.362  51.1690  0.00  0.00     0.000 C
ATOM     61  O5  SGN C   4     171.124  34.731  51.7540  0.00  0.00     0.000 O
ATOM     62   O  SGN C   4     168.918  37.088  54.3240  0.00  0.00     0.000 O
ATOM     64  HD  SGN C   4     169.247  36.474  54.8380  0.00  0.00     0.000 HD
BRANCH 57 66
ATOM     64   N  SGN C   4     170.310  34.271  55.1490  0.00  0.00     0.000 N
ATOM     66  HD  SGN C   4     170.877  33.835  55.6380  0.00  0.00     0.000 HD
ATOM     66   S  SGN C   4     171.129  34.559  56.4880  0.00  0.00     0.000 S
ATOM     67   O  SGN C   4     170.908  33.467  57.3650  0.00  0.00     0.000 OA
ATOM     68   O  SGN C   4     172.458  34.887  56.1010  0.00  0.00     0.000 OA
ATOM     69   O  SGN C   4     170.448  35.839  57.0720  0.00  0.00     0.000 OA
ENDBRANCH 57 66
BRANCH 60 70
ATOM     70   C  SGN C   4     170.322  35.755  49.7520  0.00  0.00     0.000 C
ATOM     71   O  SGN C   4     171.271  33.452  46.9410  0.00  0.00     0.000 OA
ATOM     72   O  SGN C   4     169.131  34.513  47.3190  0.00  0.00     0.000 OA
ATOM     73   O  SGN C   4     170.830  34.620  49.0240  0.00  0.00     0.000 O
ATOM     74   S  SGN C   4     170.568  34.608  47.4470  0.00  0.00     0.000 S
ATOM     75   O  SGN C   4     171.107  35.866  46.9720  0.00  0.00     0.000 OA
ENDBRANCH 60 70
BRANCH 56 76
ATOM     76  O4  IDS C   5     170.555  32.836  52.7850  0.00  0.00     0.000 O
BRANCH 76 80
ATOM     77  C1  IDS C   5     170.027  29.066  51.3110  0.00  0.00     0.000 C
ATOM     78  C2  IDS C   5     169.822  30.182  50.2870  0.00  0.00     0.000 C
ATOM     79  C3  IDS C   5     170.454  31.465  50.7910  0.00  0.00     0.000 C
ATOM     80  C4  IDS C   5     169.715  31.943  52.0370  0.00  0.00     0.000 C
ATOM     81  C5  IDS C   5     169.325  30.730  52.8940  0.00  0.00     0.000 C
ATOM     82  O5  IDS C   5     170.186  29.621  52.6170  0.00  0.00     0.000 O
BRANCH 78 83
ATOM     83   O  IDS C   5     170.451  29.827  48.9930  0.00  0.00     0.000 O
ATOM     84   S  IDS C   5     169.541  29.628  47.6980  0.00  0.00     0.000 S
ATOM     85   O  IDS C   5     168.468  28.757  48.0980  0.00  0.00     0.000 OA
ATOM     86   O  IDS C   5     169.093  30.954  47.3430  0.00  0.00     0.000 OA
ATOM     87   O  IDS C   5     170.404  29.047  46.6990  0.00  0.00     0.000 OA
ENDBRANCH 78 83
BRANCH 81 88
ATOM     88   C  IDS C   5     169.379  30.989  54.3890  0.00  0.00     0.000 C
ATOM     89   O  IDS C   5     168.574  31.720  54.8990  0.00  0.00     0.000 OA
ATOM     90   O  IDS C   5     170.234  30.455  55.0580  0.00  0.00     0.000 OA
ENDBRANCH 81 88
ENDBRANCH 76 80
ENDBRANCH 56 76
ENDBRANCH 55 59
ENDBRANCH 39 55
ENDBRANCH 38 42
ENDBRANCH 18 38
ENDBRANCH 17 21
ENDBRANCH 1 17
TORSDOF 18
ENDMDL
MODEL 27
REMARK VINA RESULT:      -7.6     16.017     22.966
ROOT
ATOM      1  C1  IDS C   1     134.512  32.678  45.9350  0.00  0.00     0.000 C
ATOM      2  C2  IDS C   1     133.616  31.446  46.0850  0.00  0.00     0.000 C
ATOM      3  C3  IDS C   1     132.256  31.686  45.4460  0.00  0.00     0.000 C
ATOM      4  C4  IDS C   1     131.569  32.886  46.0820  0.00  0.00     0.000 C
ATOM      5  C5  IDS C   1     132.588  33.985  46.3620  0.00  0.00     0.000 C
ATOM      6  O5  IDS C   1     133.742  33.806  45.5400  0.00  0.00     0.000 O
ATOM      7   O  IDS C   1     131.437  30.517  45.5950  0.00  0.00     0.000 O
ATOM      9  HD  IDS C   1     131.943  29.819  45.5190  0.00  0.00     0.000 HD
ENDROOT
BRANCH 2 9
ATOM      9   O  IDS C   1     134.221  30.271  45.4170  0.00  0.00     0.000 O
ATOM     10   S  IDS C   1     134.585  28.981  46.2810  0.00  0.00     0.000 S
ATOM     11   O  IDS C   1     135.136  28.022  45.3490  0.00  0.00     0.000 OA
ATOM     12   O  IDS C   1     135.550  29.430  47.2640  0.00  0.00     0.000 OA
ATOM     13   O  IDS C   1     133.342  28.537  46.8730  0.00  0.00     0.000 OA
ENDBRANCH 2 9
BRANCH 5 14
ATOM     14   C  IDS C   1     132.023  35.371  46.1030  0.00  0.00     0.000 C
ATOM     15   O  IDS C   1     132.765  36.263  45.7720  0.00  0.00     0.000 OA
ATOM     16   O  IDS C   1     130.827  35.571  46.2330  0.00  0.00     0.000 OA
ENDBRANCH 5 14
BRANCH 1 17
ATOM     17  O4  SGN C   2     135.804  32.603  45.6020  0.00  0.00     0.000 O
BRANCH 17 21
ATOM     18  C1  SGN C   2     138.928  32.379  42.8240  0.00  0.00     0.000 C
ATOM     19  C2  SGN C   2     137.518  32.583  42.2570  0.00  0.00     0.000 C
ATOM     20  C3  SGN C   2     136.576  33.063  43.3670  0.00  0.00     0.000 C
ATOM     21  C4  SGN C   2     136.634  32.108  44.5540  0.00  0.00     0.000 C
ATOM     22  C5  SGN C   2     138.079  31.992  45.0290  0.00  0.00     0.000 C
ATOM     23  O5  SGN C   2     138.913  31.521  43.9460  0.00  0.00     0.000 O
ATOM     24   O  SGN C   2     135.254  33.169  42.8650  0.00  0.00     0.000 O
ATOM     26  HD  SGN C   2     135.953  33.409  43.3170  0.00  0.00     0.000 HD
BRANCH 19 28
ATOM     26   N  SGN C   2     137.816  33.086  40.9090  0.00  0.00     0.000 N
ATOM     28  HD  SGN C   2     138.463  32.533  41.0690  0.00  0.00     0.000 HD
ATOM     28   O  SGN C   2     136.990  33.919  38.7070  0.00  0.00     0.000 OA
ATOM     29   S  SGN C   2     136.963  32.646  39.6190  0.00  0.00     0.000 S
ATOM     30   O  SGN C   2     137.673  31.611  38.9710  0.00  0.00     0.000 OA
ATOM     31   O  SGN C   2     135.624  32.421  40.0440  0.00  0.00     0.000 OA
ENDBRANCH 19 28
BRANCH 22 32
ATOM     32   C  SGN C   2     138.257  31.021  46.1710  0.00  0.00     0.000 C
ATOM     33   S  SGN C   2     139.503  28.820  46.6660  0.00  0.00     0.000 S
ATOM     34   O  SGN C   2     138.548  28.032  45.9270  0.00  0.00     0.000 OA
ATOM     35   O  SGN C   2     140.872  28.376  46.5010  0.00  0.00     0.000 OA
ATOM     36   O  SGN C   2     139.136  29.052  48.0430  0.00  0.00     0.000 OA
ATOM     37   O  SGN C   2     139.451  30.255  45.9700  0.00  0.00     0.000 O
ENDBRANCH 22 32
BRANCH 18 38
ATOM     38  O4  IDS C   3     139.880  33.270  43.1110  0.00  0.00     0.000 O
BRANCH 38 42
ATOM     39  C1  IDS C   3     142.941  34.646  44.0400  0.00  0.00     0.000 C
ATOM     40  C2  IDS C   3     141.617  35.330  44.4200  0.00  0.00     0.000 C
ATOM     41  C3  IDS C   3     140.725  35.527  43.1950  0.00  0.00     0.000 C
ATOM     42  C4  IDS C   3     140.624  34.248  42.3750  0.00  0.00     0.000 C
ATOM     43  C5  IDS C   3     142.028  33.714  42.0690  0.00  0.00     0.000 C
ATOM     44  O5  IDS C   3     142.710  33.461  43.2960  0.00  0.00     0.000 O
ATOM     45   O  IDS C   3     141.259  36.577  42.3850  0.00  0.00     0.000 O
ATOM     47  HD  IDS C   3     142.024  36.733  42.0120  0.00  0.00     0.000 HD
BRANCH 40 47
ATOM     47   O  IDS C   3     140.864  34.500  45.3900  0.00  0.00     0.000 O
ATOM     48   S  IDS C   3     140.433  35.119  46.8000  0.00  0.00     0.000 S
ATOM     49   O  IDS C   3     141.628  35.118  47.6160  0.00  0.00     0.000 OA
ATOM     50   O  IDS C   3     139.413  34.230  47.3110  0.00  0.00     0.000 OA
ATOM     51   O  IDS C   3     139.944  36.445  46.5300  0.00  0.00     0.000 OA
ENDBRANCH 40 47
BRANCH 43 52
ATOM     52   C  IDS C   3     142.007  32.455  41.2310  0.00  0.00     0.000 C
ATOM     53   O  IDS C   3     142.149  31.376  41.7600  0.00  0.00     0.000 OA
ATOM     54   O  IDS C   3     141.848  32.533  40.0390  0.00  0.00     0.000 OA
ENDBRANCH 43 52
BRANCH 39 55
ATOM     55  O4  SGN C   4     144.037  35.311  43.6730  0.00  0.00     0.000 O
BRANCH 55 59
ATOM     56  C1  SGN C   4     147.995  35.409  42.3220  0.00  0.00     0.000 C
ATOM     57  C2  SGN C   4     146.900  35.582  41.2560  0.00  0.00     0.000 C
ATOM     58  C3  SGN C   4     145.561  35.921  41.9050  0.00  0.00     0.000 C
ATOM     59  C4  SGN C   4     145.231  34.924  43.0090  0.00  0.00     0.000 C
ATOM     60  C5  SGN C   4     146.392  34.889  44.0020  0.00  0.00     0.000 C
ATOM     61  O5  SGN C   4     147.577  34.469  43.2980  0.00  0.00     0.000 O
ATOM     62   O  SGN C   4     144.541  35.929  40.9150  0.00  0.00     0.000 O
ATOM     64  HD  SGN C   4     145.262  36.140  40.4850  0.00  0.00     0.000 HD
BRANCH 57 66
ATOM     64   N  SGN C   4     146.764  35.628  39.7910  0.00  0.00     0.000 N
ATOM     66  HD  SGN C   4     146.870  36.223  39.1710  0.00  0.00     0.000 HD
ATOM     66   S  SGN C   4     147.974  36.128  38.8780  0.00  0.00     0.000 S
ATOM     67   O  SGN C   4     147.524  36.118  37.5340  0.00  0.00     0.000 OA
ATOM     68   O  SGN C   4     148.450  37.341  39.4470  0.00  0.00     0.000 OA
ATOM     69   O  SGN C   4     149.063  35.024  39.0690  0.00  0.00     0.000 OA
ENDBRANCH 57 66
BRANCH 60 70
ATOM     70   C  SGN C   4     146.178  33.937  45.1580  0.00  0.00     0.000 C
ATOM     71   O  SGN C   4     147.953  30.681  45.7550  0.00  0.00     0.000 OA
ATOM     72   O  SGN C   4     148.375  32.808  46.8260  0.00  0.00     0.000 OA
ATOM     73   O  SGN C   4     146.887  32.703  44.9330  0.00  0.00     0.000 O
ATOM     74   S  SGN C   4     147.395  31.924  46.2340  0.00  0.00     0.000 S
ATOM     75   O  SGN C   4     146.209  31.750  47.0490  0.00  0.00     0.000 OA
ENDBRANCH 60 70
BRANCH 56 76
ATOM     76  O4  IDS C   5     148.916  36.207  42.8940  0.00  0.00     0.000 O
BRANCH 76 80
ATOM     77  C1  IDS C   5     152.006  38.695  43.8520  0.00  0.00     0.000 C
ATOM     78  C2  IDS C   5     152.319  37.694  42.7400  0.00  0.00     0.000 C
ATOM     79  C3  IDS C   5     151.028  37.142  42.1670  0.00  0.00     0.000 C
ATOM     80  C4  IDS C   5     150.306  36.323  43.2330  0.00  0.00     0.000 C
ATOM     81  C5  IDS C   5     150.469  37.007  44.5980  0.00  0.00     0.000 C
ATOM     82  O5  IDS C   5     150.734  38.403  44.4320  0.00  0.00     0.000 O
BRANCH 78 83
ATOM     83   O  IDS C   5     153.076  38.346  41.6460  0.00  0.00     0.000 O
ATOM     84   S  IDS C   5     154.604  37.960  41.3990  0.00  0.00     0.000 S
ATOM     85   O  IDS C   5     155.242  38.026  42.6870  0.00  0.00     0.000 OA
ATOM     86   O  IDS C   5     154.572  36.625  40.8490  0.00  0.00     0.000 OA
ATOM     87   O  IDS C   5     155.107  38.935  40.4630  0.00  0.00     0.000 OA
ENDBRANCH 78 83
BRANCH 81 88
ATOM     88   C  IDS C   5     149.257  36.876  45.5020  0.00  0.00     0.000 C
ATOM     89   O  IDS C   5     148.479  37.788  45.5960  0.00  0.00     0.000 OA
ATOM     90   O  IDS C   5     149.081  35.853  46.1220  0.00  0.00     0.000 OA
ENDBRANCH 81 88
ENDBRANCH 76 80
ENDBRANCH 56 76
ENDBRANCH 55 59
ENDBRANCH 39 55
ENDBRANCH 38 42
ENDBRANCH 18 38
ENDBRANCH 17 21
ENDBRANCH 1 17
TORSDOF 18
ENDMDL
MODEL 28
REMARK VINA RESULT:      -7.6      3.955      8.753
ROOT
ATOM      1  C1  IDS C   1     145.041  21.490  59.7540  0.00  0.00     0.000 C
ATOM      2  C2  IDS C   1     146.447  20.902  59.6080  0.00  0.00     0.000 C
ATOM      3  C3  IDS C   1     146.954  20.376  60.9430  0.00  0.00     0.000 C
ATOM      4  C4  IDS C   1     146.980  21.487  61.9840  0.00  0.00     0.000 C
ATOM      5  C5  IDS C   1     145.753  22.381  61.8260  0.00  0.00     0.000 C
ATOM      6  O5  IDS C   1     144.723  21.681  61.1270  0.00  0.00     0.000 O
ATOM      7   O  IDS C   1     148.269  19.827  60.7810  0.00  0.00     0.000 O
ATOM      9  HD  IDS C   1     148.308  19.438  60.0080  0.00  0.00     0.000 HD
ENDROOT
BRANCH 2 9
ATOM      9   O  IDS C   1     146.449  19.771  58.6530  0.00  0.00     0.000 O
ATOM     10   S  IDS C   1     147.517  19.747  57.4690  0.00  0.00     0.000 S
ATOM     11   O  IDS C   1     147.268  18.526  56.7360  0.00  0.00     0.000 OA
ATOM     12   O  IDS C   1     147.256  20.938  56.6860  0.00  0.00     0.000 OA
ATOM     13   O  IDS C   1     148.815  19.764  58.1070  0.00  0.00     0.000 OA
ENDBRANCH 2 9
BRANCH 5 14
ATOM     14   C  IDS C   1     145.201  22.838  63.1650  0.00  0.00     0.000 C
ATOM     15   O  IDS C   1     144.160  22.378  63.5660  0.00  0.00     0.000 OA
ATOM     16   O  IDS C   1     145.811  23.666  63.8210  0.00  0.00     0.000 OA
ENDBRANCH 5 14
BRANCH 1 17
ATOM     17  O4  SGN C   2     144.066  21.272  58.8680  0.00  0.00     0.000 O
BRANCH 17 21
ATOM     18  C1  SGN C   2     140.531  19.532  57.4510  0.00  0.00     0.000 C
ATOM     19  C2  SGN C   2     140.776  19.456  58.9630  0.00  0.00     0.000 C
ATOM     20  C3  SGN C   2     141.849  20.474  59.3680  0.00  0.00     0.000 C
ATOM     21  C4  SGN C   2     143.104  20.277  58.5260  0.00  0.00     0.000 C
ATOM     22  C5  SGN C   2     142.735  20.378  57.0490  0.00  0.00     0.000 C
ATOM     23  O5  SGN C   2     141.734  19.385  56.7260  0.00  0.00     0.000 O
ATOM     24   O  SGN C   2     142.139  20.346  60.7490  0.00  0.00     0.000 O
ATOM     26  HD  SGN C   2     141.983  20.763  60.0070  0.00  0.00     0.000 HD
BRANCH 19 28
ATOM     26   N  SGN C   2     140.064  19.120  60.2040  0.00  0.00     0.000 N
ATOM     28  HD  SGN C   2     140.772  19.537  60.4790  0.00  0.00     0.000 HD
ATOM     28   O  SGN C   2     137.904  18.763  61.3990  0.00  0.00     0.000 OA
ATOM     29   S  SGN C   2     138.717  19.874  60.6530  0.00  0.00     0.000 S
ATOM     30   O  SGN C   2     139.078  20.873  61.5840  0.00  0.00     0.000 OA
ATOM     31   O  SGN C   2     138.012  20.236  59.4720  0.00  0.00     0.000 OA
ENDBRANCH 19 28
BRANCH 22 32
ATOM     32   C  SGN C   2     143.901  20.139  56.1220  0.00  0.00     0.000 C
ATOM     33   S  SGN C   2     144.452  20.324  53.6110  0.00  0.00     0.000 S
ATOM     34   O  SGN C   2     143.739  19.111  53.2950  0.00  0.00     0.000 OA
ATOM     35   O  SGN C   2     144.294  21.366  52.6180  0.00  0.00     0.000 OA
ATOM     36   O  SGN C   2     145.823  20.113  54.0110  0.00  0.00     0.000 OA
ATOM     37   O  SGN C   2     143.717  20.884  54.9130  0.00  0.00     0.000 O
ENDBRANCH 22 32
BRANCH 18 38
ATOM     38  O4  IDS C   3     139.826  20.410  56.7350  0.00  0.00     0.000 O
BRANCH 38 42
ATOM     39  C1  IDS C   3     137.213  21.816  54.9110  0.00  0.00     0.000 C
ATOM     40  C2  IDS C   3     137.581  20.332  54.7530  0.00  0.00     0.000 C
ATOM     41  C3  IDS C   3     139.071  20.159  54.4590  0.00  0.00     0.000 C
ATOM     42  C4  IDS C   3     139.921  20.975  55.4230  0.00  0.00     0.000 C
ATOM     43  C5  IDS C   3     139.433  22.429  55.4430  0.00  0.00     0.000 C
ATOM     44  O5  IDS C   3     138.065  22.457  55.8460  0.00  0.00     0.000 O
ATOM     45   O  IDS C   3     139.338  20.568  53.1160  0.00  0.00     0.000 O
ATOM     47  HD  IDS C   3     139.200  21.289  52.6570  0.00  0.00     0.000 HD
BRANCH 40 47
ATOM     47   O  IDS C   3     137.285  19.587  56.0000  0.00  0.00     0.000 O
ATOM     48   S  IDS C   3     136.071  18.546  56.0360  0.00  0.00     0.000 S
ATOM     49   O  IDS C   3     134.867  19.343  56.1400  0.00  0.00     0.000 OA
ATOM     50   O  IDS C   3     136.300  17.734  57.2110  0.00  0.00     0.000 OA
ATOM     51   O  IDS C   3     136.140  17.798  54.8090  0.00  0.00     0.000 OA
ENDBRANCH 40 47
BRANCH 43 52
ATOM     52   C  IDS C   3     140.251  23.309  56.3620  0.00  0.00     0.000 C
ATOM     53   O  IDS C   3     139.886  23.498  57.4990  0.00  0.00     0.000 OA
ATOM     54   O  IDS C   3     141.264  23.818  55.9550  0.00  0.00     0.000 OA
ENDBRANCH 43 52
BRANCH 39 55
ATOM     55  O4  SGN C   4     136.836  22.595  53.8980  0.00  0.00     0.000 O
BRANCH 55 59
ATOM     56  C1  SGN C   4     134.406  23.535  50.6240  0.00  0.00     0.000 C
ATOM     57  C2  SGN C   4     133.788  23.735  52.0190  0.00  0.00     0.000 C
ATOM     58  C3  SGN C   4     134.871  23.743  53.0950  0.00  0.00     0.000 C
ATOM     59  C4  SGN C   4     135.772  22.521  52.9590  0.00  0.00     0.000 C
ATOM     60  C5  SGN C   4     136.333  22.479  51.5390  0.00  0.00     0.000 C
ATOM     61  O5  SGN C   4     135.227  22.378  50.6190  0.00  0.00     0.000 O
ATOM     62   O  SGN C   4     134.265  23.780  54.3800  0.00  0.00     0.000 O
ATOM     64  HD  SGN C   4     133.695  24.172  53.8600  0.00  0.00     0.000 HD
BRANCH 57 66
ATOM     64   N  SGN C   4     132.974  24.929  51.7430  0.00  0.00     0.000 N
ATOM     66  HD  SGN C   4     132.313  25.128  51.2210  0.00  0.00     0.000 HD
ATOM     66   S  SGN C   4     131.382  24.865  51.8340  0.00  0.00     0.000 S
ATOM     67   O  SGN C   4     130.883  26.137  51.4590  0.00  0.00     0.000 OA
ATOM     68   O  SGN C   4     130.970  23.711  51.1110  0.00  0.00     0.000 OA
ATOM     69   O  SGN C   4     131.106  24.627  53.3530  0.00  0.00     0.000 OA
ENDBRANCH 57 66
BRANCH 60 70
ATOM     70   C  SGN C   4     137.256  21.308  51.2810  0.00  0.00     0.000 C
ATOM     71   O  SGN C   4     136.262  17.727  50.7430  0.00  0.00     0.000 OA
ATOM     72   O  SGN C   4     136.898  19.348  49.0660  0.00  0.00     0.000 OA
ATOM     73   O  SGN C   4     136.526  20.068  51.3340  0.00  0.00     0.000 O
ATOM     74   S  SGN C   4     137.075  18.876  50.4200  0.00  0.00     0.000 S
ATOM     75   O  SGN C   4     138.465  18.727  50.8020  0.00  0.00     0.000 OA
ENDBRANCH 60 70
BRANCH 56 76
ATOM     76  O4  IDS C   5     134.834  24.343  49.6370  0.00  0.00     0.000 O
BRANCH 76 80
ATOM     77  C1  IDS C   5     136.477  25.902  46.2410  0.00  0.00     0.000 C
ATOM     78  C2  IDS C   5     137.301  24.792  46.8930  0.00  0.00     0.000 C
ATOM     79  C3  IDS C   5     136.432  23.999  47.8500  0.00  0.00     0.000 C
ATOM     80  C4  IDS C   5     136.002  24.894  49.0090  0.00  0.00     0.000 C
ATOM     81  C5  IDS C   5     135.710  26.306  48.4810  0.00  0.00     0.000 C
ATOM     82  O5  IDS C   5     135.386  26.264  47.0880  0.00  0.00     0.000 O
BRANCH 78 83
ATOM     83   O  IDS C   5     137.835  23.865  45.8680  0.00  0.00     0.000 O
ATOM     84   S  IDS C   5     139.241  23.147  46.1030  0.00  0.00     0.000 S
ATOM     85   O  IDS C   5     140.153  24.186  46.5010  0.00  0.00     0.000 OA
ATOM     86   O  IDS C   5     139.000  22.174  47.1420  0.00  0.00     0.000 OA
ATOM     87   O  IDS C   5     139.584  22.539  44.8410  0.00  0.00     0.000 OA
ENDBRANCH 78 83
BRANCH 81 88
ATOM     88   C  IDS C   5     134.570  27.007  49.1960  0.00  0.00     0.000 C
ATOM     89   O  IDS C   5     134.694  27.331  50.3460  0.00  0.00     0.000 OA
ATOM     90   O  IDS C   5     133.542  27.238  48.6010  0.00  0.00     0.000 OA
ENDBRANCH 81 88
ENDBRANCH 76 80
ENDBRANCH 56 76
ENDBRANCH 55 59
ENDBRANCH 39 55
ENDBRANCH 38 42
ENDBRANCH 18 38
ENDBRANCH 17 21
ENDBRANCH 1 17
TORSDOF 18
ENDMDL
MODEL 29
REMARK VINA RESULT:      -7.6     16.590     22.760
ROOT
ATOM      1  C1  IDS C   1     137.567  31.064  45.2920  0.00  0.00     0.000 C
ATOM      2  C2  IDS C   1     136.283  30.588  45.9770  0.00  0.00     0.000 C
ATOM      3  C3  IDS C   1     136.574  30.092  47.3860  0.00  0.00     0.000 C
ATOM      4  C4  IDS C   1     137.581  28.950  47.3560  0.00  0.00     0.000 C
ATOM      5  C5  IDS C   1     138.653  29.225  46.3070  0.00  0.00     0.000 C
ATOM      6  O5  IDS C   1     138.708  30.622  46.0160  0.00  0.00     0.000 O
ATOM      7   O  IDS C   1     135.357  29.656  48.0080  0.00  0.00     0.000 O
ATOM      9  HD  IDS C   1     134.718  30.181  47.7520  0.00  0.00     0.000 HD
ENDROOT
BRANCH 2 9
ATOM      9   O  IDS C   1     135.303  31.692  46.0870  0.00  0.00     0.000 O
ATOM     10   S  IDS C   1     133.876  31.545  45.3900  0.00  0.00     0.000 S
ATOM     11   O  IDS C   1     133.161  32.766  45.6890  0.00  0.00     0.000 OA
ATOM     12   O  IDS C   1     134.147  31.382  43.9770  0.00  0.00     0.000 OA
ATOM     13   O  IDS C   1     133.265  30.377  45.9850  0.00  0.00     0.000 OA
ENDBRANCH 2 9
BRANCH 5 14
ATOM     14   C  IDS C   1     140.031  28.775  46.7630  0.00  0.00     0.000 C
ATOM     15   O  IDS C   1     140.948  28.784  45.9800  0.00  0.00     0.000 OA
ATOM     16   O  IDS C   1     140.196  28.406  47.9140  0.00  0.00     0.000 OA
ENDBRANCH 5 14
BRANCH 1 17
ATOM     17  O4  SGN C   2     137.631  32.182  44.5630  0.00  0.00     0.000 O
BRANCH 17 21
ATOM     18  C1  SGN C   2     138.616  36.211  43.9950  0.00  0.00     0.000 C
ATOM     19  C2  SGN C   2     139.072  35.572  45.3120  0.00  0.00     0.000 C
ATOM     20  C3  SGN C   2     139.023  34.043  45.1920  0.00  0.00     0.000 C
ATOM     21  C4  SGN C   2     137.640  33.597  44.7330  0.00  0.00     0.000 C
ATOM     22  C5  SGN C   2     137.303  34.293  43.4180  0.00  0.00     0.000 C
ATOM     23  O5  SGN C   2     137.349  35.728  43.5980  0.00  0.00     0.000 O
ATOM     24   O  SGN C   2     139.361  33.451  46.4350  0.00  0.00     0.000 O
ATOM     26  HD  SGN C   2     139.365  33.546  45.5740  0.00  0.00     0.000 HD
BRANCH 19 28
ATOM     26   N  SGN C   2     139.894  36.591  45.9780  0.00  0.00     0.000 N
ATOM     28  HD  SGN C   2     139.096  36.926  45.9970  0.00  0.00     0.000 HD
ATOM     28   O  SGN C   2     141.853  37.151  47.4180  0.00  0.00     0.000 OA
ATOM     29   S  SGN C   2     140.489  36.384  47.4580  0.00  0.00     0.000 S
ATOM     30   O  SGN C   2     139.625  37.044  48.3590  0.00  0.00     0.000 OA
ATOM     31   O  SGN C   2     140.753  34.997  47.6260  0.00  0.00     0.000 OA
ENDBRANCH 19 28
BRANCH 22 32
ATOM     32   C  SGN C   2     135.923  33.964  42.9030  0.00  0.00     0.000 C
ATOM     33   S  SGN C   2     133.764  35.194  42.2210  0.00  0.00     0.000 S
ATOM     34   O  SGN C   2     133.378  35.419  43.5910  0.00  0.00     0.000 OA
ATOM     35   O  SGN C   2     133.472  36.309  41.3450  0.00  0.00     0.000 OA
ATOM     36   O  SGN C   2     133.338  33.920  41.6910  0.00  0.00     0.000 OA
ATOM     37   O  SGN C   2     135.357  35.117  42.2690  0.00  0.00     0.000 O
ENDBRANCH 22 32
BRANCH 18 38
ATOM     38  O4  IDS C   3     139.273  36.379  42.8450  0.00  0.00     0.000 O
BRANCH 38 42
ATOM     39  C1  IDS C   3     142.095  36.175  40.8150  0.00  0.00     0.000 C
ATOM     40  C2  IDS C   3     142.221  36.467  42.3190  0.00  0.00     0.000 C
ATOM     41  C3  IDS C   3     141.327  37.637  42.7310  0.00  0.00     0.000 C
ATOM     42  C4  IDS C   3     139.917  37.472  42.1820  0.00  0.00     0.000 C
ATOM     43  C5  IDS C   3     139.975  37.208  40.6730  0.00  0.00     0.000 C
ATOM     44  O5  IDS C   3     140.738  36.027  40.4350  0.00  0.00     0.000 O
ATOM     45   O  IDS C   3     141.893  38.857  42.2500  0.00  0.00     0.000 O
ATOM     47  HD  IDS C   3     142.140  39.154  41.4750  0.00  0.00     0.000 HD
BRANCH 40 47
ATOM     47   O  IDS C   3     141.806  35.288  43.1150  0.00  0.00     0.000 O
ATOM     48   S  IDS C   3     142.823  34.637  44.1630  0.00  0.00     0.000 S
ATOM     49   O  IDS C   3     143.764  33.867  43.3780  0.00  0.00     0.000 OA
ATOM     50   O  IDS C   3     142.006  33.805  45.0190  0.00  0.00     0.000 OA
ATOM     51   O  IDS C   3     143.443  35.731  44.8610  0.00  0.00     0.000 OA
ENDBRANCH 40 47
BRANCH 43 52
ATOM     52   C  IDS C   3     138.604  37.062  40.0510  0.00  0.00     0.000 C
ATOM     53   O  IDS C   3     138.037  38.033  39.6040  0.00  0.00     0.000 OA
ATOM     54   O  IDS C   3     138.082  35.977  40.0030  0.00  0.00     0.000 OA
ENDBRANCH 43 52
BRANCH 39 55
ATOM     55  O4  SGN C   4     142.860  36.747  39.8850  0.00  0.00     0.000 O
BRANCH 55 59
ATOM     56  C1  SGN C   4     146.825  37.320  41.0940  0.00  0.00     0.000 C
ATOM     57  C2  SGN C   4     146.053  38.575  40.6510  0.00  0.00     0.000 C
ATOM     58  C3  SGN C   4     144.551  38.304  40.6210  0.00  0.00     0.000 C
ATOM     59  C4  SGN C   4     144.247  37.045  39.8170  0.00  0.00     0.000 C
ATOM     60  C5  SGN C   4     145.058  35.887  40.3950  0.00  0.00     0.000 C
ATOM     61  O5  SGN C   4     146.457  36.214  40.2850  0.00  0.00     0.000 O
ATOM     62   O  SGN C   4     143.876  39.427  40.0690  0.00  0.00     0.000 O
ATOM     64  HD  SGN C   4     144.591  39.759  40.4280  0.00  0.00     0.000 HD
BRANCH 57 66
ATOM     64   N  SGN C   4     146.520  39.631  41.5630  0.00  0.00     0.000 N
ATOM     66  HD  SGN C   4     147.286  39.949  41.8120  0.00  0.00     0.000 HD
ATOM     66   S  SGN C   4     147.511  40.770  41.0460  0.00  0.00     0.000 S
ATOM     67   O  SGN C   4     147.826  41.595  42.1550  0.00  0.00     0.000 OA
ATOM     68   O  SGN C   4     148.560  40.119  40.3390  0.00  0.00     0.000 OA
ATOM     69   O  SGN C   4     146.647  41.579  40.0270  0.00  0.00     0.000 OA
ENDBRANCH 57 66
BRANCH 60 70
ATOM     70   C  SGN C   4     144.834  34.570  39.6830  0.00  0.00     0.000 C
ATOM     71   O  SGN C   4     142.627  31.746  40.8040  0.00  0.00     0.000 OA
ATOM     72   O  SGN C   4     142.149  33.408  39.1140  0.00  0.00     0.000 OA
ATOM     73   O  SGN C   4     144.090  33.664  40.5190  0.00  0.00     0.000 O
ATOM     74   S  SGN C   4     143.156  32.604  39.7700  0.00  0.00     0.000 S
ATOM     75   O  SGN C   4     144.039  31.920  38.8470  0.00  0.00     0.000 OA
ENDBRANCH 60 70
BRANCH 56 76
ATOM     76  O4  IDS C   5     147.282  36.835  42.2630  0.00  0.00     0.000 O
BRANCH 76 80
ATOM     77  C1  IDS C   5     148.487  35.277  45.8380  0.00  0.00     0.000 C
ATOM     78  C2  IDS C   5     147.516  34.393  45.0560  0.00  0.00     0.000 C
ATOM     79  C3  IDS C   5     147.480  34.828  43.6040  0.00  0.00     0.000 C
ATOM     80  C4  IDS C   5     146.890  36.232  43.5050  0.00  0.00     0.000 C
ATOM     81  C5  IDS C   5     147.384  37.075  44.6900  0.00  0.00     0.000 C
ATOM     82  O5  IDS C   5     148.612  36.550  45.2030  0.00  0.00     0.000 O
BRANCH 78 83
ATOM     83   O  IDS C   5     147.939  32.974  45.1100  0.00  0.00     0.000 O
ATOM     84   S  IDS C   5     146.853  31.831  45.3480  0.00  0.00     0.000 S
ATOM     85   O  IDS C   5     146.066  32.261  46.4730  0.00  0.00     0.000 OA
ATOM     86   O  IDS C   5     146.097  31.765  44.1190  0.00  0.00     0.000 OA
ATOM     87   O  IDS C   5     147.603  30.626  45.6050  0.00  0.00     0.000 OA
ENDBRANCH 78 83
BRANCH 81 88
ATOM     88   C  IDS C   5     147.618  38.536  44.3500  0.00  0.00     0.000 C
ATOM     89   O  IDS C   5     148.705  38.900  43.9900  0.00  0.00     0.000 OA
ATOM     90   O  IDS C   5     146.706  39.325  44.4440  0.00  0.00     0.000 OA
ENDBRANCH 81 88
ENDBRANCH 76 80
ENDBRANCH 56 76
ENDBRANCH 55 59
ENDBRANCH 39 55
ENDBRANCH 38 42
ENDBRANCH 18 38
ENDBRANCH 17 21
ENDBRANCH 1 17
TORSDOF 18
ENDMDL
MODEL 30
REMARK VINA RESULT:      -7.5     21.339     23.540
ROOT
ATOM      1  C1  IDS C   1     148.396  34.911  72.5720  0.00  0.00     0.000 C
ATOM      2  C2  IDS C   1     149.901  34.637  72.5110  0.00  0.00     0.000 C
ATOM      3  C3  IDS C   1     150.689  35.938  72.5290  0.00  0.00     0.000 C
ATOM      4  C4  IDS C   1     150.292  36.823  71.3560  0.00  0.00     0.000 C
ATOM      5  C5  IDS C   1     148.787  36.737  71.1210  0.00  0.00     0.000 C
ATOM      6  O5  IDS C   1     148.131  36.283  72.3050  0.00  0.00     0.000 O
ATOM      7   O  IDS C   1     152.094  35.655  72.4760  0.00  0.00     0.000 O
ATOM      9  HD  IDS C   1     152.245  34.937  72.9360  0.00  0.00     0.000 HD
ENDROOT
BRANCH 2 9
ATOM      9   O  IDS C   1     150.338  33.834  73.6760  0.00  0.00     0.000 O
ATOM     10   S  IDS C   1     151.176  32.499  73.4370  0.00  0.00     0.000 S
ATOM     11   O  IDS C   1     151.455  31.966  74.7520  0.00  0.00     0.000 OA
ATOM     12   O  IDS C   1     150.319  31.637  72.6490  0.00  0.00     0.000 OA
ATOM     13   O  IDS C   1     152.371  32.904  72.7310  0.00  0.00     0.000 OA
ENDBRANCH 2 9
BRANCH 5 14
ATOM     14   C  IDS C   1     148.191  38.077  70.7250  0.00  0.00     0.000 C
ATOM     15   O  IDS C   1     148.447  39.058  71.3800  0.00  0.00     0.000 OA
ATOM     16   O  IDS C   1     147.459  38.150  69.7520  0.00  0.00     0.000 OA
ENDBRANCH 5 14
BRANCH 1 17
ATOM     17  O4  SGN C   2     147.558  34.208  73.3390  0.00  0.00     0.000 O
BRANCH 17 21
ATOM     18  C1  SGN C   2     145.201  33.450  76.7150  0.00  0.00     0.000 C
ATOM     19  C2  SGN C   2     145.596  34.911  76.4670  0.00  0.00     0.000 C
ATOM     20  C3  SGN C   2     146.070  35.082  75.0180  0.00  0.00     0.000 C
ATOM     21  C4  SGN C   2     147.175  34.080  74.7060  0.00  0.00     0.000 C
ATOM     22  C5  SGN C   2     146.663  32.670  74.9860  0.00  0.00     0.000 C
ATOM     23  O5  SGN C   2     146.247  32.567  76.3680  0.00  0.00     0.000 O
ATOM     24   O  SGN C   2     146.517  36.412  74.8110  0.00  0.00     0.000 O
ATOM     26  HD  SGN C   2     146.107  35.673  74.6190  0.00  0.00     0.000 HD
BRANCH 19 28
ATOM     26   N  SGN C   2     144.596  35.625  77.2740  0.00  0.00     0.000 N
ATOM     28  HD  SGN C   2     144.722  34.886  77.7070  0.00  0.00     0.000 HD
ATOM     28   O  SGN C   2     143.674  37.786  78.1110  0.00  0.00     0.000 OA
ATOM     29   S  SGN C   2     144.970  36.909  78.1650  0.00  0.00     0.000 S
ATOM     30   O  SGN C   2     145.160  36.465  79.4930  0.00  0.00     0.000 OA
ATOM     31   O  SGN C   2     146.017  37.606  77.5010  0.00  0.00     0.000 OA
ENDBRANCH 19 28
BRANCH 22 32
ATOM     32   C  SGN C   2     147.703  31.600  74.7640  0.00  0.00     0.000 C
ATOM     33   S  SGN C   2     148.874  29.728  76.0930  0.00  0.00     0.000 S
ATOM     34   O  SGN C   2     149.738  30.658  76.7750  0.00  0.00     0.000 OA
ATOM     35   O  SGN C   2     148.407  28.644  76.9330  0.00  0.00     0.000 OA
ATOM     36   O  SGN C   2     149.376  29.287  74.8130  0.00  0.00     0.000 OA
ATOM     37   O  SGN C   2     147.565  30.579  75.7580  0.00  0.00     0.000 O
ENDBRANCH 22 32
BRANCH 18 38
ATOM     38  O4  IDS C   3     144.092  32.788  76.3780  0.00  0.00     0.000 O
BRANCH 38 42
ATOM     39  C1  IDS C   3     140.860  32.094  75.2820  0.00  0.00     0.000 C
ATOM     40  C2  IDS C   3     141.147  33.300  76.1920  0.00  0.00     0.000 C
ATOM     41  C3  IDS C   3     141.928  32.881  77.4370  0.00  0.00     0.000 C
ATOM     42  C4  IDS C   3     143.116  32.002  77.0710  0.00  0.00     0.000 C
ATOM     43  C5  IDS C   3     142.651  30.842  76.1820  0.00  0.00     0.000 C
ATOM     44  O5  IDS C   3     142.047  31.371  75.0030  0.00  0.00     0.000 O
ATOM     45   O  IDS C   3     141.059  32.173  78.3230  0.00  0.00     0.000 O
ATOM     47  HD  IDS C   3     140.548  31.477  78.2540  0.00  0.00     0.000 HD
BRANCH 40 47
ATOM     47   O  IDS C   3     141.961  34.310  75.4750  0.00  0.00     0.000 O
ATOM     48   S  IDS C   3     141.387  35.787  75.2600  0.00  0.00     0.000 S
ATOM     49   O  IDS C   3     140.429  35.688  74.1800  0.00  0.00     0.000 OA
ATOM     50   O  IDS C   3     142.535  36.594  74.9070  0.00  0.00     0.000 OA
ATOM     51   O  IDS C   3     140.784  36.175  76.5070  0.00  0.00     0.000 OA
ENDBRANCH 40 47
BRANCH 43 52
ATOM     52   C  IDS C   3     143.778  29.908  75.8010  0.00  0.00     0.000 C
ATOM     53   O  IDS C   3     144.174  29.876  74.6580  0.00  0.00     0.000 OA
ATOM     54   O  IDS C   3     144.276  29.200  76.6390  0.00  0.00     0.000 OA
ENDBRANCH 43 52
BRANCH 39 55
ATOM     55  O4  SGN C   4     139.772  31.331  75.3880  0.00  0.00     0.000 O
BRANCH 55 59
ATOM     56  C1  SGN C   4     135.596  31.104  75.5100  0.00  0.00     0.000 C
ATOM     57  C2  SGN C   4     136.198  32.408  74.9580  0.00  0.00     0.000 C
ATOM     58  C3  SGN C   4     137.669  32.216  74.6010  0.00  0.00     0.000 C
ATOM     59  C4  SGN C   4     138.430  31.601  75.7700  0.00  0.00     0.000 C
ATOM     60  C5  SGN C   4     137.735  30.304  76.1800  0.00  0.00     0.000 C
ATOM     61  O5  SGN C   4     136.388  30.621  76.5830  0.00  0.00     0.000 O
ATOM     62   O  SGN C   4     138.237  33.467  74.2350  0.00  0.00     0.000 O
ATOM     64  HD  SGN C   4     137.399  33.541  74.0290  0.00  0.00     0.000 HD
BRANCH 57 66
ATOM     64   N  SGN C   4     135.118  32.656  73.9900  0.00  0.00     0.000 N
ATOM     66  HD  SGN C   4     134.280  32.871  74.0290  0.00  0.00     0.000 HD
ATOM     66   S  SGN C   4     134.284  34.016  74.0360  0.00  0.00     0.000 S
ATOM     67   O  SGN C   4     133.286  33.936  73.0320  0.00  0.00     0.000 OA
ATOM     68   O  SGN C   4     133.898  34.223  75.3890  0.00  0.00     0.000 OA
ATOM     69   O  SGN C   4     135.331  35.106  73.6410  0.00  0.00     0.000 OA
ENDBRANCH 57 66
BRANCH 60 70
ATOM     70   C  SGN C   4     138.407  29.590  77.3330  0.00  0.00     0.000 C
ATOM     71   O  SGN C   4     139.740  26.078  77.3410  0.00  0.00     0.000 OA
ATOM     72   O  SGN C   4     140.997  28.132  77.1190  0.00  0.00     0.000 OA
ATOM     73   O  SGN C   4     138.591  28.195  77.0240  0.00  0.00     0.000 O
ATOM     74   S  SGN C   4     139.848  27.474  77.6990  0.00  0.00     0.000 S
ATOM     75   O  SGN C   4     139.698  27.720  79.1190  0.00  0.00     0.000 OA
ENDBRANCH 60 70
BRANCH 56 76
ATOM     76  O4  IDS C   5     134.932  30.055  74.9910  0.00  0.00     0.000 O
BRANCH 76 80
ATOM     77  C1  IDS C   5     132.542  27.232  73.2660  0.00  0.00     0.000 C
ATOM     78  C2  IDS C   5     131.808  28.496  73.7140  0.00  0.00     0.000 C
ATOM     79  C3  IDS C   5     132.803  29.622  73.9210  0.00  0.00     0.000 C
ATOM     80  C4  IDS C   5     133.729  29.278  75.0840  0.00  0.00     0.000 C
ATOM     81  C5  IDS C   5     134.055  27.778  75.0480  0.00  0.00     0.000 C
ATOM     82  O5  IDS C   5     133.893  27.260  73.7240  0.00  0.00     0.000 O
BRANCH 78 83
ATOM     83   O  IDS C   5     130.825  28.922  72.6920  0.00  0.00     0.000 O
ATOM     84   S  IDS C   5     129.263  28.791  72.9900  0.00  0.00     0.000 S
ATOM     85   O  IDS C   5     129.066  27.455  73.4860  0.00  0.00     0.000 OA
ATOM     86   O  IDS C   5     128.979  29.810  73.9740  0.00  0.00     0.000 OA
ATOM     87   O  IDS C   5     128.603  29.034  71.7310  0.00  0.00     0.000 OA
ENDBRANCH 78 83
BRANCH 81 88
ATOM     88   C  IDS C   5     135.465  27.444  75.5000  0.00  0.00     0.000 C
ATOM     89   O  IDS C   5     135.675  27.169  76.6510  0.00  0.00     0.000 OA
ATOM     90   O  IDS C   5     136.370  27.455  74.6980  0.00  0.00     0.000 OA
ENDBRANCH 81 88
ENDBRANCH 76 80
ENDBRANCH 56 76
ENDBRANCH 55 59
ENDBRANCH 39 55
ENDBRANCH 38 42
ENDBRANCH 18 38
ENDBRANCH 17 21
ENDBRANCH 1 17
TORSDOF 18
ENDMDL
MODEL 31
REMARK VINA RESULT:      -7.5     25.819     30.792
ROOT
ATOM      1  C1  IDS C   1     166.807  19.303  76.7740  0.00  0.00     0.000 C
ATOM      2  C2  IDS C   1     167.513  17.986  77.1090  0.00  0.00     0.000 C
ATOM      3  C3  IDS C   1     168.748  17.799  76.2390  0.00  0.00     0.000 C
ATOM      4  C4  IDS C   1     168.371  17.805  74.7640  0.00  0.00     0.000 C
ATOM      5  C5  IDS C   1     167.293  18.852  74.5040  0.00  0.00     0.000 C
ATOM      6  O5  IDS C   1     167.294  19.828  75.5460  0.00  0.00     0.000 O
ATOM      7   O  IDS C   1     169.394  16.562  76.5740  0.00  0.00     0.000 O
ATOM      9  HD  IDS C   1     169.323  16.441  77.4290  0.00  0.00     0.000 HD
ENDROOT
BRANCH 2 9
ATOM      9   O  IDS C   1     167.956  17.971  78.5220  0.00  0.00     0.000 O
ATOM     10   S  IDS C   1     167.340  16.894  79.5240  0.00  0.00     0.000 S
ATOM     11   O  IDS C   1     167.978  17.130  80.8000  0.00  0.00     0.000 OA
ATOM     12   O  IDS C   1     165.915  17.155  79.5480  0.00  0.00     0.000 OA
ATOM     13   O  IDS C   1     167.667  15.601  78.9640  0.00  0.00     0.000 OA
ENDBRANCH 2 9
BRANCH 5 14
ATOM     14   C  IDS C   1     167.493  19.564  73.1770  0.00  0.00     0.000 C
ATOM     15   O  IDS C   1     166.530  19.943  72.5550  0.00  0.00     0.000 OA
ATOM     16   O  IDS C   1     168.621  19.743  72.7500  0.00  0.00     0.000 OA
ENDBRANCH 5 14
BRANCH 1 17
ATOM     17  O4  SGN C   2     166.325  20.128  77.7070  0.00  0.00     0.000 O
BRANCH 17 21
ATOM     18  C1  SGN C   2     166.715  23.689  79.8740  0.00  0.00     0.000 C
ATOM     19  C2  SGN C   2     167.914  23.275  79.0120  0.00  0.00     0.000 C
ATOM     20  C3  SGN C   2     167.476  22.226  77.9830  0.00  0.00     0.000 C
ATOM     21  C4  SGN C   2     166.784  21.061  78.6820  0.00  0.00     0.000 C
ATOM     22  C5  SGN C   2     165.612  21.597  79.5000  0.00  0.00     0.000 C
ATOM     23  O5  SGN C   2     166.089  22.567  80.4610  0.00  0.00     0.000 O
ATOM     24   O  SGN C   2     168.599  21.778  77.2420  0.00  0.00     0.000 O
ATOM     26  HD  SGN C   2     167.782  22.039  77.3650  0.00  0.00     0.000 HD
BRANCH 19 28
ATOM     26   N  SGN C   2     168.687  24.523  78.9580  0.00  0.00     0.000 N
ATOM     28  HD  SGN C   2     168.421  24.481  79.7810  0.00  0.00     0.000 HD
ATOM     28   O  SGN C   2     170.595  25.815  78.0030  0.00  0.00     0.000 OA
ATOM     29   S  SGN C   2     170.292  24.535  78.8530  0.00  0.00     0.000 S
ATOM     30   O  SGN C   2     170.802  24.727  80.1560  0.00  0.00     0.000 OA
ATOM     31   O  SGN C   2     170.684  23.391  78.1050  0.00  0.00     0.000 OA
ENDBRANCH 19 28
BRANCH 22 32
ATOM     32   C  SGN C   2     164.890  20.527  80.2820  0.00  0.00     0.000 C
ATOM     33   S  SGN C   2     164.702  19.700  82.7160  0.00  0.00     0.000 S
ATOM     34   O  SGN C   2     165.977  19.030  82.6590  0.00  0.00     0.000 OA
ATOM     35   O  SGN C   2     164.442  20.348  83.9840  0.00  0.00     0.000 OA
ATOM     36   O  SGN C   2     163.596  18.902  82.2410  0.00  0.00     0.000 OA
ATOM     37   O  SGN C   2     164.838  20.895  81.6660  0.00  0.00     0.000 O
ENDBRANCH 22 32
BRANCH 18 38
ATOM     38  O4  IDS C   3     165.705  24.519  79.6050  0.00  0.00     0.000 O
BRANCH 38 42
ATOM     39  C1  IDS C   3     163.940  27.035  77.9670  0.00  0.00     0.000 C
ATOM     40  C2  IDS C   3     165.460  27.136  78.1670  0.00  0.00     0.000 C
ATOM     41  C3  IDS C   3     165.839  26.927  79.6330  0.00  0.00     0.000 C
ATOM     42  C4  IDS C   3     165.154  25.695  80.2090  0.00  0.00     0.000 C
ATOM     43  C5  IDS C   3     163.647  25.765  79.9380  0.00  0.00     0.000 C
ATOM     44  O5  IDS C   3     163.428  25.839  78.5300  0.00  0.00     0.000 O
ATOM     45   O  IDS C   3     165.468  28.082  80.3880  0.00  0.00     0.000 O
ATOM     47  HD  IDS C   3     164.733  28.523  80.5090  0.00  0.00     0.000 HD
BRANCH 40 47
ATOM     47   O  IDS C   3     166.160  26.098  77.3740  0.00  0.00     0.000 O
ATOM     48   S  IDS C   3     167.174  26.532  76.2150  0.00  0.00     0.000 S
ATOM     49   O  IDS C   3     166.349  26.935  75.0960  0.00  0.00     0.000 OA
ATOM     50   O  IDS C   3     167.954  25.347  75.9290  0.00  0.00     0.000 OA
ATOM     51   O  IDS C   3     167.961  27.613  76.7460  0.00  0.00     0.000 OA
ENDBRANCH 40 47
BRANCH 43 52
ATOM     52   C  IDS C   3     162.894  24.583  80.5080  0.00  0.00     0.000 C
ATOM     53   O  IDS C   3     161.840  24.247  80.0180  0.00  0.00     0.000 OA
ATOM     54   O  IDS C   3     163.349  23.981  81.4470  0.00  0.00     0.000 OA
ENDBRANCH 43 52
BRANCH 39 55
ATOM     55  O4  SGN C   4     163.112  28.075  78.0580  0.00  0.00     0.000 O
BRANCH 55 59
ATOM     56  C1  SGN C   4     160.674  30.213  75.4140  0.00  0.00     0.000 C
ATOM     57  C2  SGN C   4     160.341  30.339  76.9100  0.00  0.00     0.000 C
ATOM     58  C3  SGN C   4     161.508  29.855  77.7670  0.00  0.00     0.000 C
ATOM     59  C4  SGN C   4     161.961  28.469  77.3240  0.00  0.00     0.000 C
ATOM     60  C5  SGN C   4     162.285  28.512  75.8320  0.00  0.00     0.000 C
ATOM     61  O5  SGN C   4     161.090  28.889  75.1200  0.00  0.00     0.000 O
ATOM     62   O  SGN C   4     161.121  29.842  79.1350  0.00  0.00     0.000 O
ATOM     64  HD  SGN C   4     160.635  30.464  78.7780  0.00  0.00     0.000 HD
BRANCH 57 66
ATOM     64   N  SGN C   4     159.242  31.148  76.3580  0.00  0.00     0.000 N
ATOM     66  HD  SGN C   4     158.403  31.268  76.5370  0.00  0.00     0.000 HD
ATOM     66   S  SGN C   4     158.399  32.122  77.3000  0.00  0.00     0.000 S
ATOM     67   O  SGN C   4     157.384  32.710  76.5030  0.00  0.00     0.000 OA
ATOM     68   O  SGN C   4     158.036  31.374  78.4540  0.00  0.00     0.000 OA
ATOM     69   O  SGN C   4     159.430  33.218  77.7180  0.00  0.00     0.000 OA
ENDBRANCH 57 66
BRANCH 60 70
ATOM     70   C  SGN C   4     162.759  27.189  75.2710  0.00  0.00     0.000 C
ATOM     71   O  SGN C   4     161.078  25.133  72.6150  0.00  0.00     0.000 OA
ATOM     72   O  SGN C   4     162.992  26.590  72.3610  0.00  0.00     0.000 OA
ATOM     73   O  SGN C   4     161.748  26.608  74.4250  0.00  0.00     0.000 O
ATOM     74   S  SGN C   4     162.265  25.686  73.2250  0.00  0.00     0.000 S
ATOM     75   O  SGN C   4     163.107  24.691  73.8580  0.00  0.00     0.000 OA
ENDBRANCH 60 70
BRANCH 56 76
ATOM     76  O4  IDS C   5     161.194  31.021  74.4730  0.00  0.00     0.000 O
BRANCH 76 80
ATOM     77  C1  IDS C   5     165.146  30.863  73.4630  0.00  0.00     0.000 C
ATOM     78  C2  IDS C   5     164.807  31.894  74.5390  0.00  0.00     0.000 C
ATOM     79  C3  IDS C   5     163.453  31.580  75.1450  0.00  0.00     0.000 C
ATOM     80  C4  IDS C   5     162.367  31.753  74.0870  0.00  0.00     0.000 C
ATOM     81  C5  IDS C   5     162.891  31.252  72.7330  0.00  0.00     0.000 C
ATOM     82  O5  IDS C   5     163.948  30.305  72.9230  0.00  0.00     0.000 O
BRANCH 78 83
ATOM     83   O  IDS C   5     165.820  31.875  75.6200  0.00  0.00     0.000 O
ATOM     84   S  IDS C   5     166.735  33.157  75.8720  0.00  0.00     0.000 S
ATOM     85   O  IDS C   5     167.247  33.537  74.5830  0.00  0.00     0.000 OA
ATOM     86   O  IDS C   5     165.852  34.145  76.4460  0.00  0.00     0.000 OA
ATOM     87   O  IDS C   5     167.762  32.730  76.7900  0.00  0.00     0.000 OA
ENDBRANCH 78 83
BRANCH 81 88
ATOM     88   C  IDS C   5     161.833  30.589  71.8710  0.00  0.00     0.000 C
ATOM     89   O  IDS C   5     160.959  31.252  71.3800  0.00  0.00     0.000 OA
ATOM     90   O  IDS C   5     161.876  29.395  71.6820  0.00  0.00     0.000 OA
ENDBRANCH 81 88
ENDBRANCH 76 80
ENDBRANCH 56 76
ENDBRANCH 55 59
ENDBRANCH 39 55
ENDBRANCH 38 42
ENDBRANCH 18 38
ENDBRANCH 17 21
ENDBRANCH 1 17
TORSDOF 18
ENDMDL
MODEL 32
REMARK VINA RESULT:      -7.5      4.441     13.991
ROOT
ATOM      1  C1  IDS C   1     143.677  21.715  55.9570  0.00  0.00     0.000 C
ATOM      2  C2  IDS C   1     143.028  22.244  57.2390  0.00  0.00     0.000 C
ATOM      3  C3  IDS C   1     141.516  22.323  57.0860  0.00  0.00     0.000 C
ATOM      4  C4  IDS C   1     141.140  23.229  55.9220  0.00  0.00     0.000 C
ATOM      5  C5  IDS C   1     142.108  23.018  54.7610  0.00  0.00     0.000 C
ATOM      6  O5  IDS C   1     142.749  21.748  54.8810  0.00  0.00     0.000 O
ATOM      7   O  IDS C   1     140.931  22.816  58.2990  0.00  0.00     0.000 O
ATOM      9  HD  IDS C   1     141.381  22.499  58.9680  0.00  0.00     0.000 HD
ENDROOT
BRANCH 2 9
ATOM      9   O  IDS C   1     143.315  21.350  58.3830  0.00  0.00     0.000 O
ATOM     10   S  IDS C   1     143.927  21.962  59.7220  0.00  0.00     0.000 S
ATOM     11   O  IDS C   1     144.074  20.851  60.6350  0.00  0.00     0.000 OA
ATOM     12   O  IDS C   1     145.195  22.548  59.3380  0.00  0.00     0.000 OA
ATOM     13   O  IDS C   1     142.969  22.943  60.1820  0.00  0.00     0.000 OA
ENDBRANCH 2 9
BRANCH 5 14
ATOM     14   C  IDS C   1     141.409  23.079  53.4140  0.00  0.00     0.000 C
ATOM     15   O  IDS C   1     141.673  23.974  52.6480  0.00  0.00     0.000 OA
ATOM     16   O  IDS C   1     140.587  22.228  53.1190  0.00  0.00     0.000 OA
ENDBRANCH 5 14
BRANCH 1 17
ATOM     17  O4  SGN C   2     144.663  20.813  55.9600  0.00  0.00     0.000 O
BRANCH 17 21
ATOM     18  C1  SGN C   2     146.352  16.984  56.0560  0.00  0.00     0.000 C
ATOM     19  C2  SGN C   2     144.897  17.081  55.5810  0.00  0.00     0.000 C
ATOM     20  C3  SGN C   2     144.570  18.530  55.2000  0.00  0.00     0.000 C
ATOM     21  C4  SGN C   2     144.910  19.466  56.3540  0.00  0.00     0.000 C
ATOM     22  C5  SGN C   2     146.377  19.281  56.7300  0.00  0.00     0.000 C
ATOM     23  O5  SGN C   2     146.618  17.902  57.0950  0.00  0.00     0.000 O
ATOM     24   O  SGN C   2     143.202  18.639  54.8430  0.00  0.00     0.000 O
ATOM     26  HD  SGN C   2     144.054  18.783  54.7770  0.00  0.00     0.000 HD
BRANCH 19 28
ATOM     26   N  SGN C   2     144.737  15.807  54.8670  0.00  0.00     0.000 N
ATOM     28  HD  SGN C   2     145.299  15.619  55.4990  0.00  0.00     0.000 HD
ATOM     28   O  SGN C   2     143.280  14.253  53.5680  0.00  0.00     0.000 OA
ATOM     29   S  SGN C   2     143.399  14.921  54.9790  0.00  0.00     0.000 S
ATOM     30   O  SGN C   2     143.636  13.912  55.9380  0.00  0.00     0.000 OA
ATOM     31   O  SGN C   2     142.305  15.812  55.1530  0.00  0.00     0.000 OA
ENDBRANCH 19 28
BRANCH 22 32
ATOM     32   C  SGN C   2     146.803  20.124  57.9070  0.00  0.00     0.000 C
ATOM     33   S  SGN C   2     148.099  19.851  60.1180  0.00  0.00     0.000 S
ATOM     34   O  SGN C   2     146.986  19.208  60.7710  0.00  0.00     0.000 OA
ATOM     35   O  SGN C   2     149.385  19.285  60.4710  0.00  0.00     0.000 OA
ATOM     36   O  SGN C   2     148.068  21.293  60.1850  0.00  0.00     0.000 OA
ATOM     37   O  SGN C   2     147.906  19.498  58.5730  0.00  0.00     0.000 O
ENDBRANCH 22 32
BRANCH 18 38
ATOM     38  O4  IDS C   3     147.487  16.950  55.3540  0.00  0.00     0.000 O
BRANCH 38 42
ATOM     39  C1  IDS C   3     150.498  16.218  53.7650  0.00  0.00     0.000 C
ATOM     40  C2  IDS C   3     150.395  16.232  55.2990  0.00  0.00     0.000 C
ATOM     41  C3  IDS C   3     149.782  17.540  55.8000  0.00  0.00     0.000 C
ATOM     42  C4  IDS C   3     148.518  17.888  55.0260  0.00  0.00     0.000 C
ATOM     43  C5  IDS C   3     148.802  17.846  53.5200  0.00  0.00     0.000 C
ATOM     44  O5  IDS C   3     149.254  16.540  53.1660  0.00  0.00     0.000 O
ATOM     45   O  IDS C   3     150.737  18.593  55.6610  0.00  0.00     0.000 O
ATOM     47  HD  IDS C   3     151.204  18.914  55.0060  0.00  0.00     0.000 HD
BRANCH 40 47
ATOM     47   O  IDS C   3     149.530  15.126  55.7720  0.00  0.00     0.000 O
ATOM     48   S  IDS C   3     150.087  13.627  55.7770  0.00  0.00     0.000 S
ATOM     49   O  IDS C   3     150.032  13.178  54.4020  0.00  0.00     0.000 OA
ATOM     50   O  IDS C   3     149.186  12.889  56.6360  0.00  0.00     0.000 OA
ATOM     51   O  IDS C   3     151.429  13.693  56.2890  0.00  0.00     0.000 OA
ENDBRANCH 40 47
BRANCH 43 52
ATOM     52   C  IDS C   3     147.595  18.209  52.6850  0.00  0.00     0.000 C
ATOM     53   O  IDS C   3     147.395  17.643  51.6350  0.00  0.00     0.000 OA
ATOM     54   O  IDS C   3     146.836  19.062  53.0710  0.00  0.00     0.000 OA
ENDBRANCH 43 52
BRANCH 39 55
ATOM     55  O4  SGN C   4     151.557  16.668  53.0920  0.00  0.00     0.000 O
BRANCH 55 59
ATOM     56  C1  SGN C   4     155.556  16.253  51.9340  0.00  0.00     0.000 C
ATOM     57  C2  SGN C   4     154.796  14.956  52.2600  0.00  0.00     0.000 C
ATOM     58  C3  SGN C   4     153.290  15.200  52.2760  0.00  0.00     0.000 C
ATOM     59  C4  SGN C   4     152.948  16.387  53.1690  0.00  0.00     0.000 C
ATOM     60  C5  SGN C   4     153.750  17.600  52.7020  0.00  0.00     0.000 C
ATOM     61  O5  SGN C   4     155.152  17.286  52.8190  0.00  0.00     0.000 O
ATOM     62   O  SGN C   4     152.623  14.027  52.7230  0.00  0.00     0.000 O
ATOM     64  HD  SGN C   4     153.350  13.735  52.3550  0.00  0.00     0.000 HD
BRANCH 57 66
ATOM     64   N  SGN C   4     155.791  14.297  51.3980  0.00  0.00     0.000 N
ATOM     66  HD  SGN C   4     156.560  13.915  51.5100  0.00  0.00     0.000 HD
ATOM     66   S  SGN C   4     156.300  12.821  51.7280  0.00  0.00     0.000 S
ATOM     67   O  SGN C   4     157.288  12.488  50.7670  0.00  0.00     0.000 OA
ATOM     68   O  SGN C   4     156.633  12.794  53.1100  0.00  0.00     0.000 OA
ATOM     69   O  SGN C   4     155.035  11.933  51.5000  0.00  0.00     0.000 OA
ENDBRANCH 57 66
BRANCH 60 70
ATOM     70   C  SGN C   4     153.489  18.853  53.5100  0.00  0.00     0.000 C
ATOM     71   O  SGN C   4     154.236  19.386  57.1520  0.00  0.00     0.000 OA
ATOM     72   O  SGN C   4     155.512  20.174  55.2540  0.00  0.00     0.000 OA
ATOM     73   O  SGN C   4     153.714  18.606  54.9110  0.00  0.00     0.000 O
ATOM     74   S  SGN C   4     154.206  19.852  55.7850  0.00  0.00     0.000 S
ATOM     75   O  SGN C   4     153.216  20.884  55.5470  0.00  0.00     0.000 OA
ENDBRANCH 60 70
BRANCH 56 76
ATOM     76  O4  IDS C   5     156.031  16.836  50.8180  0.00  0.00     0.000 O
BRANCH 76 80
ATOM     77  C1  IDS C   5     159.395  18.209  48.9590  0.00  0.00     0.000 C
ATOM     78  C2  IDS C   5     159.027  18.957  50.2400  0.00  0.00     0.000 C
ATOM     79  C3  IDS C   5     158.066  18.124  51.0650  0.00  0.00     0.000 C
ATOM     80  C4  IDS C   5     156.747  17.973  50.3130  0.00  0.00     0.000 C
ATOM     81  C5  IDS C   5     157.032  17.804  48.8140  0.00  0.00     0.000 C
ATOM     82  O5  IDS C   5     158.354  17.297  48.6080  0.00  0.00     0.000 O
BRANCH 78 83
ATOM     83   O  IDS C   5     160.235  19.224  51.0560  0.00  0.00     0.000 O
ATOM     84   S  IDS C   5     160.577  20.717  51.5020  0.00  0.00     0.000 S
ATOM     85   O  IDS C   5     160.472  21.519  50.3120  0.00  0.00     0.000 OA
ATOM     86   O  IDS C   5     159.587  21.050  52.5000  0.00  0.00     0.000 OA
ATOM     87   O  IDS C   5     161.914  20.668  52.0400  0.00  0.00     0.000 OA
ENDBRANCH 78 83
BRANCH 81 88
ATOM     88   C  IDS C   5     156.068  16.871  48.1040  0.00  0.00     0.000 C
ATOM     89   O  IDS C   5     154.977  17.264  47.7900  0.00  0.00     0.000 OA
ATOM     90   O  IDS C   5     156.406  15.735  47.8590  0.00  0.00     0.000 OA
ENDBRANCH 81 88
ENDBRANCH 76 80
ENDBRANCH 56 76
ENDBRANCH 55 59
ENDBRANCH 39 55
ENDBRANCH 38 42
ENDBRANCH 18 38
ENDBRANCH 17 21
ENDBRANCH 1 17
TORSDOF 18
ENDMDL
MODEL 33
REMARK VINA RESULT:      -7.5      3.929      7.530
ROOT
ATOM      1  C1  IDS C   1     144.843  21.513  59.7410  0.00  0.00     0.000 C
ATOM      2  C2  IDS C   1     146.268  21.002  59.5110  0.00  0.00     0.000 C
ATOM      3  C3  IDS C   1     146.859  20.449  60.7990  0.00  0.00     0.000 C
ATOM      4  C4  IDS C   1     146.878  21.517  61.8830  0.00  0.00     0.000 C
ATOM      5  C5  IDS C   1     145.604  22.354  61.8160  0.00  0.00     0.000 C
ATOM      6  O5  IDS C   1     144.578  21.632  61.1330  0.00  0.00     0.000 O
ATOM      7   O  IDS C   1     148.191  19.973  60.5570  0.00  0.00     0.000 O
ATOM      9  HD  IDS C   1     148.214  19.618  59.7670  0.00  0.00     0.000 HD
ENDROOT
BRANCH 2 9
ATOM      9   O  IDS C   1     146.281  19.912  58.5090  0.00  0.00     0.000 O
ATOM     10   S  IDS C   1     147.305  19.982  57.2880  0.00  0.00     0.000 S
ATOM     11   O  IDS C   1     147.080  18.782  56.5130  0.00  0.00     0.000 OA
ATOM     12   O  IDS C   1     146.967  21.191  56.5660  0.00  0.00     0.000 OA
ATOM     13   O  IDS C   1     148.623  20.028  57.8810  0.00  0.00     0.000 OA
ENDBRANCH 2 9
BRANCH 5 14
ATOM     14   C  IDS C   1     145.091  22.728  63.1960  0.00  0.00     0.000 C
ATOM     15   O  IDS C   1     145.758  23.443  63.9040  0.00  0.00     0.000 OA
ATOM     16   O  IDS C   1     144.013  22.303  63.5780  0.00  0.00     0.000 OA
ENDBRANCH 5 14
BRANCH 1 17
ATOM     17  O4  SGN C   2     143.840  21.281  58.8890  0.00  0.00     0.000 O
BRANCH 17 21
ATOM     18  C1  SGN C   2     140.311  19.465  57.5570  0.00  0.00     0.000 C
ATOM     19  C2  SGN C   2     140.598  19.387  59.0620  0.00  0.00     0.000 C
ATOM     20  C3  SGN C   2     141.657  20.429  59.4430  0.00  0.00     0.000 C
ATOM     21  C4  SGN C   2     142.894  20.265  58.5670  0.00  0.00     0.000 C
ATOM     22  C5  SGN C   2     142.483  20.366  57.1010  0.00  0.00     0.000 C
ATOM     23  O5  SGN C   2     141.498  19.351  56.7990  0.00  0.00     0.000 O
ATOM     24   O  SGN C   2     141.987  20.300  60.8160  0.00  0.00     0.000 O
ATOM     26  HD  SGN C   2     141.802  20.717  60.0800  0.00  0.00     0.000 HD
BRANCH 19 28
ATOM     26   N  SGN C   2     139.435  19.576  59.9400  0.00  0.00     0.000 N
ATOM     28  HD  SGN C   2     139.284  20.115  59.2800  0.00  0.00     0.000 HD
ATOM     28   O  SGN C   2     137.809  18.614  61.5690  0.00  0.00     0.000 OA
ATOM     29   S  SGN C   2     138.277  18.469  60.0810  0.00  0.00     0.000 S
ATOM     30   O  SGN C   2     137.215  18.855  59.2340  0.00  0.00     0.000 OA
ATOM     31   O  SGN C   2     138.878  17.191  59.9170  0.00  0.00     0.000 OA
ENDBRANCH 19 28
BRANCH 22 32
ATOM     32   C  SGN C   2     143.629  20.159  56.1420  0.00  0.00     0.000 C
ATOM     33   S  SGN C   2     144.179  20.574  53.6590  0.00  0.00     0.000 S
ATOM     34   O  SGN C   2     143.396  19.443  53.2260  0.00  0.00     0.000 OA
ATOM     35   O  SGN C   2     144.076  21.721  52.7810  0.00  0.00     0.000 OA
ATOM     36   O  SGN C   2     145.537  20.246  54.0200  0.00  0.00     0.000 OA
ATOM     37   O  SGN C   2     143.483  21.036  55.0190  0.00  0.00     0.000 O
ENDBRANCH 22 32
BRANCH 18 38
ATOM     38  O4  IDS C   3     139.567  20.330  56.8650  0.00  0.00     0.000 O
BRANCH 38 42
ATOM     39  C1  IDS C   3     137.091  22.078  55.1500  0.00  0.00     0.000 C
ATOM     40  C2  IDS C   3     137.509  20.665  54.7140  0.00  0.00     0.000 C
ATOM     41  C3  IDS C   3     139.023  20.569  54.5280  0.00  0.00     0.000 C
ATOM     42  C4  IDS C   3     139.763  21.164  55.7180  0.00  0.00     0.000 C
ATOM     43  C5  IDS C   3     139.238  22.577  56.0020  0.00  0.00     0.000 C
ATOM     44  O5  IDS C   3     137.839  22.509  56.2740  0.00  0.00     0.000 O
ATOM     45   O  IDS C   3     139.398  21.258  53.3330  0.00  0.00     0.000 O
ATOM     47  HD  IDS C   3     139.283  22.060  53.0280  0.00  0.00     0.000 HD
BRANCH 40 47
ATOM     47   O  IDS C   3     137.123  19.668  55.7400  0.00  0.00     0.000 O
ATOM     48   S  IDS C   3     135.824  18.761  55.5200  0.00  0.00     0.000 S
ATOM     49   O  IDS C   3     134.691  19.612  55.8150  0.00  0.00     0.000 OA
ATOM     50   O  IDS C   3     135.957  17.671  56.4610  0.00  0.00     0.000 OA
ATOM     51   O  IDS C   3     135.856  18.332  54.1470  0.00  0.00     0.000 OA
ENDBRANCH 40 47
BRANCH 43 52
ATOM     52   C  IDS C   3     139.948  23.244  57.1590  0.00  0.00     0.000 C
ATOM     53   O  IDS C   3     139.354  23.455  58.1910  0.00  0.00     0.000 OA
ATOM     54   O  IDS C   3     141.105  23.563  57.0450  0.00  0.00     0.000 OA
ENDBRANCH 43 52
BRANCH 39 55
ATOM     55  O4  SGN C   4     136.785  23.055  54.2950  0.00  0.00     0.000 O
BRANCH 55 59
ATOM     56  C1  SGN C   4     133.233  22.418  52.1790  0.00  0.00     0.000 C
ATOM     57  C2  SGN C   4     134.485  22.730  51.3420  0.00  0.00     0.000 C
ATOM     58  C3  SGN C   4     135.752  22.548  52.1740  0.00  0.00     0.000 C
ATOM     59  C4  SGN C   4     135.647  23.316  53.4860  0.00  0.00     0.000 C
ATOM     60  C5  SGN C   4     134.379  22.875  54.2140  0.00  0.00     0.000 C
ATOM     61  O5  SGN C   4     133.247  23.180  53.3750  0.00  0.00     0.000 O
ATOM     62   O  SGN C   4     136.879  22.984  51.4260  0.00  0.00     0.000 O
ATOM     64  HD  SGN C   4     136.309  22.726  50.8280  0.00  0.00     0.000 HD
BRANCH 57 66
ATOM     64   N  SGN C   4     133.581  22.999  50.2120  0.00  0.00     0.000 N
ATOM     66  HD  SGN C   4     133.646  23.373  49.4340  0.00  0.00     0.000 HD
ATOM     66   S  SGN C   4     133.958  22.519  48.7380  0.00  0.00     0.000 S
ATOM     67   O  SGN C   4     132.935  22.972  47.8680  0.00  0.00     0.000 OA
ATOM     68   O  SGN C   4     135.303  22.917  48.5020  0.00  0.00     0.000 OA
ATOM     69   O  SGN C   4     133.907  20.960  48.8310  0.00  0.00     0.000 OA
ENDBRANCH 57 66
BRANCH 60 70
ATOM     70   C  SGN C   4     134.167  23.565  55.5440  0.00  0.00     0.000 C
ATOM     71   O  SGN C   4     130.885  24.203  57.2560  0.00  0.00     0.000 OA
ATOM     72   O  SGN C   4     132.493  22.466  57.7520  0.00  0.00     0.000 OA
ATOM     73   O  SGN C   4     132.764  23.807  55.7690  0.00  0.00     0.000 O
ATOM     74   S  SGN C   4     132.278  23.819  57.2920  0.00  0.00     0.000 S
ATOM     75   O  SGN C   4     133.128  24.794  57.9460  0.00  0.00     0.000 OA
ENDBRANCH 60 70
BRANCH 56 76
ATOM     76  O4  IDS C   5     132.467  21.332  52.3970  0.00  0.00     0.000 O
BRANCH 76 80
ATOM     77  C1  IDS C   5     132.703  17.325  53.1330  0.00  0.00     0.000 C
ATOM     78  C2  IDS C   5     133.184  17.744  51.7440  0.00  0.00     0.000 C
ATOM     79  C3  IDS C   5     133.471  19.233  51.7260  0.00  0.00     0.000 C
ATOM     80  C4  IDS C   5     132.172  20.005  51.9360  0.00  0.00     0.000 C
ATOM     81  C5  IDS C   5     131.299  19.265  52.9590  0.00  0.00     0.000 C
ATOM     82  O5  IDS C   5     132.105  18.435  53.8010  0.00  0.00     0.000 O
BRANCH 78 83
ATOM     83   O  IDS C   5     134.426  17.023  51.3800  0.00  0.00     0.000 O
ATOM     84   S  IDS C   5     134.507  16.231  49.9980  0.00  0.00     0.000 S
ATOM     85   O  IDS C   5     133.313  15.431  49.9300  0.00  0.00     0.000 OA
ATOM     86   O  IDS C   5     134.566  17.252  48.9790  0.00  0.00     0.000 OA
ATOM     87   O  IDS C   5     135.715  15.445  50.0680  0.00  0.00     0.000 OA
ENDBRANCH 78 83
BRANCH 81 88
ATOM     88   C  IDS C   5     130.491  20.182  53.8580  0.00  0.00     0.000 C
ATOM     89   O  IDS C   5     129.457  20.650  53.4630  0.00  0.00     0.000 OA
ATOM     90   O  IDS C   5     130.894  20.437  54.9700  0.00  0.00     0.000 OA
ENDBRANCH 81 88
ENDBRANCH 76 80
ENDBRANCH 56 76
ENDBRANCH 55 59
ENDBRANCH 39 55
ENDBRANCH 38 42
ENDBRANCH 18 38
ENDBRANCH 17 21
ENDBRANCH 1 17
TORSDOF 18
ENDMDL
MODEL 34
REMARK VINA RESULT:      -7.5     21.378     24.858
ROOT
ATOM      1  C1  IDS C   1     147.288  35.023  72.8420  0.00  0.00     0.000 C
ATOM      2  C2  IDS C   1     148.795  35.045  72.5710  0.00  0.00     0.000 C
ATOM      3  C3  IDS C   1     149.365  36.438  72.7970  0.00  0.00     0.000 C
ATOM      4  C4  IDS C   1     148.677  37.452  71.8930  0.00  0.00     0.000 C
ATOM      5  C5  IDS C   1     147.186  37.142  71.7980  0.00  0.00     0.000 C
ATOM      6  O5  IDS C   1     146.778  36.348  72.9120  0.00  0.00     0.000 O
ATOM      7   O  IDS C   1     150.776  36.433  72.5420  0.00  0.00     0.000 O
ATOM      9  HD  IDS C   1     151.099  35.677  72.8140  0.00  0.00     0.000 HD
ENDROOT
BRANCH 2 9
ATOM      9   O  IDS C   1     149.508  34.119  73.4810  0.00  0.00     0.000 O
ATOM     10   S  IDS C   1     150.423  32.967  72.8660  0.00  0.00     0.000 S
ATOM     11   O  IDS C   1     150.980  32.258  73.9970  0.00  0.00     0.000 OA
ATOM     12   O  IDS C   1     149.535  32.148  72.0680  0.00  0.00     0.000 OA
ATOM     13   O  IDS C   1     151.430  33.642  72.0760  0.00  0.00     0.000 OA
ENDBRANCH 2 9
BRANCH 5 14
ATOM     14   C  IDS C   1     146.339  38.402  71.7680  0.00  0.00     0.000 C
ATOM     15   O  IDS C   1     146.686  39.335  71.0860  0.00  0.00     0.000 OA
ATOM     16   O  IDS C   1     145.319  38.462  72.4340  0.00  0.00     0.000 OA
ENDBRANCH 5 14
BRANCH 1 17
ATOM     17  O4  SGN C   2     146.685  34.039  73.5150  0.00  0.00     0.000 O
BRANCH 17 21
ATOM     18  C1  SGN C   2     144.388  32.520  76.6680  0.00  0.00     0.000 C
ATOM     19  C2  SGN C   2     144.482  34.047  76.5610  0.00  0.00     0.000 C
ATOM     20  C3  SGN C   2     144.975  34.440  75.1630  0.00  0.00     0.000 C
ATOM     21  C4  SGN C   2     146.276  33.714  74.8410  0.00  0.00     0.000 C
ATOM     22  C5  SGN C   2     146.054  32.211  74.9770  0.00  0.00     0.000 C
ATOM     23  O5  SGN C   2     145.608  31.902  76.3180  0.00  0.00     0.000 O
ATOM     24   O  SGN C   2     145.146  35.846  75.0890  0.00  0.00     0.000 O
ATOM     26  HD  SGN C   2     144.907  35.060  74.8150  0.00  0.00     0.000 HD
BRANCH 19 28
ATOM     26   N  SGN C   2     143.310  34.468  77.3400  0.00  0.00     0.000 N
ATOM     28  HD  SGN C   2     143.542  33.718  77.7060  0.00  0.00     0.000 HD
ATOM     28   O  SGN C   2     141.936  36.313  78.3060  0.00  0.00     0.000 OA
ATOM     29   S  SGN C   2     143.368  35.685  78.3900  0.00  0.00     0.000 S
ATOM     30   O  SGN C   2     143.543  35.130  79.6770  0.00  0.00     0.000 OA
ATOM     31   O  SGN C   2     144.308  36.633  77.9000  0.00  0.00     0.000 OA
ENDBRANCH 19 28
BRANCH 22 32
ATOM     32   C  SGN C   2     147.303  31.398  74.7350  0.00  0.00     0.000 C
ATOM     33   S  SGN C   2     148.935  29.911  76.0650  0.00  0.00     0.000 S
ATOM     34   O  SGN C   2     149.592  31.047  76.6620  0.00  0.00     0.000 OA
ATOM     35   O  SGN C   2     148.772  28.792  76.9700  0.00  0.00     0.000 OA
ATOM     36   O  SGN C   2     149.466  29.534  74.7750  0.00  0.00     0.000 OA
ATOM     37   O  SGN C   2     147.451  30.422  75.7740  0.00  0.00     0.000 O
ENDBRANCH 22 32
BRANCH 18 38
ATOM     38  O4  IDS C   3     143.456  31.680  76.2120  0.00  0.00     0.000 O
BRANCH 38 42
ATOM     39  C1  IDS C   3     140.398  30.227  75.3960  0.00  0.00     0.000 C
ATOM     40  C2  IDS C   3     140.615  30.901  76.7600  0.00  0.00     0.000 C
ATOM     41  C3  IDS C   3     141.865  30.358  77.4520  0.00  0.00     0.000 C
ATOM     42  C4  IDS C   3     143.055  30.337  76.5030  0.00  0.00     0.000 C
ATOM     43  C5  IDS C   3     142.672  29.613  75.2060  0.00  0.00     0.000 C
ATOM     44  O5  IDS C   3     141.571  30.289  74.6020  0.00  0.00     0.000 O
ATOM     45   O  IDS C   3     141.605  29.037  77.9300  0.00  0.00     0.000 O
ATOM     47  HD  IDS C   3     141.329  28.299  77.5700  0.00  0.00     0.000 HD
BRANCH 40 47
ATOM     47   O  IDS C   3     140.798  32.363  76.5950  0.00  0.00     0.000 O
ATOM     48   S  IDS C   3     139.521  33.324  76.5530  0.00  0.00     0.000 S
ATOM     49   O  IDS C   3     138.952  33.172  75.2310  0.00  0.00     0.000 OA
ATOM     50   O  IDS C   3     140.039  34.655  76.7820  0.00  0.00     0.000 OA
ATOM     51   O  IDS C   3     138.638  32.873  77.5950  0.00  0.00     0.000 OA
ENDBRANCH 40 47
BRANCH 43 52
ATOM     52   C  IDS C   3     143.818  29.528  74.2220  0.00  0.00     0.000 C
ATOM     53   O  IDS C   3     143.737  30.086  73.1520  0.00  0.00     0.000 OA
ATOM     54   O  IDS C   3     144.807  28.903  74.5100  0.00  0.00     0.000 OA
ENDBRANCH 43 52
BRANCH 39 55
ATOM     55  O4  SGN C   4     139.688  29.111  75.2280  0.00  0.00     0.000 O
BRANCH 55 59
ATOM     56  C1  SGN C   4     137.325  28.097  78.5290  0.00  0.00     0.000 C
ATOM     57  C2  SGN C   4     138.297  27.018  78.0220  0.00  0.00     0.000 C
ATOM     58  C3  SGN C   4     139.352  27.628  77.1020  0.00  0.00     0.000 C
ATOM     59  C4  SGN C   4     138.694  28.466  76.0110  0.00  0.00     0.000 C
ATOM     60  C5  SGN C   4     137.791  29.507  76.6690  0.00  0.00     0.000 C
ATOM     61  O5  SGN C   4     136.783  28.815  77.4320  0.00  0.00     0.000 O
ATOM     62   O  SGN C   4     140.142  26.594  76.5320  0.00  0.00     0.000 O
ATOM     64  HD  SGN C   4     139.878  26.271  77.2910  0.00  0.00     0.000 HD
BRANCH 57 66
ATOM     64   N  SGN C   4     137.580  26.181  78.9970  0.00  0.00     0.000 N
ATOM     66  HD  SGN C   4     137.385  25.341  79.0760  0.00  0.00     0.000 HD
ATOM     66   S  SGN C   4     138.280  24.897  79.6350  0.00  0.00     0.000 S
ATOM     67   O  SGN C   4     137.330  24.270  80.4790  0.00  0.00     0.000 OA
ATOM     68   O  SGN C   4     138.856  24.161  78.5630  0.00  0.00     0.000 OA
ATOM     69   O  SGN C   4     139.431  25.496  80.5050  0.00  0.00     0.000 OA
ENDBRANCH 57 66
BRANCH 60 70
ATOM     70   C  SGN C   4     137.084  30.412  75.6830  0.00  0.00     0.000 C
ATOM     71   O  SGN C   4     133.506  31.544  75.8250  0.00  0.00     0.000 OA
ATOM     72   O  SGN C   4     135.475  32.798  76.4570  0.00  0.00     0.000 OA
ATOM     73   O  SGN C   4     135.670  30.449  75.9560  0.00  0.00     0.000 O
ATOM     74   S  SGN C   4     134.906  31.802  75.5780  0.00  0.00     0.000 S
ATOM     75   O  SGN C   4     135.214  32.023  74.1790  0.00  0.00     0.000 OA
ENDBRANCH 60 70
BRANCH 56 76
ATOM     76  O4  IDS C   5     137.250  28.892  79.6120  0.00  0.00     0.000 O
BRANCH 76 80
ATOM     77  C1  IDS C   5     137.342  31.762  82.5120  0.00  0.00     0.000 C
ATOM     78  C2  IDS C   5     138.512  31.816  81.5290  0.00  0.00     0.000 C
ATOM     79  C3  IDS C   5     138.168  31.032  80.2780  0.00  0.00     0.000 C
ATOM     80  C4  IDS C   5     138.022  29.553  80.6260  0.00  0.00     0.000 C
ATOM     81  C5  IDS C   5     137.339  29.418  81.9940  0.00  0.00     0.000 C
ATOM     82  O5  IDS C   5     136.566  30.585  82.2880  0.00  0.00     0.000 O
BRANCH 78 83
ATOM     83   O  IDS C   5     138.804  33.215  81.1390  0.00  0.00     0.000 O
ATOM     84   S  IDS C   5     140.313  33.732  81.1150  0.00  0.00     0.000 S
ATOM     85   O  IDS C   5     140.889  33.330  82.3700  0.00  0.00     0.000 OA
ATOM     86   O  IDS C   5     140.919  33.080  79.9780  0.00  0.00     0.000 OA
ATOM     87   O  IDS C   5     140.233  35.164  80.9570  0.00  0.00     0.000 OA
ENDBRANCH 78 83
BRANCH 81 88
ATOM     88   C  IDS C   5     136.416  28.218  82.1050  0.00  0.00     0.000 C
ATOM     89   O  IDS C   5     136.878  27.110  82.1660  0.00  0.00     0.000 OA
ATOM     90   O  IDS C   5     135.218  28.385  82.1340  0.00  0.00     0.000 OA
ENDBRANCH 81 88
ENDBRANCH 76 80
ENDBRANCH 56 76
ENDBRANCH 55 59
ENDBRANCH 39 55
ENDBRANCH 38 42
ENDBRANCH 18 38
ENDBRANCH 17 21
ENDBRANCH 1 17
TORSDOF 18
ENDMDL
MODEL 35
REMARK VINA RESULT:      -7.5     19.576     23.174
ROOT
ATOM      1  C1  IDS C   1     147.243  34.940  72.7220  0.00  0.00     0.000 C
ATOM      2  C2  IDS C   1     148.748  34.938  72.4380  0.00  0.00     0.000 C
ATOM      3  C3  IDS C   1     149.308  36.352  72.4840  0.00  0.00     0.000 C
ATOM      4  C4  IDS C   1     148.605  37.241  71.4670  0.00  0.00     0.000 C
ATOM      5  C5  IDS C   1     147.117  36.912  71.4240  0.00  0.00     0.000 C
ATOM      6  O5  IDS C   1     146.723  36.260  72.6310  0.00  0.00     0.000 O
ATOM      7   O  IDS C   1     150.717  36.324  72.2190  0.00  0.00     0.000 O
ATOM      9  HD  IDS C   1     151.048  35.610  72.5810  0.00  0.00     0.000 HD
ENDROOT
BRANCH 2 9
ATOM      9   O  IDS C   1     149.474  34.137  73.4490  0.00  0.00     0.000 O
ATOM     10   S  IDS C   1     150.429  32.952  72.9720  0.00  0.00     0.000 S
ATOM     11   O  IDS C   1     150.991  32.386  74.1780  0.00  0.00     0.000 OA
ATOM     12   O  IDS C   1     149.573  32.026  72.2590  0.00  0.00     0.000 OA
ATOM     13   O  IDS C   1     151.426  33.566  72.1230  0.00  0.00     0.000 OA
ENDBRANCH 2 9
BRANCH 5 14
ATOM     14   C  IDS C   1     146.260  38.153  71.2450  0.00  0.00     0.000 C
ATOM     15   O  IDS C   1     146.564  39.172  71.8170  0.00  0.00     0.000 OA
ATOM     16   O  IDS C   1     145.273  38.110  70.5300  0.00  0.00     0.000 OA
ENDBRANCH 5 14
BRANCH 1 17
ATOM     17  O4  SGN C   2     146.652  34.043  73.5170  0.00  0.00     0.000 O
BRANCH 17 21
ATOM     18  C1  SGN C   2     144.681  32.788  76.9910  0.00  0.00     0.000 C
ATOM     19  C2  SGN C   2     144.777  34.302  76.7650  0.00  0.00     0.000 C
ATOM     20  C3  SGN C   2     145.125  34.587  75.2980  0.00  0.00     0.000 C
ATOM     21  C4  SGN C   2     146.380  33.820  74.8980  0.00  0.00     0.000 C
ATOM     22  C5  SGN C   2     146.161  32.333  75.1650  0.00  0.00     0.000 C
ATOM     23  O5  SGN C   2     145.853  32.127  76.5630  0.00  0.00     0.000 O
ATOM     24   O  SGN C   2     145.299  35.981  75.1060  0.00  0.00     0.000 O
ATOM     26  HD  SGN C   2     145.027  35.181  74.9150  0.00  0.00     0.000 HD
BRANCH 19 28
ATOM     26   N  SGN C   2     143.572  34.842  77.4090  0.00  0.00     0.000 N
ATOM     28  HD  SGN C   2     143.537  33.995  77.5850  0.00  0.00     0.000 HD
ATOM     28   O  SGN C   2     142.444  36.726  78.5930  0.00  0.00     0.000 OA
ATOM     29   S  SGN C   2     143.639  35.726  78.7510  0.00  0.00     0.000 S
ATOM     30   O  SGN C   2     143.369  34.868  79.8400  0.00  0.00     0.000 OA
ATOM     31   O  SGN C   2     144.854  36.464  78.7220  0.00  0.00     0.000 OA
ENDBRANCH 19 28
BRANCH 22 32
ATOM     32   C  SGN C   2     147.371  31.486  74.8550  0.00  0.00     0.000 C
ATOM     33   S  SGN C   2     148.951  29.848  76.0650  0.00  0.00     0.000 S
ATOM     34   O  SGN C   2     149.661  30.914  76.7260  0.00  0.00     0.000 OA
ATOM     35   O  SGN C   2     148.748  28.681  76.8990  0.00  0.00     0.000 OA
ATOM     36   O  SGN C   2     149.452  29.534  74.7480  0.00  0.00     0.000 OA
ATOM     37   O  SGN C   2     147.487  30.440  75.8270  0.00  0.00     0.000 O
ENDBRANCH 22 32
BRANCH 18 38
ATOM     38  O4  IDS C   3     143.700  31.933  76.6950  0.00  0.00     0.000 O
BRANCH 38 42
ATOM     39  C1  IDS C   3     140.580  30.690  75.7750  0.00  0.00     0.000 C
ATOM     40  C2  IDS C   3     140.705  31.904  76.7090  0.00  0.00     0.000 C
ATOM     41  C3  IDS C   3     141.630  31.602  77.8870  0.00  0.00     0.000 C
ATOM     42  C4  IDS C   3     142.930  30.965  77.4170  0.00  0.00     0.000 C
ATOM     43  C5  IDS C   3     142.623  29.763  76.5150  0.00  0.00     0.000 C
ATOM     44  O5  IDS C   3     141.856  30.203  75.3960  0.00  0.00     0.000 O
ATOM     45   O  IDS C   3     140.965  30.726  78.7980  0.00  0.00     0.000 O
ATOM     47  HD  IDS C   3     140.584  29.951  78.7340  0.00  0.00     0.000 HD
BRANCH 40 47
ATOM     47   O  IDS C   3     141.274  33.064  75.9820  0.00  0.00     0.000 O
ATOM     48   S  IDS C   3     140.322  34.272  75.5420  0.00  0.00     0.000 S
ATOM     49   O  IDS C   3     139.599  33.805  74.3790  0.00  0.00     0.000 OA
ATOM     50   O  IDS C   3     141.216  35.367  75.2340  0.00  0.00     0.000 OA
ATOM     51   O  IDS C   3     139.461  34.541  76.6630  0.00  0.00     0.000 OA
ENDBRANCH 40 47
BRANCH 43 52
ATOM     52   C  IDS C   3     143.872  29.060  76.0310  0.00  0.00     0.000 C
ATOM     53   O  IDS C   3     143.995  28.789  74.8580  0.00  0.00     0.000 OA
ATOM     54   O  IDS C   3     144.739  28.773  76.8170  0.00  0.00     0.000 OA
ENDBRANCH 43 52
BRANCH 39 55
ATOM     55  O4  SGN C   4     139.656  29.739  75.9190  0.00  0.00     0.000 O
BRANCH 55 59
ATOM     56  C1  SGN C   4     135.584  28.782  75.9660  0.00  0.00     0.000 C
ATOM     57  C2  SGN C   4     135.957  30.174  75.4300  0.00  0.00     0.000 C
ATOM     58  C3  SGN C   4     137.445  30.247  75.0980  0.00  0.00     0.000 C
ATOM     59  C4  SGN C   4     138.282  29.766  76.2770  0.00  0.00     0.000 C
ATOM     60  C5  SGN C   4     137.819  28.365  76.6700  0.00  0.00     0.000 C
ATOM     61  O5  SGN C   4     136.431  28.438  77.0510  0.00  0.00     0.000 O
ATOM     62   O  SGN C   4     137.790  31.580  74.7470  0.00  0.00     0.000 O
ATOM     64  HD  SGN C   4     136.956  31.507  74.5270  0.00  0.00     0.000 HD
BRANCH 57 66
ATOM     64   N  SGN C   4     134.580  30.650  75.6390  0.00  0.00     0.000 N
ATOM     66  HD  SGN C   4     134.161  31.405  75.5680  0.00  0.00     0.000 HD
ATOM     66   S  SGN C   4     133.805  31.428  74.4800  0.00  0.00     0.000 S
ATOM     67   O  SGN C   4     132.540  31.808  74.9950  0.00  0.00     0.000 OA
ATOM     68   O  SGN C   4     134.688  32.428  73.9880  0.00  0.00     0.000 OA
ATOM     69   O  SGN C   4     133.610  30.344  73.3720  0.00  0.00     0.000 OA
ENDBRANCH 57 66
BRANCH 60 70
ATOM     70   C  SGN C   4     138.586  27.771  77.8320  0.00  0.00     0.000 C
ATOM     71   O  SGN C   4     138.717  24.154  78.8360  0.00  0.00     0.000 OA
ATOM     72   O  SGN C   4     140.388  25.407  77.6160  0.00  0.00     0.000 OA
ATOM     73   O  SGN C   4     138.225  26.389  78.0210  0.00  0.00     0.000 O
ATOM     74   S  SGN C   4     139.355  25.434  78.6270  0.00  0.00     0.000 S
ATOM     75   O  SGN C   4     139.768  26.081  79.8560  0.00  0.00     0.000 OA
ENDBRANCH 60 70
BRANCH 56 76
ATOM     76  O4  IDS C   5     135.123  27.636  75.4310  0.00  0.00     0.000 O
BRANCH 76 80
ATOM     77  C1  IDS C   5     132.671  24.508  74.5040  0.00  0.00     0.000 C
ATOM     78  C2  IDS C   5     133.587  24.955  73.3650  0.00  0.00     0.000 C
ATOM     79  C3  IDS C   5     134.727  25.787  73.9180  0.00  0.00     0.000 C
ATOM     80  C4  IDS C   5     134.176  27.083  74.5040  0.00  0.00     0.000 C
ATOM     81  C5  IDS C   5     132.842  26.797  75.2070  0.00  0.00     0.000 C
ATOM     82  O5  IDS C   5     132.763  25.423  75.5960  0.00  0.00     0.000 O
BRANCH 78 83
ATOM     83   O  IDS C   5     134.159  23.783  72.6630  0.00  0.00     0.000 O
ATOM     84   S  IDS C   5     133.825  23.540  71.1220  0.00  0.00     0.000 S
ATOM     85   O  IDS C   5     132.397  23.668  71.0020  0.00  0.00     0.000 OA
ATOM     86   O  IDS C   5     134.548  24.569  70.4120  0.00  0.00     0.000 OA
ATOM     87   O  IDS C   5     134.306  22.214  70.8220  0.00  0.00     0.000 OA
ENDBRANCH 78 83
BRANCH 81 88
ATOM     88   C  IDS C   5     132.607  27.638  76.4490  0.00  0.00     0.000 C
ATOM     89   O  IDS C   5     132.196  28.763  76.3420  0.00  0.00     0.000 OA
ATOM     90   O  IDS C   5     132.835  27.170  77.5410  0.00  0.00     0.000 OA
ENDBRANCH 81 88
ENDBRANCH 76 80
ENDBRANCH 56 76
ENDBRANCH 55 59
ENDBRANCH 39 55
ENDBRANCH 38 42
ENDBRANCH 18 38
ENDBRANCH 17 21
ENDBRANCH 1 17
TORSDOF 18
ENDMDL
MODEL 36
REMARK VINA RESULT:      -7.4     12.322     17.955
ROOT
ATOM      1  C1  IDS C   1     159.676  18.195  42.7700  0.00  0.00     0.000 C
ATOM      2  C2  IDS C   1     159.873  17.617  41.3660  0.00  0.00     0.000 C
ATOM      3  C3  IDS C   1     161.259  17.949  40.8340  0.00  0.00     0.000 C
ATOM      4  C4  IDS C   1     161.470  19.456  40.7900  0.00  0.00     0.000 C
ATOM      5  C5  IDS C   1     160.847  20.108  42.0200  0.00  0.00     0.000 C
ATOM      6  O5  IDS C   1     160.694  19.144  43.0620  0.00  0.00     0.000 O
ATOM      7   O  IDS C   1     161.420  17.393  39.5210  0.00  0.00     0.000 O
ATOM      9  HD  IDS C   1     161.011  16.630  39.4960  0.00  0.00     0.000 HD
ENDROOT
BRANCH 2 9
ATOM      9   O  IDS C   1     159.742  16.142  41.3810  0.00  0.00     0.000 O
ATOM     10   S  IDS C   1     158.592  15.449  40.5210  0.00  0.00     0.000 S
ATOM     11   O  IDS C   1     158.740  14.026  40.7350  0.00  0.00     0.000 OA
ATOM     12   O  IDS C   1     157.346  15.971  41.0420  0.00  0.00     0.000 OA
ATOM     13   O  IDS C   1     158.837  15.837  39.1490  0.00  0.00     0.000 OA
ENDBRANCH 2 9
BRANCH 5 14
ATOM     14   C  IDS C   1     161.689  21.258  42.5480  0.00  0.00     0.000 C
ATOM     15   O  IDS C   1     161.548  22.361  42.0790  0.00  0.00     0.000 OA
ATOM     16   O  IDS C   1     162.500  21.056  43.4360  0.00  0.00     0.000 OA
ENDBRANCH 5 14
BRANCH 1 17
ATOM     17  O4  SGN C   2     159.093  17.517  43.7620  0.00  0.00     0.000 O
BRANCH 17 21
ATOM     18  C1  SGN C   2     159.354  15.202  47.2410  0.00  0.00     0.000 C
ATOM     19  C2  SGN C   2     160.680  15.595  46.5770  0.00  0.00     0.000 C
ATOM     20  C3  SGN C   2     160.448  16.757  45.6030  0.00  0.00     0.000 C
ATOM     21  C4  SGN C   2     159.341  16.403  44.6160  0.00  0.00     0.000 C
ATOM     22  C5  SGN C   2     158.080  16.036  45.3930  0.00  0.00     0.000 C
ATOM     23  O5  SGN C   2     158.357  14.927  46.2790  0.00  0.00     0.000 O
ATOM     24   O  SGN C   2     161.654  17.065  44.9240  0.00  0.00     0.000 O
ATOM     26  HD  SGN C   2     160.914  17.232  45.3420  0.00  0.00     0.000 HD
BRANCH 19 28
ATOM     26   N  SGN C   2     161.649  15.749  47.6700  0.00  0.00     0.000 N
ATOM     28  HD  SGN C   2     160.902  15.589  48.0780  0.00  0.00     0.000 HD
ATOM     28   O  SGN C   2     163.979  15.467  48.5160  0.00  0.00     0.000 OA
ATOM     29   S  SGN C   2     162.759  14.633  47.9980  0.00  0.00     0.000 S
ATOM     30   O  SGN C   2     162.267  13.843  49.0610  0.00  0.00     0.000 OA
ATOM     31   O  SGN C   2     163.122  14.012  46.7710  0.00  0.00     0.000 OA
ENDBRANCH 19 28
BRANCH 22 32
ATOM     32   C  SGN C   2     156.934  15.611  44.5080  0.00  0.00     0.000 C
ATOM     33   S  SGN C   2     154.360  15.721  44.4830  0.00  0.00     0.000 S
ATOM     34   O  SGN C   2     154.236  14.649  45.4390  0.00  0.00     0.000 OA
ATOM     35   O  SGN C   2     153.394  16.783  44.6730  0.00  0.00     0.000 OA
ATOM     36   O  SGN C   2     154.466  15.279  43.1130  0.00  0.00     0.000 OA
ATOM     37   O  SGN C   2     155.771  16.387  44.8190  0.00  0.00     0.000 O
ENDBRANCH 22 32
BRANCH 18 38
ATOM     38  O4  IDS C   3     158.688  15.779  48.2430  0.00  0.00     0.000 O
BRANCH 38 42
ATOM     39  C1  IDS C   3     156.633  16.776  50.8720  0.00  0.00     0.000 C
ATOM     40  C2  IDS C   3     156.154  16.865  49.4150  0.00  0.00     0.000 C
ATOM     41  C3  IDS C   3     157.161  17.620  48.5470  0.00  0.00     0.000 C
ATOM     42  C4  IDS C   3     158.576  17.105  48.7710  0.00  0.00     0.000 C
ATOM     43  C5  IDS C   3     158.896  17.100  50.2710  0.00  0.00     0.000 C
ATOM     44  O5  IDS C   3     157.955  16.267  50.9460  0.00  0.00     0.000 O
ATOM     45   O  IDS C   3     157.100  19.014  48.8560  0.00  0.00     0.000 O
ATOM     47  HD  IDS C   3     157.178  19.484  49.5790  0.00  0.00     0.000 HD
BRANCH 40 47
ATOM     47   O  IDS C   3     155.995  15.510  48.8350  0.00  0.00     0.000 O
ATOM     48   S  IDS C   3     154.923  14.500  49.4580  0.00  0.00     0.000 S
ATOM     49   O  IDS C   3     155.519  13.989  50.6740  0.00  0.00     0.000 OA
ATOM     50   O  IDS C   3     154.743  13.472  48.4560  0.00  0.00     0.000 OA
ATOM     51   O  IDS C   3     153.732  15.269  49.7010  0.00  0.00     0.000 OA
ENDBRANCH 40 47
BRANCH 43 52
ATOM     52   C  IDS C   3     160.300  16.625  50.5690  0.00  0.00     0.000 C
ATOM     53   O  IDS C   3     161.248  17.208  50.0940  0.00  0.00     0.000 OA
ATOM     54   O  IDS C   3     160.469  15.667  51.2790  0.00  0.00     0.000 OA
ENDBRANCH 43 52
BRANCH 39 55
ATOM     55  O4  SGN C   4     156.352  17.691  51.8000  0.00  0.00     0.000 O
BRANCH 55 59
ATOM     56  C1  SGN C   4     156.499  16.528  55.8170  0.00  0.00     0.000 C
ATOM     57  C2  SGN C   4     155.275  16.062  55.0110  0.00  0.00     0.000 C
ATOM     58  C3  SGN C   4     155.528  16.202  53.5120  0.00  0.00     0.000 C
ATOM     59  C4  SGN C   4     156.021  17.606  53.1790  0.00  0.00     0.000 C
ATOM     60  C5  SGN C   4     157.253  17.908  54.0300  0.00  0.00     0.000 C
ATOM     61  O5  SGN C   4     156.872  17.837  55.4180  0.00  0.00     0.000 O
ATOM     62   O  SGN C   4     154.334  15.908  52.7980  0.00  0.00     0.000 O
ATOM     64  HD  SGN C   4     154.271  15.445  53.5270  0.00  0.00     0.000 HD
BRANCH 57 66
ATOM     64   N  SGN C   4     154.507  15.819  56.2420  0.00  0.00     0.000 N
ATOM     66  HD  SGN C   4     153.699  15.576  56.4380  0.00  0.00     0.000 HD
ATOM     66   S  SGN C   4     153.750  14.432  56.4660  0.00  0.00     0.000 S
ATOM     67   O  SGN C   4     153.057  14.520  57.7000  0.00  0.00     0.000 OA
ATOM     68   O  SGN C   4     153.023  14.157  55.2740  0.00  0.00     0.000 OA
ATOM     69   O  SGN C   4     154.909  13.393  56.5960  0.00  0.00     0.000 OA
ENDBRANCH 57 66
BRANCH 60 70
ATOM     70   C  SGN C   4     157.845  19.278  53.7820  0.00  0.00     0.000 C
ATOM     71   O  SGN C   4     161.394  20.345  54.3910  0.00  0.00     0.000 OA
ATOM     72   O  SGN C   4     160.372  19.764  52.2780  0.00  0.00     0.000 OA
ATOM     73   O  SGN C   4     159.175  19.360  54.3300  0.00  0.00     0.000 O
ATOM     74   S  SGN C   4     160.193  20.346  53.5890  0.00  0.00     0.000 S
ATOM     75   O  SGN C   4     159.515  21.627  53.5640  0.00  0.00     0.000 OA
ENDBRANCH 60 70
BRANCH 56 76
ATOM     76  O4  IDS C   5     157.589  15.936  56.3390  0.00  0.00     0.000 O
BRANCH 76 80
ATOM     77  C1  IDS C   5     160.180  13.658  58.5200  0.00  0.00     0.000 C
ATOM     78  C2  IDS C   5     159.027  14.255  59.3270  0.00  0.00     0.000 C
ATOM     79  C3  IDS C   5     157.917  14.692  58.3910  0.00  0.00     0.000 C
ATOM     80  C4  IDS C   5     158.410  15.838  57.5130  0.00  0.00     0.000 C
ATOM     81  C5  IDS C   5     159.874  15.587  57.1240  0.00  0.00     0.000 C
ATOM     82  O5  IDS C   5     160.181  14.191  57.1960  0.00  0.00     0.000 O
BRANCH 78 83
ATOM     83   O  IDS C   5     158.477  13.257  60.2730  0.00  0.00     0.000 O
ATOM     84   S  IDS C   5     158.768  13.400  61.8350  0.00  0.00     0.000 S
ATOM     85   O  IDS C   5     160.185  13.617  61.9550  0.00  0.00     0.000 OA
ATOM     86   O  IDS C   5     157.982  14.533  62.2640  0.00  0.00     0.000 OA
ATOM     87   O  IDS C   5     158.329  12.162  62.4300  0.00  0.00     0.000 OA
ENDBRANCH 78 83
BRANCH 81 88
ATOM     88   C  IDS C   5     160.230  16.061  55.7270  0.00  0.00     0.000 C
ATOM     89   O  IDS C   5     160.115  15.314  54.7930  0.00  0.00     0.000 OA
ATOM     90   O  IDS C   5     160.626  17.192  55.5620  0.00  0.00     0.000 OA
ENDBRANCH 81 88
ENDBRANCH 76 80
ENDBRANCH 56 76
ENDBRANCH 55 59
ENDBRANCH 39 55
ENDBRANCH 38 42
ENDBRANCH 18 38
ENDBRANCH 17 21
ENDBRANCH 1 17
TORSDOF 18
ENDMDL
MODEL 37
REMARK VINA RESULT:      -7.4     20.787     26.724
ROOT
ATOM      1  C1  IDS C   1     168.914  33.599  54.7750  0.00  0.00     0.000 C
ATOM      2  C2  IDS C   1     170.111  34.314  55.4070  0.00  0.00     0.000 C
ATOM      3  C3  IDS C   1     171.262  33.345  55.6330  0.00  0.00     0.000 C
ATOM      4  C4  IDS C   1     170.829  32.197  56.5340  0.00  0.00     0.000 C
ATOM      5  C5  IDS C   1     169.406  31.769  56.1900  0.00  0.00     0.000 C
ATOM      6  O5  IDS C   1     169.074  32.189  54.8660  0.00  0.00     0.000 O
ATOM      7   O  IDS C   1     172.371  34.038  56.2220  0.00  0.00     0.000 O
ATOM      9  HD  IDS C   1     172.406  34.834  55.8820  0.00  0.00     0.000 HD
ENDROOT
BRANCH 2 9
ATOM      9   O  IDS C   1     170.604  35.396  54.5260  0.00  0.00     0.000 O
ATOM     10   S  IDS C   1     170.612  36.899  55.0590  0.00  0.00     0.000 S
ATOM     11   O  IDS C   1     171.156  37.698  53.9840  0.00  0.00     0.000 OA
ATOM     12   O  IDS C   1     169.230  37.215  55.3540  0.00  0.00     0.000 OA
ATOM     13   O  IDS C   1     171.453  36.896  56.2360  0.00  0.00     0.000 OA
ENDBRANCH 2 9
BRANCH 5 14
ATOM     14   C  IDS C   1     169.222  30.264  56.2780  0.00  0.00     0.000 C
ATOM     15   O  IDS C   1     168.108  29.803  56.3260  0.00  0.00     0.000 OA
ATOM     16   O  IDS C   1     170.200  29.535  56.3030  0.00  0.00     0.000 OA
ENDBRANCH 5 14
BRANCH 1 17
ATOM     17  O4  SGN C   2     168.195  34.125  53.7790  0.00  0.00     0.000 O
BRANCH 17 21
ATOM     18  C1  SGN C   2     166.934  34.174  49.7870  0.00  0.00     0.000 C
ATOM     19  C2  SGN C   2     167.928  33.074  50.1800  0.00  0.00     0.000 C
ATOM     20  C3  SGN C   2     167.959  32.922  51.7060  0.00  0.00     0.000 C
ATOM     21  C4  SGN C   2     168.235  34.270  52.3620  0.00  0.00     0.000 C
ATOM     22  C5  SGN C   2     167.182  35.274  51.9000  0.00  0.00     0.000 C
ATOM     23  O5  SGN C   2     167.212  35.385  50.4580  0.00  0.00     0.000 O
ATOM     24   O  SGN C   2     168.940  31.968  52.0760  0.00  0.00     0.000 O
ATOM     26  HD  SGN C   2     168.173  32.369  52.1040  0.00  0.00     0.000 HD
BRANCH 19 28
ATOM     26   N  SGN C   2     167.755  32.116  49.0790  0.00  0.00     0.000 N
ATOM     28  HD  SGN C   2     167.641  32.887  48.7010  0.00  0.00     0.000 HD
ATOM     28   O  SGN C   2     168.364  29.940  48.0240  0.00  0.00     0.000 OA
ATOM     29   S  SGN C   2     168.991  31.315  48.4350  0.00  0.00     0.000 S
ATOM     30   O  SGN C   2     169.379  32.003  47.2640  0.00  0.00     0.000 OA
ATOM     31   O  SGN C   2     169.943  31.090  49.4660  0.00  0.00     0.000 OA
ENDBRANCH 19 28
BRANCH 22 32
ATOM     32   C  SGN C   2     167.398  36.663  52.4480  0.00  0.00     0.000 C
ATOM     33   S  SGN C   2     167.969  39.022  51.5810  0.00  0.00     0.000 S
ATOM     34   O  SGN C   2     169.362  38.695  51.4080  0.00  0.00     0.000 OA
ATOM     35   O  SGN C   2     167.436  39.868  50.5340  0.00  0.00     0.000 OA
ATOM     36   O  SGN C   2     167.631  39.471  52.9120  0.00  0.00     0.000 OA
ATOM     37   O  SGN C   2     167.213  37.627  51.4050  0.00  0.00     0.000 O
ENDBRANCH 22 32
BRANCH 18 38
ATOM     38  O4  IDS C   3     165.601  34.144  49.7130  0.00  0.00     0.000 O
BRANCH 38 42
ATOM     39  C1  IDS C   3     162.177  34.676  49.3670  0.00  0.00     0.000 C
ATOM     40  C2  IDS C   3     162.794  34.352  50.7370  0.00  0.00     0.000 C
ATOM     41  C3  IDS C   3     163.655  33.091  50.6710  0.00  0.00     0.000 C
ATOM     42  C4  IDS C   3     164.609  33.137  49.4850  0.00  0.00     0.000 C
ATOM     43  C5  IDS C   3     163.829  33.451  48.2030  0.00  0.00     0.000 C
ATOM     44  O5  IDS C   3     163.169  34.707  48.3540  0.00  0.00     0.000 O
ATOM     45   O  IDS C   3     162.808  31.945  50.5640  0.00  0.00     0.000 O
ATOM     47  HD  IDS C   3     162.179  31.697  50.0240  0.00  0.00     0.000 HD
BRANCH 40 47
ATOM     47   O  IDS C   3     163.664  35.462  51.1920  0.00  0.00     0.000 O
ATOM     48   S  IDS C   3     163.092  36.558  52.2060  0.00  0.00     0.000 S
ATOM     49   O  IDS C   3     162.261  37.438  51.4120  0.00  0.00     0.000 OA
ATOM     50   O  IDS C   3     164.257  37.229  52.7380  0.00  0.00     0.000 OA
ATOM     51   O  IDS C   3     162.347  35.839  53.2040  0.00  0.00     0.000 OA
ENDBRANCH 40 47
BRANCH 43 52
ATOM     52   C  IDS C   3     164.711  33.486  46.9740  0.00  0.00     0.000 C
ATOM     53   O  IDS C   3     164.769  34.489  46.3020  0.00  0.00     0.000 OA
ATOM     54   O  IDS C   3     165.352  32.511  46.6720  0.00  0.00     0.000 OA
ENDBRANCH 43 52
BRANCH 39 55
ATOM     55  O4  SGN C   4     160.998  34.208  48.9580  0.00  0.00     0.000 O
BRANCH 55 59
ATOM     56  C1  SGN C   4     157.730  36.249  50.5890  0.00  0.00     0.000 C
ATOM     57  C2  SGN C   4     158.064  34.881  51.2070  0.00  0.00     0.000 C
ATOM     58  C3  SGN C   4     159.470  34.437  50.8120  0.00  0.00     0.000 C
ATOM     59  C4  SGN C   4     159.656  34.523  49.3010  0.00  0.00     0.000 C
ATOM     60  C5  SGN C   4     159.320  35.941  48.8460  0.00  0.00     0.000 C
ATOM     61  O5  SGN C   4     157.947  36.214  49.1880  0.00  0.00     0.000 O
ATOM     62   O  SGN C   4     159.697  33.111  51.2700  0.00  0.00     0.000 O
ATOM     64  HD  SGN C   4     159.123  33.438  51.8300  0.00  0.00     0.000 HD
BRANCH 57 66
ATOM     64   N  SGN C   4     156.714  34.754  51.7800  0.00  0.00     0.000 N
ATOM     66  HD  SGN C   4     156.279  34.155  52.2290  0.00  0.00     0.000 HD
ATOM     66   S  SGN C   4     156.517  34.396  53.3220  0.00  0.00     0.000 S
ATOM     67   O  SGN C   4     155.124  34.284  53.5580  0.00  0.00     0.000 OA
ATOM     68   O  SGN C   4     157.365  33.290  53.6050  0.00  0.00     0.000 OA
ATOM     69   O  SGN C   4     157.070  35.653  54.0680  0.00  0.00     0.000 OA
ENDBRANCH 57 66
BRANCH 60 70
ATOM     70   C  SGN C   4     159.477  36.157  47.3560  0.00  0.00     0.000 C
ATOM     71   O  SGN C   4     162.640  37.016  45.5210  0.00  0.00     0.000 OA
ATOM     72   O  SGN C   4     161.572  34.853  45.6850  0.00  0.00     0.000 OA
ATOM     73   O  SGN C   4     160.788  36.673  47.0560  0.00  0.00     0.000 O
ATOM     74   S  SGN C   4     161.398  36.287  45.6290  0.00  0.00     0.000 S
ATOM     75   O  SGN C   4     160.395  36.709  44.6710  0.00  0.00     0.000 OA
ENDBRANCH 60 70
BRANCH 56 76
ATOM     76  O4  IDS C   5     157.826  37.532  50.9840  0.00  0.00     0.000 O
BRANCH 76 80
ATOM     77  C1  IDS C   5     157.831  41.317  52.5120  0.00  0.00     0.000 C
ATOM     78  C2  IDS C   5     156.649  40.455  52.9560  0.00  0.00     0.000 C
ATOM     79  C3  IDS C   5     156.960  38.991  52.7120  0.00  0.00     0.000 C
ATOM     80  C4  IDS C   5     157.081  38.738  51.2120  0.00  0.00     0.000 C
ATOM     81  C5  IDS C   5     157.780  39.934  50.5490  0.00  0.00     0.000 C
ATOM     82  O5  IDS C   5     158.580  40.640  51.5030  0.00  0.00     0.000 O
BRANCH 78 83
ATOM     83   O  IDS C   5     156.379  40.641  54.4010  0.00  0.00     0.000 O
ATOM     84   S  IDS C   5     154.923  41.078  54.8850  0.00  0.00     0.000 S
ATOM     85   O  IDS C   5     154.550  42.196  54.0600  0.00  0.00     0.000 OA
ATOM     86   O  IDS C   5     154.091  39.916  54.6770  0.00  0.00     0.000 OA
ATOM     87   O  IDS C   5     155.062  41.420  56.2800  0.00  0.00     0.000 OA
ENDBRANCH 78 83
BRANCH 81 88
ATOM     88   C  IDS C   5     158.681  39.554  49.3880  0.00  0.00     0.000 C
ATOM     89   O  IDS C   5     159.861  39.413  49.5670  0.00  0.00     0.000 OA
ATOM     90   O  IDS C   5     158.204  39.395  48.2880  0.00  0.00     0.000 OA
ENDBRANCH 81 88
ENDBRANCH 76 80
ENDBRANCH 56 76
ENDBRANCH 55 59
ENDBRANCH 39 55
ENDBRANCH 38 42
ENDBRANCH 18 38
ENDBRANCH 17 21
ENDBRANCH 1 17
TORSDOF 18
ENDMDL
MODEL 38
REMARK VINA RESULT:      -7.3     17.475     23.531
ROOT
ATOM      1  C1  IDS C   1     137.782  31.767  44.6210  0.00  0.00     0.000 C
ATOM      2  C2  IDS C   1     136.566  31.415  45.4820  0.00  0.00     0.000 C
ATOM      3  C3  IDS C   1     137.001  30.816  46.8120  0.00  0.00     0.000 C
ATOM      4  C4  IDS C   1     137.838  29.564  46.5880  0.00  0.00     0.000 C
ATOM      5  C5  IDS C   1     138.766  29.761  45.3940  0.00  0.00     0.000 C
ATOM      6  O5  IDS C   1     138.953  31.154  45.1430  0.00  0.00     0.000 O
ATOM      7   O  IDS C   1     135.846  30.499  47.6020  0.00  0.00     0.000 O
ATOM      9  HD  IDS C   1     135.247  31.109  47.4650  0.00  0.00     0.000 HD
ENDROOT
BRANCH 2 9
ATOM      9   O  IDS C   1     135.762  32.622  45.7780  0.00  0.00     0.000 O
ATOM     10   S  IDS C   1     134.265  32.719  45.2360  0.00  0.00     0.000 S
ATOM     11   O  IDS C   1     133.758  33.992  45.7000  0.00  0.00     0.000 OA
ATOM     12   O  IDS C   1     134.368  32.645  43.7930  0.00  0.00     0.000 OA
ATOM     13   O  IDS C   1     133.563  31.593  45.8110  0.00  0.00     0.000 OA
ENDBRANCH 2 9
BRANCH 5 14
ATOM     14   C  IDS C   1     140.128  29.125  45.6150  0.00  0.00     0.000 C
ATOM     15   O  IDS C   1     140.254  28.269  46.4560  0.00  0.00     0.000 OA
ATOM     16   O  IDS C   1     141.081  29.485  44.9450  0.00  0.00     0.000 OA
ENDBRANCH 5 14
BRANCH 1 17
ATOM     17  O4  SGN C   2     137.877  32.905  43.9270  0.00  0.00     0.000 O
BRANCH 17 21
ATOM     18  C1  SGN C   2     139.086  36.902  43.6320  0.00  0.00     0.000 C
ATOM     19  C2  SGN C   2     139.322  36.211  44.9800  0.00  0.00     0.000 C
ATOM     20  C3  SGN C   2     139.233  34.690  44.8070  0.00  0.00     0.000 C
ATOM     21  C4  SGN C   2     137.915  34.314  44.1400  0.00  0.00     0.000 C
ATOM     22  C5  SGN C   2     137.799  35.057  42.8130  0.00  0.00     0.000 C
ATOM     23  O5  SGN C   2     137.873  36.483  43.0420  0.00  0.00     0.000 O
ATOM     24   O  SGN C   2     139.364  34.053  46.0670  0.00  0.00     0.000 O
ATOM     26  HD  SGN C   2     139.496  34.169  45.2190  0.00  0.00     0.000 HD
BRANCH 19 28
ATOM     26   N  SGN C   2     139.955  37.130  45.9370  0.00  0.00     0.000 N
ATOM     28  HD  SGN C   2     139.108  37.275  46.0420  0.00  0.00     0.000 HD
ATOM     28   O  SGN C   2     141.826  37.618  47.5120  0.00  0.00     0.000 OA
ATOM     29   S  SGN C   2     140.644  36.615  47.2950  0.00  0.00     0.000 S
ATOM     30   O  SGN C   2     139.708  36.787  48.3390  0.00  0.00     0.000 OA
ATOM     31   O  SGN C   2     141.185  35.324  47.0430  0.00  0.00     0.000 OA
ENDBRANCH 19 28
BRANCH 22 32
ATOM     32   C  SGN C   2     136.497  34.799  42.0940  0.00  0.00     0.000 C
ATOM     33   S  SGN C   2     134.293  36.030  41.5730  0.00  0.00     0.000 S
ATOM     34   O  SGN C   2     133.787  35.831  42.9080  0.00  0.00     0.000 OA
ATOM     35   O  SGN C   2     133.970  37.326  41.0150  0.00  0.00     0.000 OA
ATOM     36   O  SGN C   2     134.025  34.933  40.6720  0.00  0.00     0.000 OA
ATOM     37   O  SGN C   2     135.880  36.045  41.7520  0.00  0.00     0.000 O
ENDBRANCH 22 32
BRANCH 18 38
ATOM     38  O4  IDS C   3     139.909  37.071  42.5940  0.00  0.00     0.000 O
BRANCH 38 42
ATOM     39  C1  IDS C   3     142.238  38.323  40.3290  0.00  0.00     0.000 C
ATOM     40  C2  IDS C   3     140.973  37.598  39.8440  0.00  0.00     0.000 C
ATOM     41  C3  IDS C   3     140.821  36.237  40.5240  0.00  0.00     0.000 C
ATOM     42  C4  IDS C   3     141.010  36.351  42.0310  0.00  0.00     0.000 C
ATOM     43  C5  IDS C   3     142.324  37.080  42.3360  0.00  0.00     0.000 C
ATOM     44  O5  IDS C   3     142.286  38.377  41.7450  0.00  0.00     0.000 O
ATOM     45   O  IDS C   3     141.783  35.329  39.9850  0.00  0.00     0.000 O
ATOM     47  HD  IDS C   3     142.645  35.331  39.8960  0.00  0.00     0.000 HD
BRANCH 40 47
ATOM     47   O  IDS C   3     139.763  38.392  40.1630  0.00  0.00     0.000 O
ATOM     48   S  IDS C   3     138.772  38.839  38.9900  0.00  0.00     0.000 S
ATOM     49   O  IDS C   3     139.417  39.952  38.3280  0.00  0.00     0.000 OA
ATOM     50   O  IDS C   3     137.546  39.225  39.6540  0.00  0.00     0.000 OA
ATOM     51   O  IDS C   3     138.615  37.694  38.1320  0.00  0.00     0.000 OA
ENDBRANCH 40 47
BRANCH 43 52
ATOM     52   C  IDS C   3     142.593  37.205  43.8190  0.00  0.00     0.000 C
ATOM     53   O  IDS C   3     142.587  38.295  44.3430  0.00  0.00     0.000 OA
ATOM     54   O  IDS C   3     142.812  36.217  44.4720  0.00  0.00     0.000 OA
ENDBRANCH 43 52
BRANCH 39 55
ATOM     55  O4  SGN C   4     143.432  38.193  39.7490  0.00  0.00     0.000 O
BRANCH 55 59
ATOM     56  C1  SGN C   4     146.696  38.488  42.3500  0.00  0.00     0.000 C
ATOM     57  C2  SGN C   4     146.214  39.797  41.7010  0.00  0.00     0.000 C
ATOM     58  C3  SGN C   4     144.816  39.626  41.1120  0.00  0.00     0.000 C
ATOM     59  C4  SGN C   4     144.761  38.400  40.2070  0.00  0.00     0.000 C
ATOM     60  C5  SGN C   4     145.235  37.183  40.9980  0.00  0.00     0.000 C
ATOM     61  O5  SGN C   4     146.592  37.420  41.4220  0.00  0.00     0.000 O
ATOM     62   O  SGN C   4     144.456  40.797  40.3930  0.00  0.00     0.000 O
ATOM     64  HD  SGN C   4     145.005  41.077  41.0020  0.00  0.00     0.000 HD
BRANCH 57 66
ATOM     64   N  SGN C   4     146.689  41.180  41.5370  0.00  0.00     0.000 N
ATOM     66  HD  SGN C   4     146.635  41.917  41.9890  0.00  0.00     0.000 HD
ATOM     66   S  SGN C   4     147.543  41.886  42.6860  0.00  0.00     0.000 S
ATOM     67   O  SGN C   4     147.798  43.216  42.2690  0.00  0.00     0.000 OA
ATOM     68   O  SGN C   4     146.862  41.656  43.9130  0.00  0.00     0.000 OA
ATOM     69   O  SGN C   4     148.883  41.081  42.6990  0.00  0.00     0.000 OA
ENDBRANCH 57 66
BRANCH 60 70
ATOM     70   C  SGN C   4     145.217  35.894  40.2050  0.00  0.00     0.000 C
ATOM     71   O  SGN C   4     147.954  34.558  38.0080  0.00  0.00     0.000 OA
ATOM     72   O  SGN C   4     147.398  33.865  40.2570  0.00  0.00     0.000 OA
ATOM     73   O  SGN C   4     146.355  35.827  39.3250  0.00  0.00     0.000 O
ATOM     74   S  SGN C   4     146.913  34.366  38.9910  0.00  0.00     0.000 S
ATOM     75   O  SGN C   4     145.766  33.639  38.4840  0.00  0.00     0.000 OA
ENDBRANCH 60 70
BRANCH 56 76
ATOM     76  O4  IDS C   5     146.663  37.957  43.5860  0.00  0.00     0.000 O
BRANCH 76 80
ATOM     77  C1  IDS C   5     148.311  34.224  43.6450  0.00  0.00     0.000 C
ATOM     78  C2  IDS C   5     146.882  34.295  44.1830  0.00  0.00     0.000 C
ATOM     79  C3  IDS C   5     146.222  35.580  43.7220  0.00  0.00     0.000 C
ATOM     80  C4  IDS C   5     146.933  36.774  44.3520  0.00  0.00     0.000 C
ATOM     81  C5  IDS C   5     148.443  36.500  44.4000  0.00  0.00     0.000 C
ATOM     82  O5  IDS C   5     148.811  35.539  43.4060  0.00  0.00     0.000 O
BRANCH 78 83
ATOM     83   O  IDS C   5     146.079  33.152  43.6890  0.00  0.00     0.000 O
ATOM     84   S  IDS C   5     145.115  32.369  44.6900  0.00  0.00     0.000 S
ATOM     85   O  IDS C   5     145.905  32.082  45.8570  0.00  0.00     0.000 OA
ATOM     86   O  IDS C   5     144.024  33.278  44.9530  0.00  0.00     0.000 OA
ATOM     87   O  IDS C   5     144.694  31.186  43.9810  0.00  0.00     0.000 OA
ENDBRANCH 78 83
BRANCH 81 88
ATOM     88   C  IDS C   5     149.300  37.734  44.1850  0.00  0.00     0.000 C
ATOM     89   O  IDS C   5     149.956  37.840  43.1830  0.00  0.00     0.000 OA
ATOM     90   O  IDS C   5     149.317  38.605  45.0240  0.00  0.00     0.000 OA
ENDBRANCH 81 88
ENDBRANCH 76 80
ENDBRANCH 56 76
ENDBRANCH 55 59
ENDBRANCH 39 55
ENDBRANCH 38 42
ENDBRANCH 18 38
ENDBRANCH 17 21
ENDBRANCH 1 17
TORSDOF 18
ENDMDL
MODEL 39
REMARK VINA RESULT:      -7.3     18.712     24.107
ROOT
ATOM      1  C1  IDS C   1     142.911  34.891  45.2030  0.00  0.00     0.000 C
ATOM      2  C2  IDS C   1     141.835  34.111  44.4440  0.00  0.00     0.000 C
ATOM      3  C3  IDS C   1     140.555  34.926  44.3290  0.00  0.00     0.000 C
ATOM      4  C4  IDS C   1     140.028  35.296  45.7080  0.00  0.00     0.000 C
ATOM      5  C5  IDS C   1     141.188  35.648  46.6350  0.00  0.00     0.000 C
ATOM      6  O5  IDS C   1     142.336  36.009  45.8670  0.00  0.00     0.000 O
ATOM      7   O  IDS C   1     139.565  34.177  43.6100  0.00  0.00     0.000 O
ATOM      9  HD  IDS C   1     139.964  33.725  42.9890  0.00  0.00     0.000 HD
ENDROOT
BRANCH 2 9
ATOM      9   O  IDS C   1     142.285  33.792  43.0700  0.00  0.00     0.000 O
ATOM     10   S  IDS C   1     142.414  32.267  42.6210  0.00  0.00     0.000 S
ATOM     11   O  IDS C   1     142.855  32.295  41.2440  0.00  0.00     0.000 OA
ATOM     12   O  IDS C   1     143.390  31.679  43.5150  0.00  0.00     0.000 OA
ATOM     13   O  IDS C   1     141.093  31.698  42.7750  0.00  0.00     0.000 OA
ENDBRANCH 2 9
BRANCH 5 14
ATOM     14   C  IDS C   1     140.848  36.801  47.5640  0.00  0.00     0.000 C
ATOM     15   O  IDS C   1     141.592  37.749  47.6300  0.00  0.00     0.000 OA
ATOM     16   O  IDS C   1     139.832  36.757  48.2360  0.00  0.00     0.000 OA
ENDBRANCH 5 14
BRANCH 1 17
ATOM     17  O4  SGN C   2     144.190  34.928  44.8190  0.00  0.00     0.000 O
BRANCH 17 21
ATOM     18  C1  SGN C   2     147.323  36.533  42.5530  0.00  0.00     0.000 C
ATOM     19  C2  SGN C   2     145.954  37.209  42.4090  0.00  0.00     0.000 C
ATOM     20  C3  SGN C   2     145.049  36.805  43.5780  0.00  0.00     0.000 C
ATOM     21  C4  SGN C   2     144.981  35.286  43.6890  0.00  0.00     0.000 C
ATOM     22  C5  SGN C   2     146.396  34.734  43.8330  0.00  0.00     0.000 C
ATOM     23  O5  SGN C   2     147.195  35.134  42.6950  0.00  0.00     0.000 O
ATOM     24   O  SGN C   2     143.756  37.359  43.4010  0.00  0.00     0.000 O
ATOM     26  HD  SGN C   2     144.468  37.130  43.8370  0.00  0.00     0.000 HD
BRANCH 19 28
ATOM     26   N  SGN C   2     146.327  38.500  41.8140  0.00  0.00     0.000 N
ATOM     28  HD  SGN C   2     146.881  37.940  41.4540  0.00  0.00     0.000 HD
ATOM     28   O  SGN C   2     145.639  40.754  40.9950  0.00  0.00     0.000 OA
ATOM     29   S  SGN C   2     145.417  39.231  40.7070  0.00  0.00     0.000 S
ATOM     30   O  SGN C   2     145.962  38.926  39.4400  0.00  0.00     0.000 OA
ATOM     31   O  SGN C   2     144.060  38.910  40.9840  0.00  0.00     0.000 OA
ENDBRANCH 19 28
BRANCH 22 32
ATOM     32   C  SGN C   2     146.447  33.227  43.8920  0.00  0.00     0.000 C
ATOM     33   S  SGN C   2     147.402  31.378  45.4130  0.00  0.00     0.000 S
ATOM     34   O  SGN C   2     148.742  31.569  44.9190  0.00  0.00     0.000 OA
ATOM     35   O  SGN C   2     147.339  31.109  46.8340  0.00  0.00     0.000 OA
ATOM     36   O  SGN C   2     146.606  30.470  44.6210  0.00  0.00     0.000 OA
ATOM     37   O  SGN C   2     146.710  32.806  45.2360  0.00  0.00     0.000 O
ENDBRANCH 22 32
BRANCH 18 38
ATOM     38  O4  IDS C   3     148.360  36.844  43.3340  0.00  0.00     0.000 O
BRANCH 38 42
ATOM     39  C1  IDS C   3     150.231  37.570  46.1800  0.00  0.00     0.000 C
ATOM     40  C2  IDS C   3     148.800  38.107  46.0150  0.00  0.00     0.000 C
ATOM     41  C3  IDS C   3     148.632  38.828  44.6780  0.00  0.00     0.000 C
ATOM     42  C4  IDS C   3     149.187  37.996  43.5300  0.00  0.00     0.000 C
ATOM     43  C5  IDS C   3     150.622  37.561  43.8500  0.00  0.00     0.000 C
ATOM     44  O5  IDS C   3     150.621  36.799  45.0560  0.00  0.00     0.000 O
ATOM     45   O  IDS C   3     149.306  40.087  44.7310  0.00  0.00     0.000 O
ATOM     47  HD  IDS C   3     150.114  40.342  44.9120  0.00  0.00     0.000 HD
BRANCH 40 47
ATOM     47   O  IDS C   3     147.820  36.996  46.0480  0.00  0.00     0.000 O
ATOM     48   S  IDS C   3     147.450  36.302  47.4400  0.00  0.00     0.000 S
ATOM     49   O  IDS C   3     148.560  35.429  47.7560  0.00  0.00     0.000 OA
ATOM     50   O  IDS C   3     146.226  35.573  47.1890  0.00  0.00     0.000 OA
ATOM     51   O  IDS C   3     147.289  37.366  48.3950  0.00  0.00     0.000 OA
ENDBRANCH 40 47
BRANCH 43 52
ATOM     52   C  IDS C   3     151.251  36.751  42.7380  0.00  0.00     0.000 C
ATOM     53   O  IDS C   3     151.144  35.546  42.7350  0.00  0.00     0.000 OA
ATOM     54   O  IDS C   3     151.856  37.311  41.8600  0.00  0.00     0.000 OA
ENDBRANCH 43 52
BRANCH 39 55
ATOM     55  O4  SGN C   4     151.223  38.269  46.7300  0.00  0.00     0.000 O
BRANCH 55 59
ATOM     56  C1  SGN C   4     152.551  41.692  48.7360  0.00  0.00     0.000 C
ATOM     57  C2  SGN C   4     151.077  41.305  48.9390  0.00  0.00     0.000 C
ATOM     58  C3  SGN C   4     150.829  39.866  48.4970  0.00  0.00     0.000 C
ATOM     59  C4  SGN C   4     151.366  39.636  47.0880  0.00  0.00     0.000 C
ATOM     60  C5  SGN C   4     152.841  40.033  47.0550  0.00  0.00     0.000 C
ATOM     61  O5  SGN C   4     152.942  41.429  47.3980  0.00  0.00     0.000 O
ATOM     62   O  SGN C   4     149.437  39.583  48.5550  0.00  0.00     0.000 O
ATOM     64  HD  SGN C   4     149.560  40.191  49.1590  0.00  0.00     0.000 HD
BRANCH 57 66
ATOM     64   N  SGN C   4     150.772  42.665  49.4110  0.00  0.00     0.000 N
ATOM     66  HD  SGN C   4     150.059  43.107  49.6280  0.00  0.00     0.000 HD
ATOM     66   S  SGN C   4     149.923  42.891  50.7440  0.00  0.00     0.000 S
ATOM     67   O  SGN C   4     149.744  44.288  50.9020  0.00  0.00     0.000 OA
ATOM     68   O  SGN C   4     148.783  42.045  50.6600  0.00  0.00     0.000 OA
ATOM     69   O  SGN C   4     150.860  42.357  51.8750  0.00  0.00     0.000 OA
ENDBRANCH 57 66
BRANCH 60 70
ATOM     70   C  SGN C   4     153.494  39.840  45.7040  0.00  0.00     0.000 C
ATOM     71   O  SGN C   4     152.164  40.961  42.3750  0.00  0.00     0.000 OA
ATOM     72   O  SGN C   4     153.884  42.017  43.7070  0.00  0.00     0.000 OA
ATOM     73   O  SGN C   4     152.590  40.216  44.6470  0.00  0.00     0.000 O
ATOM     74   S  SGN C   4     153.254  40.780  43.3060  0.00  0.00     0.000 S
ATOM     75   O  SGN C   4     154.196  39.756  42.9010  0.00  0.00     0.000 OA
ENDBRANCH 60 70
BRANCH 56 76
ATOM     76  O4  IDS C   5     153.663  41.678  49.4940  0.00  0.00     0.000 O
BRANCH 76 80
ATOM     77  C1  IDS C   5     155.500  38.132  50.3380  0.00  0.00     0.000 C
ATOM     78  C2  IDS C   5     154.548  38.629  51.4270  0.00  0.00     0.000 C
ATOM     79  C3  IDS C   5     153.612  39.674  50.8540  0.00  0.00     0.000 C
ATOM     80  C4  IDS C   5     154.412  40.908  50.4470  0.00  0.00     0.000 C
ATOM     81  C5  IDS C   5     155.754  40.468  49.8440  0.00  0.00     0.000 C
ATOM     82  O5  IDS C   5     155.663  39.134  49.3350  0.00  0.00     0.000 O
BRANCH 78 83
ATOM     83   O  IDS C   5     153.733  37.512  51.9590  0.00  0.00     0.000 O
ATOM     84   S  IDS C   5     153.890  37.073  53.4850  0.00  0.00     0.000 S
ATOM     85   O  IDS C   5     155.303  36.942  53.7160  0.00  0.00     0.000 OA
ATOM     86   O  IDS C   5     153.286  38.140  54.2490  0.00  0.00     0.000 OA
ATOM     87   O  IDS C   5     153.174  35.827  53.6090  0.00  0.00     0.000 OA
ENDBRANCH 78 83
BRANCH 81 88
ATOM     88   C  IDS C   5     156.242  41.356  48.7140  0.00  0.00     0.000 C
ATOM     89   O  IDS C   5     156.612  42.476  48.9500  0.00  0.00     0.000 OA
ATOM     90   O  IDS C   5     156.258  40.931  47.5820  0.00  0.00     0.000 OA
ENDBRANCH 81 88
ENDBRANCH 76 80
ENDBRANCH 56 76
ENDBRANCH 55 59
ENDBRANCH 39 55
ENDBRANCH 38 42
ENDBRANCH 18 38
ENDBRANCH 17 21
ENDBRANCH 1 17
TORSDOF 18
ENDMDL
MODEL 40
REMARK VINA RESULT:      -7.3     12.378     18.199
ROOT
ATOM      1  C1  IDS C   1     159.652  18.260  42.6950  0.00  0.00     0.000 C
ATOM      2  C2  IDS C   1     159.900  17.635  41.3200  0.00  0.00     0.000 C
ATOM      3  C3  IDS C   1     161.310  17.939  40.8350  0.00  0.00     0.000 C
ATOM      4  C4  IDS C   1     161.537  19.443  40.7520  0.00  0.00     0.000 C
ATOM      5  C5  IDS C   1     160.870  20.139  41.9340  0.00  0.00     0.000 C
ATOM      6  O5  IDS C   1     160.666  19.210  42.9990  0.00  0.00     0.000 O
ATOM      7   O  IDS C   1     161.521  17.341  39.5480  0.00  0.00     0.000 O
ATOM      9  HD  IDS C   1     161.106  16.581  39.5310  0.00  0.00     0.000 HD
ENDROOT
BRANCH 2 9
ATOM      9   O  IDS C   1     159.756  16.163  41.3760  0.00  0.00     0.000 O
ATOM     10   S  IDS C   1     158.638  15.451  40.4890  0.00  0.00     0.000 S
ATOM     11   O  IDS C   1     158.764  14.035  40.7550  0.00  0.00     0.000 OA
ATOM     12   O  IDS C   1     157.375  16.000  40.9390  0.00  0.00     0.000 OA
ATOM     13   O  IDS C   1     158.945  15.794  39.1180  0.00  0.00     0.000 OA
ENDBRANCH 2 9
BRANCH 5 14
ATOM     14   C  IDS C   1     161.699  21.298  42.4590  0.00  0.00     0.000 C
ATOM     15   O  IDS C   1     162.398  21.137  43.4300  0.00  0.00     0.000 OA
ATOM     16   O  IDS C   1     161.651  22.380  41.8980  0.00  0.00     0.000 OA
ENDBRANCH 5 14
BRANCH 1 17
ATOM     17  O4  SGN C   2     159.022  17.618  43.6830  0.00  0.00     0.000 O
BRANCH 17 21
ATOM     18  C1  SGN C   2     159.132  15.274  47.1500  0.00  0.00     0.000 C
ATOM     19  C2  SGN C   2     160.478  15.570  46.4790  0.00  0.00     0.000 C
ATOM     20  C3  SGN C   2     160.328  16.751  45.5120  0.00  0.00     0.000 C
ATOM     21  C4  SGN C   2     159.191  16.485  44.5310  0.00  0.00     0.000 C
ATOM     22  C5  SGN C   2     157.912  16.210  45.3150  0.00  0.00     0.000 C
ATOM     23  O5  SGN C   2     158.110  15.080  46.1950  0.00  0.00     0.000 O
ATOM     24   O  SGN C   2     161.549  16.971  44.8260  0.00  0.00     0.000 O
ATOM     26  HD  SGN C   2     160.826  17.190  45.2490  0.00  0.00     0.000 HD
BRANCH 19 28
ATOM     26   N  SGN C   2     161.419  15.278  47.5690  0.00  0.00     0.000 N
ATOM     28  HD  SGN C   2     160.781  14.704  47.6880  0.00  0.00     0.000 HD
ATOM     28   O  SGN C   2     163.771  15.186  48.3950  0.00  0.00     0.000 OA
ATOM     29   S  SGN C   2     162.832  14.554  47.3140  0.00  0.00     0.000 S
ATOM     30   O  SGN C   2     162.666  13.182  47.6060  0.00  0.00     0.000 OA
ATOM     31   O  SGN C   2     163.292  14.947  46.0270  0.00  0.00     0.000 OA
ENDBRANCH 19 28
BRANCH 22 32
ATOM     32   C  SGN C   2     156.731  15.876  44.4360  0.00  0.00     0.000 C
ATOM     33   S  SGN C   2     154.176  15.612  44.6400  0.00  0.00     0.000 S
ATOM     34   O  SGN C   2     154.290  14.317  45.2610  0.00  0.00     0.000 OA
ATOM     35   O  SGN C   2     153.118  16.432  45.1940  0.00  0.00     0.000 OA
ATOM     36   O  SGN C   2     154.177  15.575  43.1960  0.00  0.00     0.000 OA
ATOM     37   O  SGN C   2     155.527  16.362  45.0410  0.00  0.00     0.000 O
ENDBRANCH 22 32
BRANCH 18 38
ATOM     38  O4  IDS C   3     158.517  15.895  48.1600  0.00  0.00     0.000 O
BRANCH 38 42
ATOM     39  C1  IDS C   3     156.849  16.910  51.0430  0.00  0.00     0.000 C
ATOM     40  C2  IDS C   3     156.242  17.150  49.6520  0.00  0.00     0.000 C
ATOM     41  C3  IDS C   3     157.235  17.856  48.7300  0.00  0.00     0.000 C
ATOM     42  C4  IDS C   3     158.601  17.186  48.7740  0.00  0.00     0.000 C
ATOM     43  C5  IDS C   3     159.063  17.044  50.2290  0.00  0.00     0.000 C
ATOM     44  O5  IDS C   3     158.108  16.266  50.9480  0.00  0.00     0.000 O
ATOM     45   O  IDS C   3     157.357  19.224  49.1250  0.00  0.00     0.000 O
ATOM     47  HD  IDS C   3     157.555  19.633  49.8620  0.00  0.00     0.000 HD
BRANCH 40 47
ATOM     47   O  IDS C   3     155.881  15.862  49.0130  0.00  0.00     0.000 O
ATOM     48   S  IDS C   3     154.735  14.949  49.6540  0.00  0.00     0.000 S
ATOM     49   O  IDS C   3     155.339  14.297  50.7960  0.00  0.00     0.000 OA
ATOM     50   O  IDS C   3     154.367  14.014  48.6140  0.00  0.00     0.000 OA
ATOM     51   O  IDS C   3     153.665  15.838  50.0200  0.00  0.00     0.000 OA
ENDBRANCH 40 47
BRANCH 43 52
ATOM     52   C  IDS C   3     160.431  16.408  50.3500  0.00  0.00     0.000 C
ATOM     53   O  IDS C   3     161.424  17.077  50.1780  0.00  0.00     0.000 OA
ATOM     54   O  IDS C   3     160.524  15.238  50.6190  0.00  0.00     0.000 OA
ENDBRANCH 43 52
BRANCH 39 55
ATOM     55  O4  SGN C   4     156.760  17.782  52.0480  0.00  0.00     0.000 O
BRANCH 55 59
ATOM     56  C1  SGN C   4     156.774  16.379  55.9890  0.00  0.00     0.000 C
ATOM     57  C2  SGN C   4     155.511  16.088  55.1600  0.00  0.00     0.000 C
ATOM     58  C3  SGN C   4     155.783  16.289  53.6720  0.00  0.00     0.000 C
ATOM     59  C4  SGN C   4     156.417  17.652  53.4200  0.00  0.00     0.000 C
ATOM     60  C5  SGN C   4     157.671  17.776  54.2840  0.00  0.00     0.000 C
ATOM     61  O5  SGN C   4     157.280  17.664  55.6670  0.00  0.00     0.000 O
ATOM     62   O  SGN C   4     154.568  16.160  52.9450  0.00  0.00     0.000 O
ATOM     64  HD  SGN C   4     154.455  15.664  53.6460  0.00  0.00     0.000 HD
BRANCH 57 66
ATOM     64   N  SGN C   4     154.705  15.861  56.3700  0.00  0.00     0.000 N
ATOM     66  HD  SGN C   4     153.875  15.684  56.5450  0.00  0.00     0.000 HD
ATOM     66   S  SGN C   4     153.823  14.540  56.5220  0.00  0.00     0.000 S
ATOM     67   O  SGN C   4     153.121  14.636  57.7500  0.00  0.00     0.000 OA
ATOM     68   O  SGN C   4     153.094  14.385  55.3110  0.00  0.00     0.000 OA
ATOM     69   O  SGN C   4     154.882  13.396  56.6180  0.00  0.00     0.000 OA
ENDBRANCH 57 66
BRANCH 60 70
ATOM     70   C  SGN C   4     158.400  19.091  54.1150  0.00  0.00     0.000 C
ATOM     71   O  SGN C   4     161.395  19.747  51.9450  0.00  0.00     0.000 OA
ATOM     72   O  SGN C   4     159.087  20.299  51.4790  0.00  0.00     0.000 OA
ATOM     73   O  SGN C   4     159.617  18.901  53.3680  0.00  0.00     0.000 O
ATOM     74   S  SGN C   4     160.113  20.138  52.4840  0.00  0.00     0.000 S
ATOM     75   O  SGN C   4     160.191  21.249  53.4120  0.00  0.00     0.000 OA
ENDBRANCH 60 70
BRANCH 56 76
ATOM     76  O4  IDS C   5     157.796  15.649  56.4740  0.00  0.00     0.000 O
BRANCH 76 80
ATOM     77  C1  IDS C   5     160.889  14.723  53.9770  0.00  0.00     0.000 C
ATOM     78  C2  IDS C   5     159.861  13.606  54.1550  0.00  0.00     0.000 C
ATOM     79  C3  IDS C   5     158.573  14.177  54.7150  0.00  0.00     0.000 C
ATOM     80  C4  IDS C   5     158.819  14.705  56.1250  0.00  0.00     0.000 C
ATOM     81  C5  IDS C   5     160.203  15.367  56.1860  0.00  0.00     0.000 C
ATOM     82  O5  IDS C   5     160.615  15.791  54.8840  0.00  0.00     0.000 O
BRANCH 78 83
ATOM     83   O  IDS C   5     159.561  12.959  52.8560  0.00  0.00     0.000 O
ATOM     84   S  IDS C   5     160.098  11.486  52.5620  0.00  0.00     0.000 S
ATOM     85   O  IDS C   5     161.493  11.496  52.9140  0.00  0.00     0.000 OA
ATOM     86   O  IDS C   5     159.306  10.619  53.4020  0.00  0.00     0.000 OA
ATOM     87   O  IDS C   5     159.868  11.260  51.1560  0.00  0.00     0.000 OA
ENDBRANCH 78 83
BRANCH 81 88
ATOM     88   C  IDS C   5     160.268  16.574  57.1030  0.00  0.00     0.000 C
ATOM     89   O  IDS C   5     160.437  17.670  56.6390  0.00  0.00     0.000 OA
ATOM     90   O  IDS C   5     160.149  16.426  58.2980  0.00  0.00     0.000 OA
ENDBRANCH 81 88
ENDBRANCH 76 80
ENDBRANCH 56 76
ENDBRANCH 55 59
ENDBRANCH 39 55
ENDBRANCH 38 42
ENDBRANCH 18 38
ENDBRANCH 17 21
ENDBRANCH 1 17
TORSDOF 18
ENDMDL
MODEL 41
REMARK VINA RESULT:      -7.3      4.154      8.047
ROOT
ATOM      1  C1  IDS C   1     144.818  21.511  59.7870  0.00  0.00     0.000 C
ATOM      2  C2  IDS C   1     146.245  21.000  59.5650  0.00  0.00     0.000 C
ATOM      3  C3  IDS C   1     146.826  20.443  60.8560  0.00  0.00     0.000 C
ATOM      4  C4  IDS C   1     146.838  21.509  61.9430  0.00  0.00     0.000 C
ATOM      5  C5  IDS C   1     145.565  22.346  61.8690  0.00  0.00     0.000 C
ATOM      6  O5  IDS C   1     144.544  21.628  61.1770  0.00  0.00     0.000 O
ATOM      7   O  IDS C   1     148.159  19.967  60.6220  0.00  0.00     0.000 O
ATOM      9  HD  IDS C   1     148.187  19.614  59.8320  0.00  0.00     0.000 HD
ENDROOT
BRANCH 2 9
ATOM      9   O  IDS C   1     146.264  19.912  58.5610  0.00  0.00     0.000 O
ATOM     10   S  IDS C   1     147.300  19.981  57.3510  0.00  0.00     0.000 S
ATOM     11   O  IDS C   1     147.079  18.784  56.5710  0.00  0.00     0.000 OA
ATOM     12   O  IDS C   1     146.975  21.194  56.6280  0.00  0.00     0.000 OA
ATOM     13   O  IDS C   1     148.613  20.021  57.9570  0.00  0.00     0.000 OA
ENDBRANCH 2 9
BRANCH 5 14
ATOM     14   C  IDS C   1     145.043  22.718  63.2460  0.00  0.00     0.000 C
ATOM     15   O  IDS C   1     145.039  21.890  64.1240  0.00  0.00     0.000 OA
ATOM     16   O  IDS C   1     144.631  23.848  63.4530  0.00  0.00     0.000 OA
ENDBRANCH 5 14
BRANCH 1 17
ATOM     17  O4  SGN C   2     143.821  21.283  58.9270  0.00  0.00     0.000 O
BRANCH 17 21
ATOM     18  C1  SGN C   2     140.317  19.455  57.5470  0.00  0.00     0.000 C
ATOM     19  C2  SGN C   2     140.592  19.365  59.0540  0.00  0.00     0.000 C
ATOM     20  C3  SGN C   2     141.640  20.410  59.4540  0.00  0.00     0.000 C
ATOM     21  C4  SGN C   2     142.885  20.264  58.5870  0.00  0.00     0.000 C
ATOM     22  C5  SGN C   2     142.486  20.375  57.1190  0.00  0.00     0.000 C
ATOM     23  O5  SGN C   2     141.510  19.357  56.7990  0.00  0.00     0.000 O
ATOM     24   O  SGN C   2     141.959  20.271  60.8290  0.00  0.00     0.000 O
ATOM     26  HD  SGN C   2     141.777  20.694  60.0950  0.00  0.00     0.000 HD
BRANCH 19 28
ATOM     26   N  SGN C   2     139.425  19.538  59.9310  0.00  0.00     0.000 N
ATOM     28  HD  SGN C   2     139.280  20.094  59.2820  0.00  0.00     0.000 HD
ATOM     28   O  SGN C   2     137.787  18.547  61.5290  0.00  0.00     0.000 OA
ATOM     29   S  SGN C   2     138.261  18.435  60.0410  0.00  0.00     0.000 S
ATOM     30   O  SGN C   2     137.205  18.844  59.1980  0.00  0.00     0.000 OA
ATOM     31   O  SGN C   2     138.858  17.158  59.8510  0.00  0.00     0.000 OA
ENDBRANCH 19 28
BRANCH 22 32
ATOM     32   C  SGN C   2     143.642  20.186  56.1680  0.00  0.00     0.000 C
ATOM     33   S  SGN C   2     144.193  20.585  53.6820  0.00  0.00     0.000 S
ATOM     34   O  SGN C   2     143.441  19.431  53.2590  0.00  0.00     0.000 OA
ATOM     35   O  SGN C   2     144.067  21.719  52.7910  0.00  0.00     0.000 OA
ATOM     36   O  SGN C   2     145.558  20.295  54.0540  0.00  0.00     0.000 OA
ATOM     37   O  SGN C   2     143.479  21.046  55.0340  0.00  0.00     0.000 O
ENDBRANCH 22 32
BRANCH 18 38
ATOM     38  O4  IDS C   3     139.572  20.322  56.8580  0.00  0.00     0.000 O
BRANCH 38 42
ATOM     39  C1  IDS C   3     137.094  22.062  55.1380  0.00  0.00     0.000 C
ATOM     40  C2  IDS C   3     137.518  20.651  54.7020  0.00  0.00     0.000 C
ATOM     41  C3  IDS C   3     139.033  20.561  54.5190  0.00  0.00     0.000 C
ATOM     42  C4  IDS C   3     139.768  21.158  55.7120  0.00  0.00     0.000 C
ATOM     43  C5  IDS C   3     139.237  22.568  55.9970  0.00  0.00     0.000 C
ATOM     44  O5  IDS C   3     137.838  22.494  56.2650  0.00  0.00     0.000 O
ATOM     45   O  IDS C   3     139.408  21.253  53.3270  0.00  0.00     0.000 O
ATOM     47  HD  IDS C   3     139.291  22.055  53.0220  0.00  0.00     0.000 HD
BRANCH 40 47
ATOM     47   O  IDS C   3     137.133  19.651  55.7260  0.00  0.00     0.000 O
ATOM     48   S  IDS C   3     135.791  18.802  55.5440  0.00  0.00     0.000 S
ATOM     49   O  IDS C   3     134.706  19.692  55.9000  0.00  0.00     0.000 OA
ATOM     50   O  IDS C   3     135.917  17.690  56.4610  0.00  0.00     0.000 OA
ATOM     51   O  IDS C   3     135.750  18.397  54.1640  0.00  0.00     0.000 OA
ENDBRANCH 40 47
BRANCH 43 52
ATOM     52   C  IDS C   3     139.942  23.237  57.1550  0.00  0.00     0.000 C
ATOM     53   O  IDS C   3     139.345  23.442  58.1870  0.00  0.00     0.000 OA
ATOM     54   O  IDS C   3     141.097  23.562  57.0450  0.00  0.00     0.000 OA
ENDBRANCH 43 52
BRANCH 39 55
ATOM     55  O4  SGN C   4     136.786  23.038  54.2840  0.00  0.00     0.000 O
BRANCH 55 59
ATOM     56  C1  SGN C   4     133.243  22.389  52.1550  0.00  0.00     0.000 C
ATOM     57  C2  SGN C   4     134.496  22.711  51.3230  0.00  0.00     0.000 C
ATOM     58  C3  SGN C   4     135.761  22.534  52.1580  0.00  0.00     0.000 C
ATOM     59  C4  SGN C   4     135.649  23.297  53.4730  0.00  0.00     0.000 C
ATOM     60  C5  SGN C   4     134.381  22.846  54.1950  0.00  0.00     0.000 C
ATOM     61  O5  SGN C   4     133.250  23.148  53.3540  0.00  0.00     0.000 O
ATOM     62   O  SGN C   4     136.889  22.978  51.4150  0.00  0.00     0.000 O
ATOM     64  HD  SGN C   4     136.321  22.719  50.8140  0.00  0.00     0.000 HD
BRANCH 57 66
ATOM     64   N  SGN C   4     133.628  23.037  50.1810  0.00  0.00     0.000 N
ATOM     66  HD  SGN C   4     133.731  23.394  49.3980  0.00  0.00     0.000 HD
ATOM     66   S  SGN C   4     133.978  22.506  48.7170  0.00  0.00     0.000 S
ATOM     67   O  SGN C   4     133.004  23.030  47.8310  0.00  0.00     0.000 OA
ATOM     68   O  SGN C   4     135.353  22.789  48.4900  0.00  0.00     0.000 OA
ATOM     69   O  SGN C   4     133.798  20.959  48.8310  0.00  0.00     0.000 OA
ENDBRANCH 57 66
BRANCH 60 70
ATOM     70   C  SGN C   4     134.161  23.530  55.5280  0.00  0.00     0.000 C
ATOM     71   O  SGN C   4     130.869  24.178  57.2150  0.00  0.00     0.000 OA
ATOM     72   O  SGN C   4     132.463  22.429  57.7150  0.00  0.00     0.000 OA
ATOM     73   O  SGN C   4     132.759  23.780  55.7420  0.00  0.00     0.000 O
ATOM     74   S  SGN C   4     132.259  23.786  57.2610  0.00  0.00     0.000 S
ATOM     75   O  SGN C   4     133.109  24.752  57.9260  0.00  0.00     0.000 OA
ENDBRANCH 60 70
BRANCH 56 76
ATOM     76  O4  IDS C   5     132.483  21.299  52.3680  0.00  0.00     0.000 O
BRANCH 76 80
ATOM     77  C1  IDS C   5     129.005  22.271  54.2680  0.00  0.00     0.000 C
ATOM     78  C2  IDS C   5     129.718  21.045  54.8380  0.00  0.00     0.000 C
ATOM     79  C3  IDS C   5     131.163  21.032  54.3800  0.00  0.00     0.000 C
ATOM     80  C4  IDS C   5     131.217  20.843  52.8670  0.00  0.00     0.000 C
ATOM     81  C5  IDS C   5     130.069  21.627  52.2150  0.00  0.00     0.000 C
ATOM     82  O5  IDS C   5     129.645  22.696  53.0650  0.00  0.00     0.000 O
BRANCH 78 83
ATOM     83   O  IDS C   5     129.696  21.068  56.3190  0.00  0.00     0.000 O
ATOM     84   S  IDS C   5     129.125  19.814  57.1230  0.00  0.00     0.000 S
ATOM     85   O  IDS C   5     127.861  19.496  56.5140  0.00  0.00     0.000 OA
ATOM     86   O  IDS C   5     130.114  18.775  56.9570  0.00  0.00     0.000 OA
ATOM     87   O  IDS C   5     129.003  20.251  58.4930  0.00  0.00     0.000 OA
ENDBRANCH 78 83
BRANCH 81 88
ATOM     88   C  IDS C   5     130.422  22.227  50.8660  0.00  0.00     0.000 C
ATOM     89   O  IDS C   5     130.652  21.506  49.9320  0.00  0.00     0.000 OA
ATOM     90   O  IDS C   5     130.467  23.429  50.7390  0.00  0.00     0.000 OA
ENDBRANCH 81 88
ENDBRANCH 76 80
ENDBRANCH 56 76
ENDBRANCH 55 59
ENDBRANCH 39 55
ENDBRANCH 38 42
ENDBRANCH 18 38
ENDBRANCH 17 21
ENDBRANCH 1 17
TORSDOF 18
ENDMDL
MODEL 42
REMARK VINA RESULT:      -7.3     21.400     26.283
ROOT
ATOM      1  C1  IDS C   1     147.897  43.400  70.1100  0.00  0.00     0.000 C
ATOM      2  C2  IDS C   1     147.556  43.678  68.6440  0.00  0.00     0.000 C
ATOM      3  C3  IDS C   1     148.367  44.851  68.1130  0.00  0.00     0.000 C
ATOM      4  C4  IDS C   1     148.101  46.104  68.9370  0.00  0.00     0.000 C
ATOM      5  C5  IDS C   1     147.984  45.743  70.4140  0.00  0.00     0.000 C
ATOM      6  O5  IDS C   1     148.620  44.490  70.6660  0.00  0.00     0.000 O
ATOM      7   O  IDS C   1     148.033  45.089  66.7380  0.00  0.00     0.000 O
ATOM      9  HD  IDS C   1     147.893  44.325  66.3560  0.00  0.00     0.000 HD
ENDROOT
BRANCH 2 9
ATOM      9   O  IDS C   1     147.866  42.503  67.7990  0.00  0.00     0.000 O
ATOM     10   S  IDS C   1     146.690  41.783  66.9960  0.00  0.00     0.000 S
ATOM     11   O  IDS C   1     147.313  40.699  66.2690  0.00  0.00     0.000 OA
ATOM     12   O  IDS C   1     145.756  41.323  68.0040  0.00  0.00     0.000 OA
ATOM     13   O  IDS C   1     146.129  42.793  66.1270  0.00  0.00     0.000 OA
ENDBRANCH 2 9
BRANCH 5 14
ATOM     14   C  IDS C   1     148.615  46.793  71.3130  0.00  0.00     0.000 C
ATOM     15   O  IDS C   1     149.743  47.162  71.0930  0.00  0.00     0.000 OA
ATOM     16   O  IDS C   1     147.980  47.252  72.2470  0.00  0.00     0.000 OA
ENDBRANCH 5 14
BRANCH 1 17
ATOM     17  O4  SGN C   2     148.071  42.167  70.5960  0.00  0.00     0.000 O
BRANCH 17 21
ATOM     18  C1  SGN C   2     150.372  38.904  71.8520  0.00  0.00     0.000 C
ATOM     19  C2  SGN C   2     151.122  40.220  71.6100  0.00  0.00     0.000 C
ATOM     20  C3  SGN C   2     150.126  41.386  71.5780  0.00  0.00     0.000 C
ATOM     21  C4  SGN C   2     149.022  41.106  70.5650  0.00  0.00     0.000 C
ATOM     22  C5  SGN C   2     148.352  39.780  70.9130  0.00  0.00     0.000 C
ATOM     23  O5  SGN C   2     149.335  38.720  70.9110  0.00  0.00     0.000 O
ATOM     24   O  SGN C   2     150.805  42.592  71.2690  0.00  0.00     0.000 O
ATOM     26  HD  SGN C   2     150.239  42.083  71.6830  0.00  0.00     0.000 HD
BRANCH 19 28
ATOM     26   N  SGN C   2     152.401  39.963  72.2860  0.00  0.00     0.000 N
ATOM     28  HD  SGN C   2     152.230  39.218  71.8790  0.00  0.00     0.000 HD
ATOM     28   O  SGN C   2     154.594  40.823  73.1060  0.00  0.00     0.000 OA
ATOM     29   S  SGN C   2     153.783  40.613  71.7830  0.00  0.00     0.000 S
ATOM     30   O  SGN C   2     154.446  39.645  70.9960  0.00  0.00     0.000 OA
ATOM     31   O  SGN C   2     153.485  41.887  71.2270  0.00  0.00     0.000 OA
ENDBRANCH 19 28
BRANCH 22 32
ATOM     32   C  SGN C   2     147.276  39.378  69.9340  0.00  0.00     0.000 C
ATOM     33   S  SGN C   2     146.692  37.387  68.4060  0.00  0.00     0.000 S
ATOM     34   O  SGN C   2     147.677  37.762  67.4240  0.00  0.00     0.000 OA
ATOM     35   O  SGN C   2     146.589  35.956  68.6080  0.00  0.00     0.000 OA
ATOM     36   O  SGN C   2     145.413  38.036  68.2360  0.00  0.00     0.000 OA
ATOM     37   O  SGN C   2     147.271  37.954  69.7810  0.00  0.00     0.000 O
ENDBRANCH 22 32
BRANCH 18 38
ATOM     38  O4  IDS C   3     149.882  38.386  72.9800  0.00  0.00     0.000 O
BRANCH 38 42
ATOM     39  C1  IDS C   3     148.665  36.158  75.3640  0.00  0.00     0.000 C
ATOM     40  C2  IDS C   3     148.083  37.574  75.2340  0.00  0.00     0.000 C
ATOM     41  C3  IDS C   3     149.186  38.631  75.2760  0.00  0.00     0.000 C
ATOM     42  C4  IDS C   3     150.329  38.273  74.3360  0.00  0.00     0.000 C
ATOM     43  C5  IDS C   3     150.800  36.840  74.6130  0.00  0.00     0.000 C
ATOM     44  O5  IDS C   3     149.705  35.944  74.4250  0.00  0.00     0.000 O
ATOM     45   O  IDS C   3     149.680  38.747  76.6120  0.00  0.00     0.000 O
ATOM     47  HD  IDS C   3     150.010  38.196  77.1930  0.00  0.00     0.000 HD
BRANCH 40 47
ATOM     47   O  IDS C   3     147.369  37.728  73.9450  0.00  0.00     0.000 O
ATOM     48   S  IDS C   3     145.770  37.748  73.9180  0.00  0.00     0.000 S
ATOM     49   O  IDS C   3     145.352  36.371  74.0690  0.00  0.00     0.000 OA
ATOM     50   O  IDS C   3     145.418  38.294  72.6250  0.00  0.00     0.000 OA
ATOM     51   O  IDS C   3     145.356  38.580  75.0160  0.00  0.00     0.000 OA
ENDBRANCH 40 47
BRANCH 43 52
ATOM     52   C  IDS C   3     151.956  36.422  73.7320  0.00  0.00     0.000 C
ATOM     53   O  IDS C   3     151.926  35.355  73.1640  0.00  0.00     0.000 OA
ATOM     54   O  IDS C   3     152.902  37.157  73.6000  0.00  0.00     0.000 OA
ENDBRANCH 43 52
BRANCH 39 55
ATOM     55  O4  SGN C   4     148.852  35.540  76.5300  0.00  0.00     0.000 O
BRANCH 55 59
ATOM     56  C1  SGN C   4     146.099  32.476  77.2620  0.00  0.00     0.000 C
ATOM     57  C2  SGN C   4     146.163  33.606  78.3040  0.00  0.00     0.000 C
ATOM     58  C3  SGN C   4     146.890  34.823  77.7380  0.00  0.00     0.000 C
ATOM     59  C4  SGN C   4     148.234  34.418  77.1450  0.00  0.00     0.000 C
ATOM     60  C5  SGN C   4     148.003  33.319  76.1100  0.00  0.00     0.000 C
ATOM     61  O5  SGN C   4     147.400  32.191  76.7760  0.00  0.00     0.000 O
ATOM     62   O  SGN C   4     147.065  35.791  78.7640  0.00  0.00     0.000 O
ATOM     64  HD  SGN C   4     146.349  35.361  78.9920  0.00  0.00     0.000 HD
BRANCH 57 66
ATOM     64   N  SGN C   4     145.130  32.759  78.9220  0.00  0.00     0.000 N
ATOM     66  HD  SGN C   4     144.943  32.483  79.7220  0.00  0.00     0.000 HD
ATOM     66   S  SGN C   4     144.263  33.300  80.1470  0.00  0.00     0.000 S
ATOM     67   O  SGN C   4     143.407  32.248  80.5600  0.00  0.00     0.000 OA
ATOM     68   O  SGN C   4     145.172  33.868  81.0820  0.00  0.00     0.000 OA
ATOM     69   O  SGN C   4     143.409  34.447  79.5190  0.00  0.00     0.000 OA
ENDBRANCH 57 66
BRANCH 60 70
ATOM     70   C  SGN C   4     149.271  32.836  75.4390  0.00  0.00     0.000 C
ATOM     71   O  SGN C   4     149.748  29.611  73.5730  0.00  0.00     0.000 OA
ATOM     72   O  SGN C   4     149.401  31.816  72.6420  0.00  0.00     0.000 OA
ATOM     73   O  SGN C   4     149.125  31.468  75.0100  0.00  0.00     0.000 O
ATOM     74   S  SGN C   4     149.962  31.032  73.7190  0.00  0.00     0.000 S
ATOM     75   O  SGN C   4     151.334  31.380  74.0320  0.00  0.00     0.000 OA
ENDBRANCH 60 70
BRANCH 56 76
ATOM     76  O4  IDS C   5     145.218  32.080  76.3240  0.00  0.00     0.000 O
BRANCH 76 80
ATOM     77  C1  IDS C   5     142.507  30.680  73.6140  0.00  0.00     0.000 C
ATOM     78  C2  IDS C   5     141.902  31.512  74.7440  0.00  0.00     0.000 C
ATOM     79  C3  IDS C   5     142.986  32.330  75.4180  0.00  0.00     0.000 C
ATOM     80  C4  IDS C   5     143.975  31.396  76.1100  0.00  0.00     0.000 C
ATOM     81  C5  IDS C   5     144.191  30.149  75.2410  0.00  0.00     0.000 C
ATOM     82  O5  IDS C   5     143.889  30.433  73.8710  0.00  0.00     0.000 O
BRANCH 78 83
ATOM     83   O  IDS C   5     140.873  32.440  74.2190  0.00  0.00     0.000 O
ATOM     84   S  IDS C   5     139.331  32.167  74.5210  0.00  0.00     0.000 S
ATOM     85   O  IDS C   5     139.104  30.783  74.2010  0.00  0.00     0.000 OA
ATOM     86   O  IDS C   5     139.163  32.460  75.9250  0.00  0.00     0.000 OA
ATOM     87   O  IDS C   5     138.600  33.076  73.6720  0.00  0.00     0.000 OA
ENDBRANCH 78 83
BRANCH 81 88
ATOM     88   C  IDS C   5     145.605  29.600  75.2930  0.00  0.00     0.000 C
ATOM     89   O  IDS C   5     145.945  28.911  76.2170  0.00  0.00     0.000 OA
ATOM     90   O  IDS C   5     146.381  29.859  74.4020  0.00  0.00     0.000 OA
ENDBRANCH 81 88
ENDBRANCH 76 80
ENDBRANCH 56 76
ENDBRANCH 55 59
ENDBRANCH 39 55
ENDBRANCH 38 42
ENDBRANCH 18 38
ENDBRANCH 17 21
ENDBRANCH 1 17
TORSDOF 18
ENDMDL
MODEL 43
REMARK VINA RESULT:      -7.3      5.000      9.741
ROOT
ATOM      1  C1  IDS C   1     157.837  16.897  54.6950  0.00  0.00     0.000 C
ATOM      2  C2  IDS C   1     159.058  17.114  55.5920  0.00  0.00     0.000 C
ATOM      3  C3  IDS C   1     159.633  18.509  55.3950  0.00  0.00     0.000 C
ATOM      4  C4  IDS C   1     160.032  18.725  53.9420  0.00  0.00     0.000 C
ATOM      5  C5  IDS C   1     159.003  18.085  53.0160  0.00  0.00     0.000 C
ATOM      6  O5  IDS C   1     157.764  17.913  53.7030  0.00  0.00     0.000 O
ATOM      7   O  IDS C   1     160.772  18.690  56.2490  0.00  0.00     0.000 O
ATOM      9  HD  IDS C   1     160.620  18.279  56.9960  0.00  0.00     0.000 HD
ENDROOT
BRANCH 2 9
ATOM      9   O  IDS C   1     158.694  16.979  57.0210  0.00  0.00     0.000 O
ATOM     10   S  IDS C   1     159.453  15.907  57.9260  0.00  0.00     0.000 S
ATOM     11   O  IDS C   1     158.885  16.032  59.2490  0.00  0.00     0.000 OA
ATOM     12   O  IDS C   1     159.183  14.621  57.3150  0.00  0.00     0.000 OA
ATOM     13   O  IDS C   1     160.852  16.271  57.8790  0.00  0.00     0.000 OA
ENDBRANCH 2 9
BRANCH 5 14
ATOM     14   C  IDS C   1     158.752  18.921  51.7730  0.00  0.00     0.000 C
ATOM     15   O  IDS C   1     159.485  19.847  51.5220  0.00  0.00     0.000 OA
ATOM     16   O  IDS C   1     157.814  18.652  51.0410  0.00  0.00     0.000 OA
ENDBRANCH 5 14
BRANCH 1 17
ATOM     17  O4  SGN C   2     156.721  16.296  55.1180  0.00  0.00     0.000 O
BRANCH 17 21
ATOM     18  C1  SGN C   2     152.988  16.224  57.0110  0.00  0.00     0.000 C
ATOM     19  C2  SGN C   2     153.616  17.605  56.7840  0.00  0.00     0.000 C
ATOM     20  C3  SGN C   2     154.730  17.502  55.7350  0.00  0.00     0.000 C
ATOM     21  C4  SGN C   2     155.730  16.424  56.1350  0.00  0.00     0.000 C
ATOM     22  C5  SGN C   2     154.989  15.104  56.3250  0.00  0.00     0.000 C
ATOM     23  O5  SGN C   2     153.966  15.259  57.3350  0.00  0.00     0.000 O
ATOM     24   O  SGN C   2     155.371  18.759  55.5880  0.00  0.00     0.000 O
ATOM     26  HD  SGN C   2     155.018  18.012  55.3260  0.00  0.00     0.000 HD
BRANCH 19 28
ATOM     26   N  SGN C   2     152.452  18.487  56.9450  0.00  0.00     0.000 N
ATOM     28  HD  SGN C   2     152.316  17.858  57.5250  0.00  0.00     0.000 HD
ATOM     28   O  SGN C   2     151.490  20.788  56.8870  0.00  0.00     0.000 OA
ATOM     29   S  SGN C   2     152.558  19.930  57.6460  0.00  0.00     0.000 S
ATOM     30   O  SGN C   2     152.146  19.781  58.9890  0.00  0.00     0.000 OA
ATOM     31   O  SGN C   2     153.848  20.455  57.3600  0.00  0.00     0.000 OA
ENDBRANCH 19 28
BRANCH 22 32
ATOM     32   C  SGN C   2     155.883  13.976  56.7810  0.00  0.00     0.000 C
ATOM     33   S  SGN C   2     156.508  11.584  56.0540  0.00  0.00     0.000 S
ATOM     34   O  SGN C   2     155.276  11.034  56.5620  0.00  0.00     0.000 OA
ATOM     35   O  SGN C   2     156.938  10.989  54.8050  0.00  0.00     0.000 OA
ATOM     36   O  SGN C   2     157.561  11.680  57.0370  0.00  0.00     0.000 OA
ATOM     37   O  SGN C   2     156.141  13.092  55.6830  0.00  0.00     0.000 O
ENDBRANCH 22 32
BRANCH 18 38
ATOM     38  O4  IDS C   3     152.099  15.551  56.2770  0.00  0.00     0.000 O
BRANCH 38 42
ATOM     39  C1  IDS C   3     149.203  14.182  54.9100  0.00  0.00     0.000 C
ATOM     40  C2  IDS C   3     150.457  13.322  55.1320  0.00  0.00     0.000 C
ATOM     41  C3  IDS C   3     151.690  13.970  54.5030  0.00  0.00     0.000 C
ATOM     42  C4  IDS C   3     151.794  15.440  54.8820  0.00  0.00     0.000 C
ATOM     43  C5  IDS C   3     150.469  16.150  54.5780  0.00  0.00     0.000 C
ATOM     44  O5  IDS C   3     149.423  15.522  55.3180  0.00  0.00     0.000 O
ATOM     45   O  IDS C   3     151.618  13.842  53.0820  0.00  0.00     0.000 O
ATOM     47  HD  IDS C   3     151.038  14.058  52.4760  0.00  0.00     0.000 HD
BRANCH 40 47
ATOM     47   O  IDS C   3     150.729  13.162  56.5810  0.00  0.00     0.000 O
ATOM     48   S  IDS C   3     150.305  11.812  57.3260  0.00  0.00     0.000 S
ATOM     49   O  IDS C   3     148.875  11.903  57.5290  0.00  0.00     0.000 OA
ATOM     50   O  IDS C   3     151.042  11.817  58.5700  0.00  0.00     0.000 OA
ATOM     51   O  IDS C   3     150.676  10.732  56.4520  0.00  0.00     0.000 OA
ENDBRANCH 40 47
BRANCH 43 52
ATOM     52   C  IDS C   3     150.506  17.626  54.9050  0.00  0.00     0.000 C
ATOM     53   O  IDS C   3     149.868  18.054  55.8380  0.00  0.00     0.000 OA
ATOM     54   O  IDS C   3     151.174  18.370  54.2320  0.00  0.00     0.000 OA
ENDBRANCH 43 52
BRANCH 39 55
ATOM     55  O4  SGN C   4     148.403  14.062  53.8500  0.00  0.00     0.000 O
BRANCH 55 59
ATOM     56  C1  SGN C   4     144.292  14.788  53.5790  0.00  0.00     0.000 C
ATOM     57  C2  SGN C   4     144.774  14.028  54.8260  0.00  0.00     0.000 C
ATOM     58  C3  SGN C   4     146.284  14.176  54.9990  0.00  0.00     0.000 C
ATOM     59  C4  SGN C   4     147.010  13.820  53.7070  0.00  0.00     0.000 C
ATOM     60  C5  SGN C   4     146.447  14.676  52.5750  0.00  0.00     0.000 C
ATOM     61  O5  SGN C   4     145.041  14.384  52.4440  0.00  0.00     0.000 O
ATOM     62   O  SGN C   4     146.723  13.346  56.0670  0.00  0.00     0.000 O
ATOM     64  HD  SGN C   4     145.904  13.541  56.2670  0.00  0.00     0.000 HD
BRANCH 57 66
ATOM     64   N  SGN C   4     143.862  13.095  55.5060  0.00  0.00     0.000 N
ATOM     66  HD  SGN C   4     143.638  12.925  56.3250  0.00  0.00     0.000 HD
ATOM     66   S  SGN C   4     142.764  13.636  56.5310  0.00  0.00     0.000 S
ATOM     67   O  SGN C   4     142.089  12.510  57.0640  0.00  0.00     0.000 OA
ATOM     68   O  SGN C   4     143.426  14.535  57.4130  0.00  0.00     0.000 OA
ATOM     69   O  SGN C   4     141.783  14.451  55.6290  0.00  0.00     0.000 OA
ENDBRANCH 57 66
BRANCH 60 70
ATOM     70   C  SGN C   4     147.098  14.420  51.2340  0.00  0.00     0.000 C
ATOM     71   O  SGN C   4     148.589  16.981  48.9250  0.00  0.00     0.000 OA
ATOM     72   O  SGN C   4     149.760  15.496  50.4320  0.00  0.00     0.000 OA
ATOM     73   O  SGN C   4     147.359  15.664  50.5540  0.00  0.00     0.000 O
ATOM     74   S  SGN C   4     148.617  15.687  49.5670  0.00  0.00     0.000 S
ATOM     75   O  SGN C   4     148.393  14.584  48.6550  0.00  0.00     0.000 OA
ENDBRANCH 60 70
BRANCH 56 76
ATOM     76  O4  IDS C   5     143.809  16.020  53.3300  0.00  0.00     0.000 O
BRANCH 76 80
ATOM     77  C1  IDS C   5     146.319  19.195  52.8070  0.00  0.00     0.000 C
ATOM     78  C2  IDS C   5     145.801  19.024  54.2350  0.00  0.00     0.000 C
ATOM     79  C3  IDS C   5     145.262  17.620  54.4220  0.00  0.00     0.000 C
ATOM     80  C4  IDS C   5     144.034  17.422  53.5380  0.00  0.00     0.000 C
ATOM     81  C5  IDS C   5     144.253  18.135  52.1960  0.00  0.00     0.000 C
ATOM     82  O5  IDS C   5     145.650  18.288  51.9300  0.00  0.00     0.000 O
BRANCH 78 83
ATOM     83   O  IDS C   5     146.889  19.243  55.2160  0.00  0.00     0.000 O
ATOM     84   S  IDS C   5     146.722  20.352  56.3510  0.00  0.00     0.000 S
ATOM     85   O  IDS C   5     146.278  21.543  55.6770  0.00  0.00     0.000 OA
ATOM     86   O  IDS C   5     145.739  19.816  57.2620  0.00  0.00     0.000 OA
ATOM     87   O  IDS C   5     148.024  20.491  56.9560  0.00  0.00     0.000 OA
ENDBRANCH 78 83
BRANCH 81 88
ATOM     88   C  IDS C   5     143.637  17.416  51.0090  0.00  0.00     0.000 C
ATOM     89   O  IDS C   5     144.342  16.817  50.2410  0.00  0.00     0.000 OA
ATOM     90   O  IDS C   5     142.439  17.450  50.8450  0.00  0.00     0.000 OA
ENDBRANCH 81 88
ENDBRANCH 76 80
ENDBRANCH 56 76
ENDBRANCH 55 59
ENDBRANCH 39 55
ENDBRANCH 38 42
ENDBRANCH 18 38
ENDBRANCH 17 21
ENDBRANCH 1 17
TORSDOF 18
ENDMDL
MODEL 44
REMARK VINA RESULT:      -7.3     17.765     21.757
ROOT
ATOM      1  C1  IDS C   1     150.542  37.873  43.4090  0.00  0.00     0.000 C
ATOM      2  C2  IDS C   1     151.415  38.250  42.2090  0.00  0.00     0.000 C
ATOM      3  C3  IDS C   1     152.887  38.016  42.5170  0.00  0.00     0.000 C
ATOM      4  C4  IDS C   1     153.319  38.831  43.7280  0.00  0.00     0.000 C
ATOM      5  C5  IDS C   1     152.214  38.830  44.7800  0.00  0.00     0.000 C
ATOM      6  O5  IDS C   1     151.341  37.719  44.5750  0.00  0.00     0.000 O
ATOM      7   O  IDS C   1     153.683  38.372  41.3780  0.00  0.00     0.000 O
ATOM      9  HD  IDS C   1     153.249  38.151  40.6620  0.00  0.00     0.000 HD
ENDROOT
BRANCH 2 9
ATOM      9   O  IDS C   1     151.070  37.429  41.0270  0.00  0.00     0.000 O
ATOM     10   S  IDS C   1     150.649  38.149  39.6680  0.00  0.00     0.000 S
ATOM     11   O  IDS C   1     150.393  37.088  38.7200  0.00  0.00     0.000 OA
ATOM     12   O  IDS C   1     149.464  38.919  39.9860  0.00  0.00     0.000 OA
ATOM     13   O  IDS C   1     151.775  38.976  39.2940  0.00  0.00     0.000 OA
ENDBRANCH 2 9
BRANCH 5 14
ATOM     14   C  IDS C   1     152.767  38.753  46.1930  0.00  0.00     0.000 C
ATOM     15   O  IDS C   1     153.884  38.332  46.3710  0.00  0.00     0.000 OA
ATOM     16   O  IDS C   1     152.079  39.113  47.1330  0.00  0.00     0.000 OA
ENDBRANCH 5 14
BRANCH 1 17
ATOM     17  O4  SGN C   2     149.397  37.195  43.2910  0.00  0.00     0.000 O
BRANCH 17 21
ATOM     18  C1  SGN C   2     146.849  33.928  43.8940  0.00  0.00     0.000 C
ATOM     19  C2  SGN C   2     148.106  33.991  44.7710  0.00  0.00     0.000 C
ATOM     20  C3  SGN C   2     148.690  35.408  44.7420  0.00  0.00     0.000 C
ATOM     21  C4  SGN C   2     148.917  35.853  43.3020  0.00  0.00     0.000 C
ATOM     22  C5  SGN C   2     147.601  35.752  42.5360  0.00  0.00     0.000 C
ATOM     23  O5  SGN C   2     147.110  34.392  42.5860  0.00  0.00     0.000 O
ATOM     24   O  SGN C   2     149.899  35.447  45.4820  0.00  0.00     0.000 O
ATOM     26  HD  SGN C   2     149.128  35.729  45.2060  0.00  0.00     0.000 HD
BRANCH 19 28
ATOM     26   N  SGN C   2     147.896  33.589  46.1690  0.00  0.00     0.000 N
ATOM     28  HD  SGN C   2     147.146  33.961  45.9480  0.00  0.00     0.000 HD
ATOM     28   O  SGN C   2     148.350  31.980  48.0210  0.00  0.00     0.000 OA
ATOM     29   S  SGN C   2     147.695  32.053  46.6010  0.00  0.00     0.000 S
ATOM     30   O  SGN C   2     146.306  31.826  46.7310  0.00  0.00     0.000 OA
ATOM     31   O  SGN C   2     148.457  31.250  45.7080  0.00  0.00     0.000 OA
ENDBRANCH 19 28
BRANCH 22 32
ATOM     32   C  SGN C   2     147.728  36.116  41.0770  0.00  0.00     0.000 C
ATOM     33   S  SGN C   2     146.787  35.357  38.8010  0.00  0.00     0.000 S
ATOM     34   O  SGN C   2     147.643  34.198  38.7560  0.00  0.00     0.000 OA
ATOM     35   O  SGN C   2     145.454  35.115  38.2910  0.00  0.00     0.000 OA
ATOM     36   O  SGN C   2     147.395  36.557  38.2760  0.00  0.00     0.000 OA
ATOM     37   O  SGN C   2     146.585  35.637  40.3600  0.00  0.00     0.000 O
ENDBRANCH 22 32
BRANCH 18 38
ATOM     38  O4  IDS C   3     145.604  34.340  44.1420  0.00  0.00     0.000 O
BRANCH 38 42
ATOM     39  C1  IDS C   3     142.336  35.542  44.1170  0.00  0.00     0.000 C
ATOM     40  C2  IDS C   3     143.415  36.200  44.9920  0.00  0.00     0.000 C
ATOM     41  C3  IDS C   3     144.128  35.165  45.8610  0.00  0.00     0.000 C
ATOM     42  C4  IDS C   3     144.556  33.957  45.0390  0.00  0.00     0.000 C
ATOM     43  C5  IDS C   3     143.360  33.417  44.2470  0.00  0.00     0.000 C
ATOM     44  O5  IDS C   3     142.864  34.445  43.3920  0.00  0.00     0.000 O
ATOM     45   O  IDS C   3     143.255  34.748  46.9130  0.00  0.00     0.000 O
ATOM     47  HD  IDS C   3     142.456  34.416  46.9490  0.00  0.00     0.000 HD
BRANCH 40 47
ATOM     47   O  IDS C   3     144.441  36.855  44.1470  0.00  0.00     0.000 O
ATOM     48   S  IDS C   3     144.038  38.098  43.2250  0.00  0.00     0.000 S
ATOM     49   O  IDS C   3     143.351  37.537  42.0810  0.00  0.00     0.000 OA
ATOM     50   O  IDS C   3     145.291  38.725  42.8640  0.00  0.00     0.000 OA
ATOM     51   O  IDS C   3     143.192  38.941  44.0260  0.00  0.00     0.000 OA
ENDBRANCH 40 47
BRANCH 43 52
ATOM     52   C  IDS C   3     143.704  32.194  43.4260  0.00  0.00     0.000 C
ATOM     53   O  IDS C   3     143.367  32.132  42.2660  0.00  0.00     0.000 OA
ATOM     54   O  IDS C   3     144.315  31.287  43.9320  0.00  0.00     0.000 OA
ENDBRANCH 43 52
BRANCH 39 55
ATOM     55  O4  SGN C   4     141.070  35.379  44.5030  0.00  0.00     0.000 O
BRANCH 55 59
ATOM     56  C1  SGN C   4     138.437  34.330  41.4260  0.00  0.00     0.000 C
ATOM     57  C2  SGN C   4     138.563  35.830  41.7410  0.00  0.00     0.000 C
ATOM     58  C3  SGN C   4     139.810  36.105  42.5770  0.00  0.00     0.000 C
ATOM     59  C4  SGN C   4     139.855  35.186  43.7930  0.00  0.00     0.000 C
ATOM     60  C5  SGN C   4     139.754  33.738  43.3180  0.00  0.00     0.000 C
ATOM     61  O5  SGN C   4     138.500  33.575  42.6250  0.00  0.00     0.000 O
ATOM     62   O  SGN C   4     139.823  37.468  42.9780  0.00  0.00     0.000 O
ATOM     64  HD  SGN C   4     139.382  37.466  42.2330  0.00  0.00     0.000 HD
BRANCH 57 66
ATOM     64   N  SGN C   4     137.353  35.997  40.9190  0.00  0.00     0.000 N
ATOM     66  HD  SGN C   4     136.748  36.607  40.8130  0.00  0.00     0.000 HD
ATOM     66   S  SGN C   4     137.173  37.283  39.9920  0.00  0.00     0.000 S
ATOM     67   O  SGN C   4     135.898  37.190  39.3790  0.00  0.00     0.000 OA
ATOM     68   O  SGN C   4     137.484  38.418  40.7900  0.00  0.00     0.000 OA
ATOM     69   O  SGN C   4     138.284  37.116  38.9060  0.00  0.00     0.000 OA
ENDBRANCH 57 66
BRANCH 60 70
ATOM     70   C  SGN C   4     139.798  32.723  44.4390  0.00  0.00     0.000 C
ATOM     71   O  SGN C   4     138.939  29.073  44.2130  0.00  0.00     0.000 OA
ATOM     72   O  SGN C   4     141.142  30.070  44.2460  0.00  0.00     0.000 OA
ATOM     73   O  SGN C   4     139.202  31.480  44.0190  0.00  0.00     0.000 O
ATOM     74   S  SGN C   4     139.772  30.150  44.6980  0.00  0.00     0.000 S
ATOM     75   O  SGN C   4     139.647  30.379  46.1240  0.00  0.00     0.000 OA
ENDBRANCH 60 70
BRANCH 56 76
ATOM     76  O4  IDS C   5     138.816  33.523  40.4180  0.00  0.00     0.000 O
BRANCH 76 80
ATOM     77  C1  IDS C   5     142.469  33.307  38.6100  0.00  0.00     0.000 C
ATOM     78  C2  IDS C   5     141.560  34.411  38.0720  0.00  0.00     0.000 C
ATOM     79  C3  IDS C   5     140.450  34.693  39.0660  0.00  0.00     0.000 C
ATOM     80  C4  IDS C   5     139.546  33.469  39.1820  0.00  0.00     0.000 C
ATOM     81  C5  IDS C   5     140.403  32.197  39.1210  0.00  0.00     0.000 C
ATOM     82  O5  IDS C   5     141.748  32.476  39.5190  0.00  0.00     0.000 O
BRANCH 78 83
ATOM     83   O  IDS C   5     142.325  35.662  37.8570  0.00  0.00     0.000 O
ATOM     84   S  IDS C   5     142.281  36.383  36.4350  0.00  0.00     0.000 S
ATOM     85   O  IDS C   5     142.534  35.355  35.4610  0.00  0.00     0.000 OA
ATOM     86   O  IDS C   5     140.954  36.944  36.3360  0.00  0.00     0.000 OA
ATOM     87   O  IDS C   5     143.310  37.393  36.4770  0.00  0.00     0.000 OA
ENDBRANCH 78 83
BRANCH 81 88
ATOM     88   C  IDS C   5     139.891  31.067  39.9960  0.00  0.00     0.000 C
ATOM     89   O  IDS C   5     140.424  30.837  41.0480  0.00  0.00     0.000 OA
ATOM     90   O  IDS C   5     138.948  30.405  39.6290  0.00  0.00     0.000 OA
ENDBRANCH 81 88
ENDBRANCH 76 80
ENDBRANCH 56 76
ENDBRANCH 55 59
ENDBRANCH 39 55
ENDBRANCH 38 42
ENDBRANCH 18 38
ENDBRANCH 17 21
ENDBRANCH 1 17
TORSDOF 18
ENDMDL
MODEL 45
REMARK VINA RESULT:      -7.3      5.260      9.264
ROOT
ATOM      1  C1  IDS C   1     154.097  16.332  47.6760  0.00  0.00     0.000 C
ATOM      2  C2  IDS C   1     154.886  15.555  46.6190  0.00  0.00     0.000 C
ATOM      3  C3  IDS C   1     156.313  15.307  47.0840  0.00  0.00     0.000 C
ATOM      4  C4  IDS C   1     157.021  16.624  47.3700  0.00  0.00     0.000 C
ATOM      5  C5  IDS C   1     156.060  17.599  48.0420  0.00  0.00     0.000 C
ATOM      6  O5  IDS C   1     154.979  16.887  48.6440  0.00  0.00     0.000 O
ATOM      7   O  IDS C   1     157.030  14.574  46.0800  0.00  0.00     0.000 O
ATOM      9  HD  IDS C   1     156.485  14.009  45.7140  0.00  0.00     0.000 HD
ENDROOT
BRANCH 2 9
ATOM      9   O  IDS C   1     154.264  14.236  46.3620  0.00  0.00     0.000 O
ATOM     10   S  IDS C   1     153.657  13.922  44.9210  0.00  0.00     0.000 S
ATOM     11   O  IDS C   1     153.148  12.571  44.9910  0.00  0.00     0.000 OA
ATOM     12   O  IDS C   1     152.616  14.908  44.7150  0.00  0.00     0.000 OA
ATOM     13   O  IDS C   1     154.756  14.060  43.9920  0.00  0.00     0.000 OA
ENDBRANCH 2 9
BRANCH 5 14
ATOM     14   C  IDS C   1     156.744  18.431  49.1140  0.00  0.00     0.000 C
ATOM     15   O  IDS C   1     156.073  19.018  49.9280  0.00  0.00     0.000 OA
ATOM     16   O  IDS C   1     157.961  18.502  49.1400  0.00  0.00     0.000 OA
ENDBRANCH 5 14
BRANCH 1 17
ATOM     17  O4  SGN C   2     152.840  16.031  48.0140  0.00  0.00     0.000 O
BRANCH 17 21
ATOM     18  C1  SGN C   2     150.223  14.127  50.6700  0.00  0.00     0.000 C
ATOM     19  C2  SGN C   2     151.717  13.819  50.8380  0.00  0.00     0.000 C
ATOM     20  C3  SGN C   2     152.551  14.880  50.1100  0.00  0.00     0.000 C
ATOM     21  C4  SGN C   2     152.101  14.996  48.6580  0.00  0.00     0.000 C
ATOM     22  C5  SGN C   2     150.608  15.306  48.6220  0.00  0.00     0.000 C
ATOM     23  O5  SGN C   2     149.875  14.265  49.3090  0.00  0.00     0.000 O
ATOM     24   O  SGN C   2     153.927  14.551  50.1910  0.00  0.00     0.000 O
ATOM     26  HD  SGN C   2     153.233  15.068  50.2070  0.00  0.00     0.000 HD
BRANCH 19 28
ATOM     26   N  SGN C   2     151.747  13.204  52.1720  0.00  0.00     0.000 N
ATOM     28  HD  SGN C   2     151.047  12.854  51.8000  0.00  0.00     0.000 HD
ATOM     28   O  SGN C   2     153.077  12.348  54.1010  0.00  0.00     0.000 OA
ATOM     29   S  SGN C   2     152.828  12.085  52.5780  0.00  0.00     0.000 S
ATOM     30   O  SGN C   2     152.209  10.823  52.4330  0.00  0.00     0.000 OA
ATOM     31   O  SGN C   2     154.027  12.365  51.8670  0.00  0.00     0.000 OA
ENDBRANCH 19 28
BRANCH 22 32
ATOM     32   C  SGN C   2     150.046  15.385  47.2240  0.00  0.00     0.000 C
ATOM     33   S  SGN C   2     147.810  15.919  46.0600  0.00  0.00     0.000 S
ATOM     34   O  SGN C   2     147.252  14.632  46.3900  0.00  0.00     0.000 OA
ATOM     35   O  SGN C   2     146.858  17.006  46.1550  0.00  0.00     0.000 OA
ATOM     36   O  SGN C   2     148.578  15.932  44.8370  0.00  0.00     0.000 OA
ATOM     37   O  SGN C   2     148.868  16.199  47.2220  0.00  0.00     0.000 O
ENDBRANCH 22 32
BRANCH 18 38
ATOM     38  O4  IDS C   3     149.452  15.019  51.2940  0.00  0.00     0.000 O
BRANCH 38 42
ATOM     39  C1  IDS C   3     148.510  17.231  53.8150  0.00  0.00     0.000 C
ATOM     40  C2  IDS C   3     149.249  15.924  54.1430  0.00  0.00     0.000 C
ATOM     41  C3  IDS C   3     148.551  14.720  53.5110  0.00  0.00     0.000 C
ATOM     42  C4  IDS C   3     148.233  14.975  52.0440  0.00  0.00     0.000 C
ATOM     43  C5  IDS C   3     147.481  16.304  51.9000  0.00  0.00     0.000 C
ATOM     44  O5  IDS C   3     148.290  17.357  52.4200  0.00  0.00     0.000 O
ATOM     45   O  IDS C   3     147.345  14.444  54.2260  0.00  0.00     0.000 O
ATOM     47  HD  IDS C   3     146.641  14.901  54.4380  0.00  0.00     0.000 HD
BRANCH 40 47
ATOM     47   O  IDS C   3     150.634  15.963  53.6160  0.00  0.00     0.000 O
ATOM     48   S  IDS C   3     151.871  16.004  54.6290  0.00  0.00     0.000 S
ATOM     49   O  IDS C   3     151.940  17.365  55.1160  0.00  0.00     0.000 OA
ATOM     50   O  IDS C   3     153.025  15.640  53.8360  0.00  0.00     0.000 OA
ATOM     51   O  IDS C   3     151.576  15.054  55.6690  0.00  0.00     0.000 OA
ENDBRANCH 40 47
BRANCH 43 52
ATOM     52   C  IDS C   3     147.105  16.611  50.4670  0.00  0.00     0.000 C
ATOM     53   O  IDS C   3     146.692  15.730  49.7500  0.00  0.00     0.000 OA
ATOM     54   O  IDS C   3     147.219  17.735  50.0480  0.00  0.00     0.000 OA
ENDBRANCH 43 52
BRANCH 39 55
ATOM     55  O4  SGN C   4     147.531  17.734  54.5660  0.00  0.00     0.000 O
BRANCH 55 59
ATOM     56  C1  SGN C   4     145.610  20.863  56.5720  0.00  0.00     0.000 C
ATOM     57  C2  SGN C   4     145.433  20.815  55.0450  0.00  0.00     0.000 C
ATOM     58  C3  SGN C   4     145.832  19.447  54.4970  0.00  0.00     0.000 C
ATOM     59  C4  SGN C   4     147.217  19.051  54.9970  0.00  0.00     0.000 C
ATOM     60  C5  SGN C   4     147.224  19.115  56.5230  0.00  0.00     0.000 C
ATOM     61  O5  SGN C   4     146.927  20.469  56.9200  0.00  0.00     0.000 O
ATOM     62   O  SGN C   4     145.802  19.476  53.0760  0.00  0.00     0.000 O
ATOM     64  HD  SGN C   4     145.216  20.067  53.3180  0.00  0.00     0.000 HD
BRANCH 57 66
ATOM     64   N  SGN C   4     144.728  21.485  53.9400  0.00  0.00     0.000 N
ATOM     66  HD  SGN C   4     143.905  21.666  53.7420  0.00  0.00     0.000 HD
ATOM     66   S  SGN C   4     143.716  22.683  54.2320  0.00  0.00     0.000 S
ATOM     67   O  SGN C   4     143.154  23.077  52.9910  0.00  0.00     0.000 OA
ATOM     68   O  SGN C   4     142.858  22.257  55.2830  0.00  0.00     0.000 OA
ATOM     69   O  SGN C   4     144.637  23.825  54.7690  0.00  0.00     0.000 OA
ENDBRANCH 57 66
BRANCH 60 70
ATOM     70   C  SGN C   4     148.550  18.732  57.1440  0.00  0.00     0.000 C
ATOM     71   O  SGN C   4     151.661  20.830  57.2940  0.00  0.00     0.000 OA
ATOM     72   O  SGN C   4     150.058  20.443  59.0620  0.00  0.00     0.000 OA
ATOM     73   O  SGN C   4     149.559  19.708  56.8230  0.00  0.00     0.000 O
ATOM     74   S  SGN C   4     150.726  19.909  57.8970  0.00  0.00     0.000 S
ATOM     75   O  SGN C   4     151.273  18.582  58.1020  0.00  0.00     0.000 OA
ENDBRANCH 60 70
BRANCH 56 76
ATOM     76  O4  IDS C   5     144.822  20.638  57.6390  0.00  0.00     0.000 O
BRANCH 76 80
ATOM     77  C1  IDS C   5     142.829  21.656  61.0520  0.00  0.00     0.000 C
ATOM     78  C2  IDS C   5     144.315  22.012  61.0550  0.00  0.00     0.000 C
ATOM     79  C3  IDS C   5     144.848  22.008  59.6360  0.00  0.00     0.000 C
ATOM     80  C4  IDS C   5     144.791  20.591  59.0740  0.00  0.00     0.000 C
ATOM     81  C5  IDS C   5     143.508  19.901  59.5600  0.00  0.00     0.000 C
ATOM     82  O5  IDS C   5     142.514  20.873  59.9010  0.00  0.00     0.000 O
BRANCH 78 83
ATOM     83   O  IDS C   5     144.529  23.360  61.6320  0.00  0.00     0.000 O
ATOM     84   S  IDS C   5     145.081  23.507  63.1220  0.00  0.00     0.000 S
ATOM     85   O  IDS C   5     144.273  22.634  63.9310  0.00  0.00     0.000 OA
ATOM     86   O  IDS C   5     146.465  23.099  63.0540  0.00  0.00     0.000 OA
ATOM     87   O  IDS C   5     144.928  24.901  63.4590  0.00  0.00     0.000 OA
ENDBRANCH 78 83
BRANCH 81 88
ATOM     88   C  IDS C   5     142.894  18.956  58.5440  0.00  0.00     0.000 C
ATOM     89   O  IDS C   5     142.209  19.392  57.6580  0.00  0.00     0.000 OA
ATOM     90   O  IDS C   5     143.098  17.767  58.6330  0.00  0.00     0.000 OA
ENDBRANCH 81 88
ENDBRANCH 76 80
ENDBRANCH 56 76
ENDBRANCH 55 59
ENDBRANCH 39 55
ENDBRANCH 38 42
ENDBRANCH 18 38
ENDBRANCH 17 21
ENDBRANCH 1 17
TORSDOF 18
ENDMDL
MODEL 46
REMARK VINA RESULT:      -7.3     15.699     19.891
ROOT
ATOM      1  C1  IDS C   1     145.959  34.612  43.6050  0.00  0.00     0.000 C
ATOM      2  C2  IDS C   1     146.452  36.061  43.6650  0.00  0.00     0.000 C
ATOM      3  C3  IDS C   1     147.470  36.331  42.5670  0.00  0.00     0.000 C
ATOM      4  C4  IDS C   1     148.660  35.390  42.6960  0.00  0.00     0.000 C
ATOM      5  C5  IDS C   1     148.186  33.998  43.0990  0.00  0.00     0.000 C
ATOM      6  O5  IDS C   1     146.806  33.835  42.7690  0.00  0.00     0.000 O
ATOM      7   O  IDS C   1     147.913  37.694  42.6410  0.00  0.00     0.000 O
ATOM      9  HD  IDS C   1     147.240  38.187  42.8720  0.00  0.00     0.000 HD
ENDROOT
BRANCH 2 9
ATOM      9   O  IDS C   1     145.329  37.007  43.4740  0.00  0.00     0.000 O
ATOM     10   S  IDS C   1     145.128  38.203  44.5100  0.00  0.00     0.000 S
ATOM     11   O  IDS C   1     143.975  38.941  44.0450  0.00  0.00     0.000 OA
ATOM     12   O  IDS C   1     144.912  37.572  45.7960  0.00  0.00     0.000 OA
ATOM     13   O  IDS C   1     146.348  38.978  44.4600  0.00  0.00     0.000 OA
ENDBRANCH 2 9
BRANCH 5 14
ATOM     14   C  IDS C   1     148.978  32.900  42.4100  0.00  0.00     0.000 C
ATOM     15   O  IDS C   1     149.024  31.801  42.9050  0.00  0.00     0.000 OA
ATOM     16   O  IDS C   1     149.562  33.139  41.3660  0.00  0.00     0.000 OA
ENDBRANCH 5 14
BRANCH 1 17
ATOM     17  O4  SGN C   2     144.675  34.274  43.7530  0.00  0.00     0.000 O
BRANCH 17 21
ATOM     18  C1  SGN C   2     140.696  33.656  42.6100  0.00  0.00     0.000 C
ATOM     19  C2  SGN C   2     141.755  33.527  41.5080  0.00  0.00     0.000 C
ATOM     20  C3  SGN C   2     143.142  33.356  42.1390  0.00  0.00     0.000 C
ATOM     21  C4  SGN C   2     143.412  34.484  43.1290  0.00  0.00     0.000 C
ATOM     22  C5  SGN C   2     142.299  34.506  44.1720  0.00  0.00     0.000 C
ATOM     23  O5  SGN C   2     141.020  34.686  43.5200  0.00  0.00     0.000 O
ATOM     24   O  SGN C   2     144.132  33.325  41.1240  0.00  0.00     0.000 O
ATOM     26  HD  SGN C   2     143.739  33.083  41.8570  0.00  0.00     0.000 HD
BRANCH 19 28
ATOM     26   N  SGN C   2     141.030  32.747  40.4960  0.00  0.00     0.000 N
ATOM     28  HD  SGN C   2     140.407  33.201  40.8900  0.00  0.00     0.000 HD
ATOM     28   O  SGN C   2     140.993  31.685  38.2390  0.00  0.00     0.000 OA
ATOM     29   S  SGN C   2     141.113  33.087  38.9270  0.00  0.00     0.000 S
ATOM     30   O  SGN C   2     139.973  33.852  38.5960  0.00  0.00     0.000 OA
ATOM     31   O  SGN C   2     142.410  33.610  38.6670  0.00  0.00     0.000 OA
ENDBRANCH 19 28
BRANCH 22 32
ATOM     32   C  SGN C   2     142.439  35.628  45.1720  0.00  0.00     0.000 C
ATOM     33   S  SGN C   2     141.008  36.836  46.9430  0.00  0.00     0.000 S
ATOM     34   O  SGN C   2     140.291  37.592  45.9470  0.00  0.00     0.000 OA
ATOM     35   O  SGN C   2     140.179  36.392  48.0440  0.00  0.00     0.000 OA
ATOM     36   O  SGN C   2     142.247  37.445  47.3660  0.00  0.00     0.000 OA
ATOM     37   O  SGN C   2     141.436  35.497  46.1870  0.00  0.00     0.000 O
ENDBRANCH 22 32
BRANCH 18 38
ATOM     38  O4  IDS C   3     140.125  32.719  43.3710  0.00  0.00     0.000 O
BRANCH 38 42
ATOM     39  C1  IDS C   3     136.975  32.445  44.8290  0.00  0.00     0.000 C
ATOM     40  C2  IDS C   3     137.670  33.810  44.6960  0.00  0.00     0.000 C
ATOM     41  C3  IDS C   3     139.083  33.769  45.2750  0.00  0.00     0.000 C
ATOM     42  C4  IDS C   3     139.853  32.558  44.7670  0.00  0.00     0.000 C
ATOM     43  C5  IDS C   3     139.027  31.285  44.9950  0.00  0.00     0.000 C
ATOM     44  O5  IDS C   3     137.784  31.406  44.3060  0.00  0.00     0.000 O
ATOM     45   O  IDS C   3     139.009  33.730  46.7020  0.00  0.00     0.000 O
ATOM     47  HD  IDS C   3     138.620  33.217  47.2800  0.00  0.00     0.000 HD
BRANCH 40 47
ATOM     47   O  IDS C   3     137.784  34.198  43.2700  0.00  0.00     0.000 O
ATOM     48   S  IDS C   3     137.247  35.625  42.7880  0.00  0.00     0.000 S
ATOM     49   O  IDS C   3     135.807  35.503  42.7140  0.00  0.00     0.000 OA
ATOM     50   O  IDS C   3     137.851  35.840  41.4910  0.00  0.00     0.000 OA
ATOM     51   O  IDS C   3     137.676  36.576  43.7770  0.00  0.00     0.000 OA
ENDBRANCH 40 47
BRANCH 43 52
ATOM     52   C  IDS C   3     139.743  30.033  44.5390  0.00  0.00     0.000 C
ATOM     53   O  IDS C   3     140.748  29.672  45.1070  0.00  0.00     0.000 OA
ATOM     54   O  IDS C   3     139.306  29.401  43.6110  0.00  0.00     0.000 OA
ENDBRANCH 43 52
BRANCH 39 55
ATOM     55  O4  SGN C   4     136.249  32.087  45.8880  0.00  0.00     0.000 O
BRANCH 55 59
ATOM     56  C1  SGN C   4     132.665  30.123  44.9910  0.00  0.00     0.000 C
ATOM     57  C2  SGN C   4     132.599  31.655  45.1090  0.00  0.00     0.000 C
ATOM     58  C3  SGN C   4     133.996  32.265  45.0410  0.00  0.00     0.000 C
ATOM     59  C4  SGN C   4     134.929  31.583  46.0360  0.00  0.00     0.000 C
ATOM     60  C5  SGN C   4     134.913  30.079  45.7710  0.00  0.00     0.000 C
ATOM     61  O5  SGN C   4     133.566  29.601  45.9550  0.00  0.00     0.000 O
ATOM     62   O  SGN C   4     133.920  33.660  45.3010  0.00  0.00     0.000 O
ATOM     64  HD  SGN C   4     133.150  33.461  44.9580  0.00  0.00     0.000 HD
BRANCH 57 66
ATOM     64   N  SGN C   4     131.141  31.613  45.3110  0.00  0.00     0.000 N
ATOM     66  HD  SGN C   4     130.517  32.188  45.4830  0.00  0.00     0.000 HD
ATOM     66   S  SGN C   4     130.176  32.549  44.4510  0.00  0.00     0.000 S
ATOM     67   O  SGN C   4     128.853  32.331  44.9100  0.00  0.00     0.000 OA
ATOM     68   O  SGN C   4     130.723  33.862  44.4930  0.00  0.00     0.000 OA
ATOM     69   O  SGN C   4     130.320  31.994  42.9970  0.00  0.00     0.000 OA
ENDBRANCH 57 66
BRANCH 60 70
ATOM     70   C  SGN C   4     135.814  29.287  46.6940  0.00  0.00     0.000 C
ATOM     71   O  SGN C   4     135.748  29.278  50.4500  0.00  0.00     0.000 OA
ATOM     72   O  SGN C   4     134.836  27.610  48.9550  0.00  0.00     0.000 OA
ATOM     73   O  SGN C   4     135.627  29.702  48.0610  0.00  0.00     0.000 O
ATOM     74   S  SGN C   4     135.872  28.591  49.1850  0.00  0.00     0.000 S
ATOM     75   O  SGN C   4     137.208  28.092  48.9270  0.00  0.00     0.000 OA
ENDBRANCH 60 70
BRANCH 56 76
ATOM     76  O4  IDS C   5     132.583  29.231  43.9860  0.00  0.00     0.000 O
BRANCH 76 80
ATOM     77  C1  IDS C   5     136.078  27.817  42.4250  0.00  0.00     0.000 C
ATOM     78  C2  IDS C   5     135.404  28.903  41.5880  0.00  0.00     0.000 C
ATOM     79  C3  IDS C   5     134.395  29.653  42.4360  0.00  0.00     0.000 C
ATOM     80  C4  IDS C   5     133.262  28.711  42.8330  0.00  0.00     0.000 C
ATOM     81  C5  IDS C   5     133.838  27.320  43.1330  0.00  0.00     0.000 C
ATOM     82  O5  IDS C   5     135.220  27.415  43.4920  0.00  0.00     0.000 O
BRANCH 78 83
ATOM     83   O  IDS C   5     136.404  29.873  41.0840  0.00  0.00     0.000 O
ATOM     84   S  IDS C   5     136.654  30.010  39.5140  0.00  0.00     0.000 S
ATOM     85   O  IDS C   5     136.823  28.669  39.0220  0.00  0.00     0.000 OA
ATOM     86   O  IDS C   5     135.472  30.660  38.9980  0.00  0.00     0.000 OA
ATOM     87   O  IDS C   5     137.839  30.821  39.3770  0.00  0.00     0.000 OA
ENDBRANCH 78 83
BRANCH 81 88
ATOM     88   C  IDS C   5     133.124  26.585  44.2520  0.00  0.00     0.000 C
ATOM     89   O  IDS C   5     132.020  26.145  44.0700  0.00  0.00     0.000 OA
ATOM     90   O  IDS C   5     133.671  26.446  45.3220  0.00  0.00     0.000 OA
ENDBRANCH 81 88
ENDBRANCH 76 80
ENDBRANCH 56 76
ENDBRANCH 55 59
ENDBRANCH 39 55
ENDBRANCH 38 42
ENDBRANCH 18 38
ENDBRANCH 17 21
ENDBRANCH 1 17
TORSDOF 18
ENDMDL
MODEL 47
REMARK VINA RESULT:      -7.3     19.035     22.732
ROOT
ATOM      1  C1  IDS C   1     154.440  37.958  52.1660  0.00  0.00     0.000 C
ATOM      2  C2  IDS C   1     155.512  38.748  52.9210  0.00  0.00     0.000 C
ATOM      3  C3  IDS C   1     156.831  37.990  52.9370  0.00  0.00     0.000 C
ATOM      4  C4  IDS C   1     156.658  36.626  53.5900  0.00  0.00     0.000 C
ATOM      5  C5  IDS C   1     155.324  36.013  53.1780  0.00  0.00     0.000 C
ATOM      6  O5  IDS C   1     154.860  36.615  51.9690  0.00  0.00     0.000 O
ATOM      7   O  IDS C   1     157.820  38.751  53.6450  0.00  0.00     0.000 O
ATOM      9  HD  IDS C   1     157.692  39.590  53.4730  0.00  0.00     0.000 HD
ENDROOT
BRANCH 2 9
ATOM      9   O  IDS C   1     155.757  40.057  52.2730  0.00  0.00     0.000 O
ATOM     10   S  IDS C   1     155.490  41.399  53.0920  0.00  0.00     0.000 S
ATOM     11   O  IDS C   1     155.833  42.483  52.1990  0.00  0.00     0.000 OA
ATOM     12   O  IDS C   1     154.083  41.373  53.4340  0.00  0.00     0.000 OA
ATOM     13   O  IDS C   1     156.353  41.333  54.2510  0.00  0.00     0.000 OA
ENDBRANCH 2 9
BRANCH 5 14
ATOM     14   C  IDS C   1     155.425  34.512  52.9610  0.00  0.00     0.000 C
ATOM     15   O  IDS C   1     156.400  34.056  52.4160  0.00  0.00     0.000 OA
ATOM     16   O  IDS C   1     154.521  33.785  53.3350  0.00  0.00     0.000 OA
ENDBRANCH 5 14
BRANCH 1 17
ATOM     17  O4  SGN C   2     153.591  38.525  51.3030  0.00  0.00     0.000 O
BRANCH 17 21
ATOM     18  C1  SGN C   2     152.581  39.772  47.4370  0.00  0.00     0.000 C
ATOM     19  C2  SGN C   2     153.958  39.121  47.6100  0.00  0.00     0.000 C
ATOM     20  C3  SGN C   2     154.007  38.354  48.9370  0.00  0.00     0.000 C
ATOM     21  C4  SGN C   2     153.605  39.269  50.0880  0.00  0.00     0.000 C
ATOM     22  C5  SGN C   2     152.223  39.850  49.8030  0.00  0.00     0.000 C
ATOM     23  O5  SGN C   2     152.245  40.573  48.5510  0.00  0.00     0.000 O
ATOM     24   O  SGN C   2     155.306  37.823  49.1400  0.00  0.00     0.000 O
ATOM     26  HD  SGN C   2     154.440  37.823  49.1400  0.00  0.00     0.000 HD
BRANCH 19 28
ATOM     26   N  SGN C   2     154.280  38.747  46.2260  0.00  0.00     0.000 N
ATOM     28  HD  SGN C   2     153.825  39.478  46.1410  0.00  0.00     0.000 HD
ATOM     28   O  SGN C   2     155.866  37.702  44.6090  0.00  0.00     0.000 OA
ATOM     29   S  SGN C   2     155.762  38.894  45.6190  0.00  0.00     0.000 S
ATOM     30   O  SGN C   2     155.806  40.105  44.8940  0.00  0.00     0.000 OA
ATOM     31   O  SGN C   2     156.686  38.674  46.6770  0.00  0.00     0.000 OA
ENDBRANCH 19 28
BRANCH 22 32
ATOM     32   C  SGN C   2     151.752  40.820  50.8580  0.00  0.00     0.000 C
ATOM     33   S  SGN C   2     150.034  42.724  51.1130  0.00  0.00     0.000 S
ATOM     34   O  SGN C   2     150.858  43.657  50.3860  0.00  0.00     0.000 OA
ATOM     35   O  SGN C   2     148.620  42.852  50.8260  0.00  0.00     0.000 OA
ATOM     36   O  SGN C   2     150.330  42.652  52.5240  0.00  0.00     0.000 OA
ATOM     37   O  SGN C   2     150.444  41.298  50.5250  0.00  0.00     0.000 O
ENDBRANCH 22 32
BRANCH 18 38
ATOM     38  O4  IDS C   3     151.417  39.240  47.0570  0.00  0.00     0.000 O
BRANCH 38 42
ATOM     39  C1  IDS C   3     148.375  38.954  45.3860  0.00  0.00     0.000 C
ATOM     40  C2  IDS C   3     148.870  40.314  45.9030  0.00  0.00     0.000 C
ATOM     41  C3  IDS C   3     149.246  40.239  47.3820  0.00  0.00     0.000 C
ATOM     42  C4  IDS C   3     150.136  39.036  47.6640  0.00  0.00     0.000 C
ATOM     43  C5  IDS C   3     149.486  37.766  47.1010  0.00  0.00     0.000 C
ATOM     44  O5  IDS C   3     149.298  37.923  45.6950  0.00  0.00     0.000 O
ATOM     45   O  IDS C   3     148.057  40.154  48.1700  0.00  0.00     0.000 O
ATOM     47  HD  IDS C   3     147.371  39.626  48.1870  0.00  0.00     0.000 HD
BRANCH 40 47
ATOM     47   O  IDS C   3     150.076  40.747  45.1580  0.00  0.00     0.000 O
ATOM     48   S  IDS C   3     149.924  41.378  43.6970  0.00  0.00     0.000 S
ATOM     49   O  IDS C   3     149.685  40.263  42.8050  0.00  0.00     0.000 OA
ATOM     50   O  IDS C   3     151.186  42.035  43.4340  0.00  0.00     0.000 OA
ATOM     51   O  IDS C   3     148.813  42.290  43.7600  0.00  0.00     0.000 OA
ENDBRANCH 40 47
BRANCH 43 52
ATOM     52   C  IDS C   3     150.304  36.522  47.3680  0.00  0.00     0.000 C
ATOM     53   O  IDS C   3     151.046  36.482  48.3220  0.00  0.00     0.000 OA
ATOM     54   O  IDS C   3     150.210  35.575  46.6290  0.00  0.00     0.000 OA
ENDBRANCH 43 52
BRANCH 39 55
ATOM     55  O4  SGN C   4     147.099  38.569  45.4220  0.00  0.00     0.000 O
BRANCH 55 59
ATOM     56  C1  SGN C   4     143.841  36.355  44.0140  0.00  0.00     0.000 C
ATOM     57  C2  SGN C   4     145.107  35.560  44.3760  0.00  0.00     0.000 C
ATOM     58  C3  SGN C   4     146.051  36.404  45.2290  0.00  0.00     0.000 C
ATOM     59  C4  SGN C   4     146.306  37.755  44.5700  0.00  0.00     0.000 C
ATOM     60  C5  SGN C   4     144.963  38.433  44.3050  0.00  0.00     0.000 C
ATOM     61  O5  SGN C   4     144.198  37.592  43.4190  0.00  0.00     0.000 O
ATOM     62   O  SGN C   4     147.272  35.703  45.4230  0.00  0.00     0.000 O
ATOM     64  HD  SGN C   4     146.678  35.080  45.3200  0.00  0.00     0.000 HD
BRANCH 57 66
ATOM     64   N  SGN C   4     144.172  34.455  44.1120  0.00  0.00     0.000 N
ATOM     66  HD  SGN C   4     144.148  33.768  43.5840  0.00  0.00     0.000 HD
ATOM     66   S  SGN C   4     144.666  32.939  44.1800  0.00  0.00     0.000 S
ATOM     67   O  SGN C   4     143.568  32.117  43.8210  0.00  0.00     0.000 OA
ATOM     68   O  SGN C   4     145.872  32.860  43.4300  0.00  0.00     0.000 OA
ATOM     69   O  SGN C   4     145.002  32.726  45.6910  0.00  0.00     0.000 OA
ENDBRANCH 57 66
BRANCH 60 70
ATOM     70   C  SGN C   4     145.084  39.796  43.6580  0.00  0.00     0.000 C
ATOM     71   O  SGN C   4     144.550  40.628  40.0350  0.00  0.00     0.000 OA
ATOM     72   O  SGN C   4     143.020  40.991  41.8720  0.00  0.00     0.000 OA
ATOM     73   O  SGN C   4     145.011  39.682  42.2240  0.00  0.00     0.000 O
ATOM     74   S  SGN C   4     144.398  40.932  41.4390  0.00  0.00     0.000 S
ATOM     75   O  SGN C   4     145.188  42.067  41.8730  0.00  0.00     0.000 OA
ENDBRANCH 60 70
BRANCH 56 76
ATOM     76  O4  IDS C   5     142.611  36.497  44.5420  0.00  0.00     0.000 O
BRANCH 76 80
ATOM     77  C1  IDS C   5     138.542  36.175  44.5570  0.00  0.00     0.000 C
ATOM     78  C2  IDS C   5     139.117  36.893  43.3360  0.00  0.00     0.000 C
ATOM     79  C3  IDS C   5     140.594  36.579  43.2030  0.00  0.00     0.000 C
ATOM     80  C4  IDS C   5     141.350  37.168  44.3900  0.00  0.00     0.000 C
ATOM     81  C5  IDS C   5     140.504  37.011  45.6620  0.00  0.00     0.000 C
ATOM     82  O5  IDS C   5     139.573  35.934  45.5150  0.00  0.00     0.000 O
BRANCH 78 83
ATOM     83   O  IDS C   5     138.431  36.453  42.0990  0.00  0.00     0.000 O
ATOM     84   S  IDS C   5     137.679  37.523  41.1860  0.00  0.00     0.000 S
ATOM     85   O  IDS C   5     136.858  38.297  42.0790  0.00  0.00     0.000 OA
ATOM     86   O  IDS C   5     138.729  38.296  40.5660  0.00  0.00     0.000 OA
ATOM     87   O  IDS C   5     136.916  36.755  40.2330  0.00  0.00     0.000 OA
ENDBRANCH 78 83
BRANCH 81 88
ATOM     88   C  IDS C   5     141.317  36.745  46.9150  0.00  0.00     0.000 C
ATOM     89   O  IDS C   5     141.272  35.665  47.4400  0.00  0.00     0.000 OA
ATOM     90   O  IDS C   5     142.009  37.623  47.3770  0.00  0.00     0.000 OA
ENDBRANCH 81 88
ENDBRANCH 76 80
ENDBRANCH 56 76
ENDBRANCH 55 59
ENDBRANCH 39 55
ENDBRANCH 38 42
ENDBRANCH 18 38
ENDBRANCH 17 21
ENDBRANCH 1 17
TORSDOF 18
ENDMDL
MODEL 48
REMARK VINA RESULT:      -7.3     11.143     17.535
ROOT
ATOM      1  C1  IDS C   1     162.446  15.686  46.0230  0.00  0.00     0.000 C
ATOM      2  C2  IDS C   1     163.926  15.310  45.9110  0.00  0.00     0.000 C
ATOM      3  C3  IDS C   1     164.654  16.257  44.9680  0.00  0.00     0.000 C
ATOM      4  C4  IDS C   1     164.022  16.227  43.5840  0.00  0.00     0.000 C
ATOM      5  C5  IDS C   1     162.504  16.138  43.7030  0.00  0.00     0.000 C
ATOM      6  O5  IDS C   1     162.085  16.594  44.9900  0.00  0.00     0.000 O
ATOM      7   O  IDS C   1     166.038  15.888  44.8830  0.00  0.00     0.000 O
ATOM      9  HD  IDS C   1     166.295  15.615  45.6630  0.00  0.00     0.000 HD
ENDROOT
BRANCH 2 9
ATOM      9   O  IDS C   1     164.593  15.394  47.2300  0.00  0.00     0.000 O
ATOM     10   S  IDS C   1     165.248  14.085  47.8620  0.00  0.00     0.000 S
ATOM     11   O  IDS C   1     165.819  14.497  49.1250  0.00  0.00     0.000 OA
ATOM     12   O  IDS C   1     164.160  13.141  48.0170  0.00  0.00     0.000 OA
ATOM     13   O  IDS C   1     166.245  13.644  46.9120  0.00  0.00     0.000 OA
ENDBRANCH 2 9
BRANCH 5 14
ATOM     14   C  IDS C   1     161.796  16.968  42.6450  0.00  0.00     0.000 C
ATOM     15   O  IDS C   1     162.439  17.470  41.7560  0.00  0.00     0.000 OA
ATOM     16   O  IDS C   1     160.588  17.122  42.7050  0.00  0.00     0.000 OA
ENDBRANCH 5 14
BRANCH 1 17
ATOM     17  O4  SGN C   2     161.785  15.701  47.1840  0.00  0.00     0.000 O
BRANCH 17 21
ATOM     18  C1  SGN C   2     160.349  17.767  50.5300  0.00  0.00     0.000 C
ATOM     19  C2  SGN C   2     161.201  18.571  49.5400  0.00  0.00     0.000 C
ATOM     20  C3  SGN C   2     161.286  17.825  48.2020  0.00  0.00     0.000 C
ATOM     21  C4  SGN C   2     161.775  16.399  48.4260  0.00  0.00     0.000 C
ATOM     22  C5  SGN C   2     160.849  15.705  49.4210  0.00  0.00     0.000 C
ATOM     23  O5  SGN C   2     160.824  16.444  50.6640  0.00  0.00     0.000 O
ATOM     24   O  SGN C   2     162.143  18.522  47.3150  0.00  0.00     0.000 O
ATOM     26  HD  SGN C   2     161.441  18.075  47.5520  0.00  0.00     0.000 HD
BRANCH 19 28
ATOM     26   N  SGN C   2     160.708  19.939  49.3350  0.00  0.00     0.000 N
ATOM     28  HD  SGN C   2     159.994  19.491  49.5350  0.00  0.00     0.000 HD
ATOM     28   O  SGN C   2     161.098  22.398  49.4940  0.00  0.00     0.000 OA
ATOM     29   S  SGN C   2     160.985  21.120  50.3910  0.00  0.00     0.000 S
ATOM     30   O  SGN C   2     159.837  21.240  51.2060  0.00  0.00     0.000 OA
ATOM     31   O  SGN C   2     162.250  20.873  50.9920  0.00  0.00     0.000 OA
ENDBRANCH 19 28
BRANCH 22 32
ATOM     32   C  SGN C   2     161.280  14.299  49.7590  0.00  0.00     0.000 C
ATOM     33   S  SGN C   2     161.444  12.765  51.8230  0.00  0.00     0.000 S
ATOM     34   O  SGN C   2     162.635  13.422  52.3020  0.00  0.00     0.000 OA
ATOM     35   O  SGN C   2     160.525  12.390  52.8770  0.00  0.00     0.000 OA
ATOM     36   O  SGN C   2     161.697  11.704  50.8770  0.00  0.00     0.000 OA
ATOM     37   O  SGN C   2     160.679  13.894  50.9940  0.00  0.00     0.000 O
ENDBRANCH 22 32
BRANCH 18 38
ATOM     38  O4  IDS C   3     159.023  17.647  50.6260  0.00  0.00     0.000 O
BRANCH 38 42
ATOM     39  C1  IDS C   3     156.549  15.971  52.4150  0.00  0.00     0.000 C
ATOM     40  C2  IDS C   3     156.303  16.441  50.9720  0.00  0.00     0.000 C
ATOM     41  C3  IDS C   3     156.635  17.924  50.8100  0.00  0.00     0.000 C
ATOM     42  C4  IDS C   3     157.993  18.254  51.4140  0.00  0.00     0.000 C
ATOM     43  C5  IDS C   3     158.061  17.734  52.8550  0.00  0.00     0.000 C
ATOM     44  O5  IDS C   3     157.851  16.323  52.8520  0.00  0.00     0.000 O
ATOM     45   O  IDS C   3     155.622  18.708  51.4430  0.00  0.00     0.000 O
ATOM     47  HD  IDS C   3     155.282  18.741  52.2390  0.00  0.00     0.000 HD
BRANCH 40 47
ATOM     47   O  IDS C   3     157.159  15.687  50.0260  0.00  0.00     0.000 O
ATOM     48   S  IDS C   3     156.494  14.662  48.9940  0.00  0.00     0.000 S
ATOM     49   O  IDS C   3     156.173  13.478  49.7620  0.00  0.00     0.000 OA
ATOM     50   O  IDS C   3     157.509  14.415  47.9950  0.00  0.00     0.000 OA
ATOM     51   O  IDS C   3     155.327  15.317  48.4660  0.00  0.00     0.000 OA
ENDBRANCH 40 47
BRANCH 43 52
ATOM     52   C  IDS C   3     159.376  18.051  53.5310  0.00  0.00     0.000 C
ATOM     53   O  IDS C   3     160.052  17.156  53.9850  0.00  0.00     0.000 OA
ATOM     54   O  IDS C   3     159.745  19.195  53.6130  0.00  0.00     0.000 OA
ENDBRANCH 43 52
BRANCH 39 55
ATOM     55  O4  SGN C   4     155.624  16.015  53.3740  0.00  0.00     0.000 O
BRANCH 55 59
ATOM     56  C1  SGN C   4     156.518  14.309  57.0880  0.00  0.00     0.000 C
ATOM     57  C2  SGN C   4     156.230  13.333  55.9350  0.00  0.00     0.000 C
ATOM     58  C3  SGN C   4     156.313  14.047  54.5880  0.00  0.00     0.000 C
ATOM     59  C4  SGN C   4     155.456  15.307  54.5940  0.00  0.00     0.000 C
ATOM     60  C5  SGN C   4     155.881  16.185  55.7690  0.00  0.00     0.000 C
ATOM     61  O5  SGN C   4     155.672  15.443  56.9870  0.00  0.00     0.000 O
ATOM     62   O  SGN C   4     155.899  13.163  53.5550  0.00  0.00     0.000 O
ATOM     64  HD  SGN C   4     156.216  12.643  54.1700  0.00  0.00     0.000 HD
BRANCH 57 66
ATOM     64   N  SGN C   4     156.901  12.384  56.8370  0.00  0.00     0.000 N
ATOM     66  HD  SGN C   4     156.656  11.746  57.3690  0.00  0.00     0.000 HD
ATOM     66   S  SGN C   4     156.644  10.815  56.7020  0.00  0.00     0.000 S
ATOM     67   O  SGN C   4     157.372  10.174  57.7350  0.00  0.00     0.000 OA
ATOM     68   O  SGN C   4     155.236  10.629  56.6200  0.00  0.00     0.000 OA
ATOM     69   O  SGN C   4     157.278  10.453  55.3200  0.00  0.00     0.000 OA
ENDBRANCH 57 66
BRANCH 60 70
ATOM     70   C  SGN C   4     155.104  17.479  55.8770  0.00  0.00     0.000 C
ATOM     71   O  SGN C   4     151.430  17.854  56.5570  0.00  0.00     0.000 OA
ATOM     72   O  SGN C   4     153.255  18.140  58.1180  0.00  0.00     0.000 OA
ATOM     73   O  SGN C   4     153.689  17.215  55.9370  0.00  0.00     0.000 O
ATOM     74   S  SGN C   4     152.801  18.265  56.7520  0.00  0.00     0.000 S
ATOM     75   O  SGN C   4     153.108  19.551  56.1570  0.00  0.00     0.000 OA
ENDBRANCH 60 70
BRANCH 56 76
ATOM     76  O4  IDS C   5     157.608  14.676  57.7880  0.00  0.00     0.000 O
BRANCH 76 80
ATOM     77  C1  IDS C   5     160.531  13.927  60.5360  0.00  0.00     0.000 C
ATOM     78  C2  IDS C   5     159.106  13.768  61.0660  0.00  0.00     0.000 C
ATOM     79  C3  IDS C   5     158.139  13.630  59.9070  0.00  0.00     0.000 C
ATOM     80  C4  IDS C   5     158.111  14.930  59.1080  0.00  0.00     0.000 C
ATOM     81  C5  IDS C   5     159.529  15.514  59.0380  0.00  0.00     0.000 C
ATOM     82  O5  IDS C   5     160.506  14.485  59.2230  0.00  0.00     0.000 O
BRANCH 78 83
ATOM     83   O  IDS C   5     158.995  12.558  61.9150  0.00  0.00     0.000 O
ATOM     84   S  IDS C   5     158.496  12.692  63.4240  0.00  0.00     0.000 S
ATOM     85   O  IDS C   5     159.270  13.757  64.0040  0.00  0.00     0.000 OA
ATOM     86   O  IDS C   5     157.088  12.997  63.3320  0.00  0.00     0.000 OA
ATOM     87   O  IDS C   5     158.748  11.408  64.0330  0.00  0.00     0.000 OA
ENDBRANCH 78 83
BRANCH 81 88
ATOM     88   C  IDS C   5     159.843  16.213  57.7280  0.00  0.00     0.000 C
ATOM     89   O  IDS C   5     160.549  15.676  56.9170  0.00  0.00     0.000 OA
ATOM     90   O  IDS C   5     159.379  17.308  57.5070  0.00  0.00     0.000 OA
ENDBRANCH 81 88
ENDBRANCH 76 80
ENDBRANCH 56 76
ENDBRANCH 55 59
ENDBRANCH 39 55
ENDBRANCH 38 42
ENDBRANCH 18 38
ENDBRANCH 17 21
ENDBRANCH 1 17
TORSDOF 18
ENDMDL
MODEL 49
REMARK VINA RESULT:      -7.2     16.642     22.941
ROOT
ATOM      1  C1  IDS C   1     137.273  30.807  45.4230  0.00  0.00     0.000 C
ATOM      2  C2  IDS C   1     136.029  30.132  46.0060  0.00  0.00     0.000 C
ATOM      3  C3  IDS C   1     136.324  29.550  47.3810  0.00  0.00     0.000 C
ATOM      4  C4  IDS C   1     137.456  28.535  47.3020  0.00  0.00     0.000 C
ATOM      5  C5  IDS C   1     138.527  29.019  46.3300  0.00  0.00     0.000 C
ATOM      6  O5  IDS C   1     138.431  30.433  46.1580  0.00  0.00     0.000 O
ATOM      7   O  IDS C   1     135.144  28.928  47.9080  0.00  0.00     0.000 O
ATOM      9  HD  IDS C   1     134.458  29.398  47.6680  0.00  0.00     0.000 HD
ENDROOT
BRANCH 2 9
ATOM      9   O  IDS C   1     134.925  31.106  46.1620  0.00  0.00     0.000 O
ATOM     10   S  IDS C   1     133.541  30.849  45.4120  0.00  0.00     0.000 S
ATOM     11   O  IDS C   1     132.683  31.955  45.7740  0.00  0.00     0.000 OA
ATOM     12   O  IDS C   1     133.863  30.822  44.0000  0.00  0.00     0.000 OA
ATOM     13   O  IDS C   1     133.056  29.578  45.9040  0.00  0.00     0.000 OA
ENDBRANCH 2 9
BRANCH 5 14
ATOM     14   C  IDS C   1     139.930  28.686  46.8100  0.00  0.00     0.000 C
ATOM     15   O  IDS C   1     140.104  28.371  47.9610  0.00  0.00     0.000 OA
ATOM     16   O  IDS C   1     140.865  28.743  46.0300  0.00  0.00     0.000 OA
ENDBRANCH 5 14
BRANCH 1 17
ATOM     17  O4  SGN C   2     137.234  31.984  44.7930  0.00  0.00     0.000 O
BRANCH 17 21
ATOM     18  C1  SGN C   2     138.339  35.996  44.3340  0.00  0.00     0.000 C
ATOM     19  C2  SGN C   2     139.040  35.214  45.4520  0.00  0.00     0.000 C
ATOM     20  C3  SGN C   2     138.859  33.708  45.2250  0.00  0.00     0.000 C
ATOM     21  C4  SGN C   2     137.380  33.375  45.0680  0.00  0.00     0.000 C
ATOM     22  C5  SGN C   2     136.800  34.207  43.9290  0.00  0.00     0.000 C
ATOM     23  O5  SGN C   2     136.986  35.614  44.2070  0.00  0.00     0.000 O
ATOM     24   O  SGN C   2     139.430  32.986  46.3030  0.00  0.00     0.000 O
ATOM     26  HD  SGN C   2     139.244  33.162  45.4760  0.00  0.00     0.000 HD
BRANCH 19 28
ATOM     26   N  SGN C   2     140.152  36.108  45.8040  0.00  0.00     0.000 N
ATOM     28  HD  SGN C   2     139.466  36.635  45.7740  0.00  0.00     0.000 HD
ATOM     28   O  SGN C   2     142.331  36.452  46.9680  0.00  0.00     0.000 OA
ATOM     29   S  SGN C   2     140.833  36.100  47.2600  0.00  0.00     0.000 S
ATOM     30   O  SGN C   2     140.259  37.154  48.0050  0.00  0.00     0.000 OA
ATOM     31   O  SGN C   2     140.769  34.770  47.7590  0.00  0.00     0.000 OA
ENDBRANCH 19 28
BRANCH 22 32
ATOM     32   C  SGN C   2     135.320  33.995  43.7260  0.00  0.00     0.000 C
ATOM     33   S  SGN C   2     133.480  34.652  42.0450  0.00  0.00     0.000 S
ATOM     34   O  SGN C   2     133.384  35.992  42.5690  0.00  0.00     0.000 OA
ATOM     35   O  SGN C   2     133.359  34.582  40.6040  0.00  0.00     0.000 OA
ATOM     36   O  SGN C   2     132.658  33.688  42.7390  0.00  0.00     0.000 OA
ATOM     37   O  SGN C   2     134.985  34.217  42.3510  0.00  0.00     0.000 O
ENDBRANCH 22 32
BRANCH 18 38
ATOM     38  O4  IDS C   3     138.726  36.239  43.0800  0.00  0.00     0.000 O
BRANCH 38 42
ATOM     39  C1  IDS C   3     140.926  35.996  40.3910  0.00  0.00     0.000 C
ATOM     40  C2  IDS C   3     141.446  36.071  41.8360  0.00  0.00     0.000 C
ATOM     41  C3  IDS C   3     140.849  37.266  42.5770  0.00  0.00     0.000 C
ATOM     42  C4  IDS C   3     139.340  37.333  42.3890  0.00  0.00     0.000 C
ATOM     43  C5  IDS C   3     138.999  37.267  40.8960  0.00  0.00     0.000 C
ATOM     44  O5  IDS C   3     139.510  36.050  40.3540  0.00  0.00     0.000 O
ATOM     45   O  IDS C   3     141.449  38.470  42.0940  0.00  0.00     0.000 O
ATOM     47  HD  IDS C   3     141.543  38.837  41.3160  0.00  0.00     0.000 HD
BRANCH 40 47
ATOM     47   O  IDS C   3     141.072  34.849  42.5870  0.00  0.00     0.000 O
ATOM     48   S  IDS C   3     142.212  33.860  43.1170  0.00  0.00     0.000 S
ATOM     49   O  IDS C   3     142.649  33.104  41.9630  0.00  0.00     0.000 OA
ATOM     50   O  IDS C   3     141.564  33.030  44.1090  0.00  0.00     0.000 OA
ATOM     51   O  IDS C   3     143.250  34.692  43.6650  0.00  0.00     0.000 OA
ENDBRANCH 40 47
BRANCH 43 52
ATOM     52   C  IDS C   3     137.512  37.356  40.6300  0.00  0.00     0.000 C
ATOM     53   O  IDS C   3     136.865  36.345  40.4810  0.00  0.00     0.000 OA
ATOM     54   O  IDS C   3     136.981  38.435  40.5680  0.00  0.00     0.000 OA
ENDBRANCH 43 52
BRANCH 39 55
ATOM     55  O4  SGN C   4     141.520  36.599  39.3610  0.00  0.00     0.000 O
BRANCH 55 59
ATOM     56  C1  SGN C   4     145.665  36.045  39.2440  0.00  0.00     0.000 C
ATOM     57  C2  SGN C   4     145.166  37.500  39.2520  0.00  0.00     0.000 C
ATOM     58  C3  SGN C   4     143.705  37.568  39.6890  0.00  0.00     0.000 C
ATOM     59  C4  SGN C   4     142.854  36.601  38.8740  0.00  0.00     0.000 C
ATOM     60  C5  SGN C   4     143.454  35.201  38.9910  0.00  0.00     0.000 C
ATOM     61  O5  SGN C   4     144.795  35.238  38.4650  0.00  0.00     0.000 O
ATOM     62   O  SGN C   4     143.227  38.899  39.5460  0.00  0.00     0.000 O
ATOM     64  HD  SGN C   4     144.077  38.988  39.6870  0.00  0.00     0.000 HD
BRANCH 57 66
ATOM     64   N  SGN C   4     146.508  37.906  38.8070  0.00  0.00     0.000 N
ATOM     66  HD  SGN C   4     146.872  38.627  38.4920  0.00  0.00     0.000 HD
ATOM     66   S  SGN C   4     147.211  39.200  39.4240  0.00  0.00     0.000 S
ATOM     67   O  SGN C   4     148.453  39.366  38.7610  0.00  0.00     0.000 OA
ATOM     68   O  SGN C   4     146.253  40.250  39.3880  0.00  0.00     0.000 OA
ATOM     69   O  SGN C   4     147.468  38.807  40.9140  0.00  0.00     0.000 OA
ENDBRANCH 57 66
BRANCH 60 70
ATOM     70   C  SGN C   4     142.688  34.143  38.2280  0.00  0.00     0.000 C
ATOM     71   O  SGN C   4     143.829  32.306  35.1570  0.00  0.00     0.000 OA
ATOM     72   O  SGN C   4     143.817  31.501  37.4370  0.00  0.00     0.000 OA
ATOM     73   O  SGN C   4     143.360  33.824  36.9940  0.00  0.00     0.000 O
ATOM     74   S  SGN C   4     143.175  32.334  36.4450  0.00  0.00     0.000 S
ATOM     75   O  SGN C   4     141.741  32.141  36.3700  0.00  0.00     0.000 OA
ENDBRANCH 60 70
BRANCH 56 76
ATOM     76  O4  IDS C   5     146.293  35.238  40.1190  0.00  0.00     0.000 O
BRANCH 76 80
ATOM     77  C1  IDS C   5     148.532  33.046  42.7340  0.00  0.00     0.000 C
ATOM     78  C2  IDS C   5     147.302  33.709  43.3530  0.00  0.00     0.000 C
ATOM     79  C3  IDS C   5     146.329  34.110  42.2620  0.00  0.00     0.000 C
ATOM     80  C4  IDS C   5     146.957  35.194  41.3910  0.00  0.00     0.000 C
ATOM     81  C5  IDS C   5     148.452  34.895  41.2050  0.00  0.00     0.000 C
ATOM     82  O5  IDS C   5     148.713  33.501  41.3940  0.00  0.00     0.000 O
BRANCH 78 83
ATOM     83   O  IDS C   5     146.612  32.778  44.2760  0.00  0.00     0.000 O
ATOM     84   S  IDS C   5     146.662  33.038  45.8490  0.00  0.00     0.000 S
ATOM     85   O  IDS C   5     148.045  33.277  46.1670  0.00  0.00     0.000 OA
ATOM     86   O  IDS C   5     145.821  34.191  46.0690  0.00  0.00     0.000 OA
ATOM     87   O  IDS C   5     146.136  31.842  46.4600  0.00  0.00     0.000 OA
ENDBRANCH 78 83
BRANCH 81 88
ATOM     88   C  IDS C   5     148.992  35.281  39.8410  0.00  0.00     0.000 C
ATOM     89   O  IDS C   5     149.402  36.396  39.6520  0.00  0.00     0.000 OA
ATOM     90   O  IDS C   5     149.008  34.463  38.9500  0.00  0.00     0.000 OA
ENDBRANCH 81 88
ENDBRANCH 76 80
ENDBRANCH 56 76
ENDBRANCH 55 59
ENDBRANCH 39 55
ENDBRANCH 38 42
ENDBRANCH 18 38
ENDBRANCH 17 21
ENDBRANCH 1 17
TORSDOF 18
ENDMDL
MODEL 50
REMARK VINA RESULT:      -7.2     26.278     32.008
ROOT
ATOM      1  C1  IDS C   1     166.272  19.995  78.8510  0.00  0.00     0.000 C
ATOM      2  C2  IDS C   1     165.451  20.503  80.0390  0.00  0.00     0.000 C
ATOM      3  C3  IDS C   1     164.423  21.529  79.5870  0.00  0.00     0.000 C
ATOM      4  C4  IDS C   1     165.105  22.708  78.9070  0.00  0.00     0.000 C
ATOM      5  C5  IDS C   1     166.262  22.216  78.0420  0.00  0.00     0.000 C
ATOM      6  O5  IDS C   1     166.083  20.837  77.7210  0.00  0.00     0.000 O
ATOM      7   O  IDS C   1     163.664  21.986  80.7150  0.00  0.00     0.000 O
ATOM      9  HD  IDS C   1     163.545  21.317  81.2520  0.00  0.00     0.000 HD
ENDROOT
BRANCH 2 9
ATOM      9   O  IDS C   1     164.717  19.391  80.6860  0.00  0.00     0.000 O
ATOM     10   S  IDS C   1     164.970  19.079  82.2300  0.00  0.00     0.000 S
ATOM     11   O  IDS C   1     164.107  17.966  82.5550  0.00  0.00     0.000 OA
ATOM     12   O  IDS C   1     166.377  18.752  82.3360  0.00  0.00     0.000 OA
ATOM     13   O  IDS C   1     164.618  20.289  82.9400  0.00  0.00     0.000 OA
ENDBRANCH 2 9
BRANCH 5 14
ATOM     14   C  IDS C   1     166.382  23.000  76.7460  0.00  0.00     0.000 C
ATOM     15   O  IDS C   1     166.842  24.115  76.7670  0.00  0.00     0.000 OA
ATOM     16   O  IDS C   1     166.011  22.498  75.6980  0.00  0.00     0.000 OA
ENDBRANCH 5 14
BRANCH 1 17
ATOM     17  O4  SGN C   2     166.582  18.706  78.6780  0.00  0.00     0.000 O
BRANCH 17 21
ATOM     18  C1  SGN C   2     166.133  15.146  76.5230  0.00  0.00     0.000 C
ATOM     19  C2  SGN C   2     165.217  16.309  76.1250  0.00  0.00     0.000 C
ATOM     20  C3  SGN C   2     165.774  17.624  76.6850  0.00  0.00     0.000 C
ATOM     21  C4  SGN C   2     166.003  17.501  78.1870  0.00  0.00     0.000 C
ATOM     22  C5  SGN C   2     166.929  16.318  78.4540  0.00  0.00     0.000 C
ATOM     23  O5  SGN C   2     166.343  15.108  77.9200  0.00  0.00     0.000 O
ATOM     24   O  SGN C   2     164.884  18.688  76.3920  0.00  0.00     0.000 O
ATOM     26  HD  SGN C   2     165.652  18.296  76.4750  0.00  0.00     0.000 HD
BRANCH 19 28
ATOM     26   N  SGN C   2     164.171  16.155  75.1050  0.00  0.00     0.000 N
ATOM     28  HD  SGN C   2     163.731  16.363  75.8220  0.00  0.00     0.000 HD
ATOM     28   O  SGN C   2     163.460  16.370  72.7240  0.00  0.00     0.000 OA
ATOM     29   S  SGN C   2     163.946  17.235  73.9350  0.00  0.00     0.000 S
ATOM     30   O  SGN C   2     162.891  18.084  74.3360  0.00  0.00     0.000 OA
ATOM     31   O  SGN C   2     165.214  17.793  73.6140  0.00  0.00     0.000 OA
ENDBRANCH 19 28
BRANCH 22 32
ATOM     32   C  SGN C   2     167.175  16.070  79.9220  0.00  0.00     0.000 C
ATOM     33   S  SGN C   2     169.131  16.144  81.5990  0.00  0.00     0.000 S
ATOM     34   O  SGN C   2     169.671  14.893  81.1280  0.00  0.00     0.000 OA
ATOM     35   O  SGN C   2     170.142  17.127  81.9260  0.00  0.00     0.000 OA
ATOM     36   O  SGN C   2     168.117  16.001  82.6170  0.00  0.00     0.000 OA
ATOM     37   O  SGN C   2     168.370  16.746  80.3310  0.00  0.00     0.000 O
ENDBRANCH 22 32
BRANCH 18 38
ATOM     38  O4  IDS C   3     167.301  14.754  76.0100  0.00  0.00     0.000 O
BRANCH 38 42
ATOM     39  C1  IDS C   3     169.321  12.354  74.4970  0.00  0.00     0.000 C
ATOM     40  C2  IDS C   3     169.926  13.448  75.3920  0.00  0.00     0.000 C
ATOM     41  C3  IDS C   3     169.467  14.838  74.9520  0.00  0.00     0.000 C
ATOM     42  C4  IDS C   3     167.959  14.880  74.7440  0.00  0.00     0.000 C
ATOM     43  C5  IDS C   3     167.530  13.737  73.8150  0.00  0.00     0.000 C
ATOM     44  O5  IDS C   3     167.914  12.493  74.3990  0.00  0.00     0.000 O
ATOM     45   O  IDS C   3     170.131  15.193  73.7380  0.00  0.00     0.000 O
ATOM     47  HD  IDS C   3     170.209  14.832  72.9550  0.00  0.00     0.000 HD
BRANCH 40 47
ATOM     47   O  IDS C   3     169.499  13.263  76.7990  0.00  0.00     0.000 O
ATOM     48   S  IDS C   3     169.995  11.983  77.6190  0.00  0.00     0.000 S
ATOM     49   O  IDS C   3     169.188  10.876  77.1530  0.00  0.00     0.000 OA
ATOM     50   O  IDS C   3     169.748  12.302  79.0080  0.00  0.00     0.000 OA
ATOM     51   O  IDS C   3     171.392  11.822  77.3160  0.00  0.00     0.000 OA
ENDBRANCH 40 47
BRANCH 43 52
ATOM     52   C  IDS C   3     166.043  13.733  73.5400  0.00  0.00     0.000 C
ATOM     53   O  IDS C   3     165.568  14.546  72.7810  0.00  0.00     0.000 OA
ATOM     54   O  IDS C   3     165.339  12.917  74.0790  0.00  0.00     0.000 OA
ENDBRANCH 43 52
BRANCH 39 55
ATOM     55  O4  SGN C   4     169.901  11.907  73.3830  0.00  0.00     0.000 O
BRANCH 55 59
ATOM     56  C1  SGN C   4     169.117   7.958  72.2440  0.00  0.00     0.000 C
ATOM     57  C2  SGN C   4     170.130   8.157  73.3840  0.00  0.00     0.000 C
ATOM     58  C3  SGN C   4     170.029   9.567  73.9590  0.00  0.00     0.000 C
ATOM     59  C4  SGN C   4     170.101  10.607  72.8470  0.00  0.00     0.000 C
ATOM     60  C5  SGN C   4     169.019  10.297  71.8140  0.00  0.00     0.000 C
ATOM     61  O5  SGN C   4     169.270   8.984  71.2760  0.00  0.00     0.000 O
ATOM     62   O  SGN C   4     171.071   9.771  74.9040  0.00  0.00     0.000 O
ATOM     64  HD  SGN C   4     170.920   8.919  74.9280  0.00  0.00     0.000 HD
BRANCH 57 66
ATOM     64   N  SGN C   4     169.826   7.004  74.2480  0.00  0.00     0.000 N
ATOM     66  HD  SGN C   4     169.805   6.143  74.1580  0.00  0.00     0.000 HD
ATOM     66   S  SGN C   4     170.872   5.811  74.4070  0.00  0.00     0.000 S
ATOM     67   O  SGN C   4     170.277   4.832  75.2420  0.00  0.00     0.000 OA
ATOM     68   O  SGN C   4     171.294   5.449  73.0980  0.00  0.00     0.000 OA
ATOM     69   O  SGN C   4     172.075   6.469  75.1570  0.00  0.00     0.000 OA
ENDBRANCH 57 66
BRANCH 60 70
ATOM     70   C  SGN C   4     168.983  11.272  70.6570  0.00  0.00     0.000 C
ATOM     71   O  SGN C   4     166.232  11.672  68.1310  0.00  0.00     0.000 OA
ATOM     72   O  SGN C   4     166.683  13.069  70.0530  0.00  0.00     0.000 OA
ATOM     73   O  SGN C   4     167.866  10.986  69.7920  0.00  0.00     0.000 O
ATOM     74   S  SGN C   4     167.232  12.230  69.0120  0.00  0.00     0.000 S
ATOM     75   O  SGN C   4     168.346  12.835  68.3100  0.00  0.00     0.000 OA
ENDBRANCH 60 70
BRANCH 56 76
ATOM     76  O4  IDS C   5     167.860   7.490  72.1450  0.00  0.00     0.000 O
BRANCH 76 80
ATOM     77  C1  IDS C   5     163.979   6.265  71.8340  0.00  0.00     0.000 C
ATOM     78  C2  IDS C   5     164.296   7.561  71.0880  0.00  0.00     0.000 C
ATOM     79  C3  IDS C   5     165.795   7.689  70.8950  0.00  0.00     0.000 C
ATOM     80  C4  IDS C   5     166.473   7.847  72.2520  0.00  0.00     0.000 C
ATOM     81  C5  IDS C   5     165.767   6.951  73.2810  0.00  0.00     0.000 C
ATOM     82  O5  IDS C   5     165.096   5.869  72.6280  0.00  0.00     0.000 O
BRANCH 78 83
ATOM     83   O  IDS C   5     163.649   7.571  69.7550  0.00  0.00     0.000 O
ATOM     84   S  IDS C   5     162.424   8.553  69.4760  0.00  0.00     0.000 S
ATOM     85   O  IDS C   5     161.516   8.376  70.5780  0.00  0.00     0.000 OA
ATOM     86   O  IDS C   5     163.002   9.875  69.4250  0.00  0.00     0.000 OA
ATOM     87   O  IDS C   5     161.871   8.138  68.2100  0.00  0.00     0.000 OA
ENDBRANCH 78 83
BRANCH 81 88
ATOM     88   C  IDS C   5     166.699   6.353  74.3190  0.00  0.00     0.000 C
ATOM     89   O  IDS C   5     167.141   5.246  74.1590  0.00  0.00     0.000 OA
ATOM     90   O  IDS C   5     166.993   6.995  75.3010  0.00  0.00     0.000 OA
ENDBRANCH 81 88
ENDBRANCH 76 80
ENDBRANCH 56 76
ENDBRANCH 55 59
ENDBRANCH 39 55
ENDBRANCH 38 42
ENDBRANCH 18 38
ENDBRANCH 17 21
ENDBRANCH 1 17
TORSDOF 18
ENDMDL
MODEL 51
REMARK VINA RESULT:      -7.2     19.962     25.582
ROOT
ATOM      1  C1  IDS C   1     168.226  34.292  52.6600  0.00  0.00     0.000 C
ATOM      2  C2  IDS C   1     169.656  34.583  52.1960  0.00  0.00     0.000 C
ATOM      3  C3  IDS C   1     170.450  33.293  52.0510  0.00  0.00     0.000 C
ATOM      4  C4  IDS C   1     170.495  32.539  53.3720  0.00  0.00     0.000 C
ATOM      5  C5  IDS C   1     169.146  32.638  54.0780  0.00  0.00     0.000 C
ATOM      6  O5  IDS C   1     168.122  32.956  53.1360  0.00  0.00     0.000 O
ATOM      7   O  IDS C   1     171.783  33.591  51.6110  0.00  0.00     0.000 O
ATOM      9  HD  IDS C   1     171.745  34.256  51.0580  0.00  0.00     0.000 HD
ENDROOT
BRANCH 2 9
ATOM      9   O  IDS C   1     169.655  35.258  50.8780  0.00  0.00     0.000 O
ATOM     10   S  IDS C   1     170.313  36.703  50.7380  0.00  0.00     0.000 S
ATOM     11   O  IDS C   1     170.165  37.073  49.3470  0.00  0.00     0.000 OA
ATOM     12   O  IDS C   1     169.564  37.561  51.6330  0.00  0.00     0.000 OA
ATOM     13   O  IDS C   1     171.696  36.548  51.1320  0.00  0.00     0.000 OA
ENDBRANCH 2 9
BRANCH 5 14
ATOM     14   C  IDS C   1     168.770  31.344  54.7800  0.00  0.00     0.000 C
ATOM     15   O  IDS C   1     169.254  31.090  55.8560  0.00  0.00     0.000 OA
ATOM     16   O  IDS C   1     167.986  30.574  54.2510  0.00  0.00     0.000 OA
ENDBRANCH 5 14
BRANCH 1 17
ATOM     17  O4  SGN C   2     167.155  34.902  52.1450  0.00  0.00     0.000 O
BRANCH 17 21
ATOM     18  C1  SGN C   2     164.080  35.258  49.3260  0.00  0.00     0.000 C
ATOM     19  C2  SGN C   2     164.964  34.008  49.2250  0.00  0.00     0.000 C
ATOM     20  C3  SGN C   2     165.735  33.810  50.5350  0.00  0.00     0.000 C
ATOM     21  C4  SGN C   2     166.498  35.081  50.8930  0.00  0.00     0.000 C
ATOM     22  C5  SGN C   2     165.516  36.246  50.9680  0.00  0.00     0.000 C
ATOM     23  O5  SGN C   2     164.833  36.393  49.7020  0.00  0.00     0.000 O
ATOM     24   O  SGN C   2     166.617  32.706  50.4130  0.00  0.00     0.000 O
ATOM     26  HD  SGN C   2     166.036  33.219  50.8000  0.00  0.00     0.000 HD
BRANCH 19 28
ATOM     26   N  SGN C   2     164.134  33.130  48.3890  0.00  0.00     0.000 N
ATOM     28  HD  SGN C   2     163.994  33.918  48.0600  0.00  0.00     0.000 HD
ATOM     28   O  SGN C   2     163.791  30.908  47.3070  0.00  0.00     0.000 OA
ATOM     29   S  SGN C   2     164.766  32.133  47.2970  0.00  0.00     0.000 S
ATOM     30   O  SGN C   2     164.679  32.770  46.0390  0.00  0.00     0.000 OA
ATOM     31   O  SGN C   2     166.033  31.709  47.7830  0.00  0.00     0.000 OA
ENDBRANCH 19 28
BRANCH 22 32
ATOM     32   C  SGN C   2     166.179  37.569  51.2610  0.00  0.00     0.000 C
ATOM     33   S  SGN C   2     165.551  39.886  52.1990  0.00  0.00     0.000 S
ATOM     34   O  SGN C   2     164.917  40.289  50.9690  0.00  0.00     0.000 OA
ATOM     35   O  SGN C   2     164.857  40.340  53.3860  0.00  0.00     0.000 OA
ATOM     36   O  SGN C   2     166.974  40.133  52.2360  0.00  0.00     0.000 OA
ATOM     37   O  SGN C   2     165.400  38.297  52.2180  0.00  0.00     0.000 O
ENDBRANCH 22 32
BRANCH 18 38
ATOM     38  O4  IDS C   3     162.903  35.435  49.9300  0.00  0.00     0.000 O
BRANCH 38 42
ATOM     39  C1  IDS C   3     159.580  35.926  50.8480  0.00  0.00     0.000 C
ATOM     40  C2  IDS C   3     160.687  36.869  51.3460  0.00  0.00     0.000 C
ATOM     41  C3  IDS C   3     161.831  36.087  51.9900  0.00  0.00     0.000 C
ATOM     42  C4  IDS C   3     162.269  34.925  51.1080  0.00  0.00     0.000 C
ATOM     43  C5  IDS C   3     161.049  34.079  50.7210  0.00  0.00     0.000 C
ATOM     44  O5  IDS C   3     160.113  34.901  50.0260  0.00  0.00     0.000 O
ATOM     45   O  IDS C   3     161.411  35.594  53.2630  0.00  0.00     0.000 O
ATOM     47  HD  IDS C   3     160.751  35.108  53.5440  0.00  0.00     0.000 HD
BRANCH 40 47
ATOM     47   O  IDS C   3     161.256  37.644  50.2190  0.00  0.00     0.000 O
ATOM     48   S  IDS C   3     161.336  39.239  50.3090  0.00  0.00     0.000 S
ATOM     49   O  IDS C   3     159.994  39.718  50.0560  0.00  0.00     0.000 OA
ATOM     50   O  IDS C   3     162.268  39.633  49.2750  0.00  0.00     0.000 OA
ATOM     51   O  IDS C   3     161.798  39.549  51.6360  0.00  0.00     0.000 OA
ENDBRANCH 40 47
BRANCH 43 52
ATOM     52   C  IDS C   3     161.412  32.886  49.8650  0.00  0.00     0.000 C
ATOM     53   O  IDS C   3     161.121  32.876  48.6910  0.00  0.00     0.000 OA
ATOM     54   O  IDS C   3     161.990  31.951  50.3580  0.00  0.00     0.000 OA
ENDBRANCH 43 52
BRANCH 39 55
ATOM     55  O4  SGN C   4     158.547  35.539  51.5970  0.00  0.00     0.000 O
BRANCH 55 59
ATOM     56  C1  SGN C   4     154.882  37.461  52.2090  0.00  0.00     0.000 C
ATOM     57  C2  SGN C   4     155.072  36.105  52.9100  0.00  0.00     0.000 C
ATOM     58  C3  SGN C   4     156.547  35.712  52.9360  0.00  0.00     0.000 C
ATOM     59  C4  SGN C   4     157.153  35.805  51.5410  0.00  0.00     0.000 C
ATOM     60  C5  SGN C   4     156.913  37.211  50.9940  0.00  0.00     0.000 C
ATOM     61  O5  SGN C   4     155.490  37.434  50.9280  0.00  0.00     0.000 O
ATOM     62   O  SGN C   4     156.679  34.394  53.4530  0.00  0.00     0.000 O
ATOM     64  HD  SGN C   4     155.958  34.701  53.8230  0.00  0.00     0.000 HD
BRANCH 57 66
ATOM     64   N  SGN C   4     154.449  36.189  54.2410  0.00  0.00     0.000 N
ATOM     66  HD  SGN C   4     153.697  36.474  54.5620  0.00  0.00     0.000 HD
ATOM     66   S  SGN C   4     153.004  35.564  54.5010  0.00  0.00     0.000 S
ATOM     67   O  SGN C   4     152.651  35.854  55.8430  0.00  0.00     0.000 OA
ATOM     68   O  SGN C   4     152.162  36.009  53.4450  0.00  0.00     0.000 OA
ATOM     69   O  SGN C   4     153.232  34.026  54.3460  0.00  0.00     0.000 OA
ENDBRANCH 57 66
BRANCH 60 70
ATOM     70   C  SGN C   4     157.480  37.434  49.6090  0.00  0.00     0.000 C
ATOM     71   O  SGN C   4     155.801  39.174  46.7360  0.00  0.00     0.000 OA
ATOM     72   O  SGN C   4     157.499  40.064  48.2090  0.00  0.00     0.000 OA
ATOM     73   O  SGN C   4     156.467  37.950  48.7250  0.00  0.00     0.000 O
ATOM     74   S  SGN C   4     156.969  38.898  47.5400  0.00  0.00     0.000 S
ATOM     75   O  SGN C   4     157.977  38.122  46.8460  0.00  0.00     0.000 OA
ENDBRANCH 60 70
BRANCH 56 76
ATOM     76  O4  IDS C   5     154.817  38.746  52.6020  0.00  0.00     0.000 O
BRANCH 76 80
ATOM     77  C1  IDS C   5     154.165  42.695  53.4020  0.00  0.00     0.000 C
ATOM     78  C2  IDS C   5     154.161  41.790  54.6330  0.00  0.00     0.000 C
ATOM     79  C3  IDS C   5     154.831  40.470  54.3030  0.00  0.00     0.000 C
ATOM     80  C4  IDS C   5     153.998  39.720  53.2680  0.00  0.00     0.000 C
ATOM     81  C5  IDS C   5     153.423  40.720  52.2550  0.00  0.00     0.000 C
ATOM     82  O5  IDS C   5     154.221  41.907  52.2130  0.00  0.00     0.000 O
BRANCH 78 83
ATOM     83   O  IDS C   5     154.899  42.423  55.7510  0.00  0.00     0.000 O
ATOM     84   S  IDS C   5     154.143  42.743  57.1190  0.00  0.00     0.000 S
ATOM     85   O  IDS C   5     152.927  43.417  56.7510  0.00  0.00     0.000 OA
ATOM     86   O  IDS C   5     153.915  41.458  57.7360  0.00  0.00     0.000 OA
ATOM     87   O  IDS C   5     155.046  43.573  57.8790  0.00  0.00     0.000 OA
ENDBRANCH 78 83
BRANCH 81 88
ATOM     88   C  IDS C   5     153.332  40.180  50.8400  0.00  0.00     0.000 C
ATOM     89   O  IDS C   5     152.416  39.466  50.5290  0.00  0.00     0.000 OA
ATOM     90   O  IDS C   5     154.183  40.472  50.0310  0.00  0.00     0.000 OA
ENDBRANCH 81 88
ENDBRANCH 76 80
ENDBRANCH 56 76
ENDBRANCH 55 59
ENDBRANCH 39 55
ENDBRANCH 38 42
ENDBRANCH 18 38
ENDBRANCH 17 21
ENDBRANCH 1 17
TORSDOF 18
ENDMDL
MODEL 52
REMARK VINA RESULT:      -7.2     21.300     26.947
ROOT
ATOM      1  C1  IDS C   1     169.103  33.581  54.2370  0.00  0.00     0.000 C
ATOM      2  C2  IDS C   1     170.017  34.425  55.1310  0.00  0.00     0.000 C
ATOM      3  C3  IDS C   1     171.091  33.560  55.7740  0.00  0.00     0.000 C
ATOM      4  C4  IDS C   1     170.461  32.451  56.6050  0.00  0.00     0.000 C
ATOM      5  C5  IDS C   1     169.231  31.897  55.8920  0.00  0.00     0.000 C
ATOM      6  O5  IDS C   1     169.295  32.197  54.4980  0.00  0.00     0.000 O
ATOM      7   O  IDS C   1     171.936  34.372  56.6020  0.00  0.00     0.000 O
ATOM      9  HD  IDS C   1     172.033  35.143  56.2180  0.00  0.00     0.000 HD
ENDROOT
BRANCH 2 9
ATOM      9   O  IDS C   1     170.701  35.475  54.3430  0.00  0.00     0.000 O
ATOM     10   S  IDS C   1     170.574  37.000  54.7930  0.00  0.00     0.000 S
ATOM     11   O  IDS C   1     171.355  37.759  53.8420  0.00  0.00     0.000 OA
ATOM     12   O  IDS C   1     169.159  37.306  54.7340  0.00  0.00     0.000 OA
ATOM     13   O  IDS C   1     171.109  37.062  56.1350  0.00  0.00     0.000 OA
ENDBRANCH 2 9
BRANCH 5 14
ATOM     14   C  IDS C   1     169.102  30.393  56.0560  0.00  0.00     0.000 C
ATOM     15   O  IDS C   1     170.092  29.703  56.0110  0.00  0.00     0.000 OA
ATOM     16   O  IDS C   1     168.002  29.894  56.2290  0.00  0.00     0.000 OA
ENDBRANCH 5 14
BRANCH 1 17
ATOM     17  O4  SGN C   2     168.694  33.982  53.0300  0.00  0.00     0.000 O
BRANCH 17 21
ATOM     18  C1  SGN C   2     168.476  33.744  48.8560  0.00  0.00     0.000 C
ATOM     19  C2  SGN C   2     169.092  32.541  49.5820  0.00  0.00     0.000 C
ATOM     20  C3  SGN C   2     168.720  32.585  51.0690  0.00  0.00     0.000 C
ATOM     21  C4  SGN C   2     169.106  33.933  51.6660  0.00  0.00     0.000 C
ATOM     22  C5  SGN C   2     168.431  35.044  50.8660  0.00  0.00     0.000 C
ATOM     23  O5  SGN C   2     168.832  34.960  49.4790  0.00  0.00     0.000 O
ATOM     24   O  SGN C   2     169.360  31.523  51.7570  0.00  0.00     0.000 O
ATOM     26  HD  SGN C   2     168.711  32.058  51.5510  0.00  0.00     0.000 HD
BRANCH 19 28
ATOM     26   N  SGN C   2     169.025  31.505  48.5420  0.00  0.00     0.000 N
ATOM     28  HD  SGN C   2     169.221  32.225  48.1020  0.00  0.00     0.000 HD
ATOM     28   O  SGN C   2     169.370  29.128  47.8680  0.00  0.00     0.000 OA
ATOM     29   S  SGN C   2     170.162  30.380  48.3760  0.00  0.00     0.000 S
ATOM     30   O  SGN C   2     171.037  30.807  47.3520  0.00  0.00     0.000 OA
ATOM     31   O  SGN C   2     170.680  30.095  49.6690  0.00  0.00     0.000 OA
ENDBRANCH 19 28
BRANCH 22 32
ATOM     32   C  SGN C   2     168.794  36.429  51.3420  0.00  0.00     0.000 C
ATOM     33   S  SGN C   2     167.755  38.787  51.4170  0.00  0.00     0.000 S
ATOM     34   O  SGN C   2     168.013  39.020  50.0180  0.00  0.00     0.000 OA
ATOM     35   O  SGN C   2     166.485  39.315  51.8690  0.00  0.00     0.000 OA
ATOM     36   O  SGN C   2     168.860  39.124  52.2830  0.00  0.00     0.000 OA
ATOM     37   O  SGN C   2     167.602  37.202  51.5300  0.00  0.00     0.000 O
ENDBRANCH 22 32
BRANCH 18 38
ATOM     38  O4  IDS C   3     167.225  33.948  48.4360  0.00  0.00     0.000 O
BRANCH 38 42
ATOM     39  C1  IDS C   3     163.745  33.819  48.4290  0.00  0.00     0.000 C
ATOM     40  C2  IDS C   3     164.581  32.625  48.9180  0.00  0.00     0.000 C
ATOM     41  C3  IDS C   3     165.631  32.226  47.8820  0.00  0.00     0.000 C
ATOM     42  C4  IDS C   3     166.401  33.440  47.3810  0.00  0.00     0.000 C
ATOM     43  C5  IDS C   3     165.419  34.522  46.9170  0.00  0.00     0.000 C
ATOM     44  O5  IDS C   3     164.577  34.888  48.0080  0.00  0.00     0.000 O
ATOM     45   O  IDS C   3     164.989  31.575  46.7840  0.00  0.00     0.000 O
ATOM     47  HD  IDS C   3     164.348  31.782  46.2400  0.00  0.00     0.000 HD
BRANCH 40 47
ATOM     47   O  IDS C   3     165.298  32.969  50.1690  0.00  0.00     0.000 O
ATOM     48   S  IDS C   3     164.527  32.910  51.5690  0.00  0.00     0.000 S
ATOM     49   O  IDS C   3     163.710  34.103  51.6230  0.00  0.00     0.000 OA
ATOM     50   O  IDS C   3     165.566  32.905  52.5750  0.00  0.00     0.000 OA
ATOM     51   O  IDS C   3     163.748  31.701  51.5540  0.00  0.00     0.000 OA
ENDBRANCH 40 47
BRANCH 43 52
ATOM     52   C  IDS C   3     166.115  35.752  46.3780  0.00  0.00     0.000 C
ATOM     53   O  IDS C   3     166.987  35.637  45.5470  0.00  0.00     0.000 OA
ATOM     54   O  IDS C   3     165.796  36.843  46.7790  0.00  0.00     0.000 OA
ENDBRANCH 43 52
BRANCH 39 55
ATOM     55  O4  SGN C   4     162.622  33.695  47.7220  0.00  0.00     0.000 O
BRANCH 55 59
ATOM     56  C1  SGN C   4     159.205  35.494  49.3320  0.00  0.00     0.000 C
ATOM     57  C2  SGN C   4     159.564  34.097  49.8680  0.00  0.00     0.000 C
ATOM     58  C3  SGN C   4     161.003  33.734  49.5110  0.00  0.00     0.000 C
ATOM     59  C4  SGN C   4     161.254  33.935  48.0210  0.00  0.00     0.000 C
ATOM     60  C5  SGN C   4     160.884  35.370  47.6500  0.00  0.00     0.000 C
ATOM     61  O5  SGN C   4     159.487  35.567  47.9440  0.00  0.00     0.000 O
ATOM     62   O  SGN C   4     161.260  32.387  49.8860  0.00  0.00     0.000 O
ATOM     64  HD  SGN C   4     160.649  32.653  50.4390  0.00  0.00     0.000 HD
BRANCH 57 66
ATOM     64   N  SGN C   4     158.211  34.084  50.4470  0.00  0.00     0.000 N
ATOM     66  HD  SGN C   4     157.669  33.484  50.7570  0.00  0.00     0.000 HD
ATOM     66   S  SGN C   4     157.942  33.406  51.8660  0.00  0.00     0.000 S
ATOM     67   O  SGN C   4     156.551  33.496  52.1240  0.00  0.00     0.000 OA
ATOM     68   O  SGN C   4     158.568  32.129  51.8430  0.00  0.00     0.000 OA
ATOM     69   O  SGN C   4     158.715  34.324  52.8680  0.00  0.00     0.000 OA
ENDBRANCH 57 66
BRANCH 60 70
ATOM     70   C  SGN C   4     161.100  35.698  46.1890  0.00  0.00     0.000 C
ATOM     71   O  SGN C   4     158.624  35.290  43.3950  0.00  0.00     0.000 OA
ATOM     72   O  SGN C   4     159.227  37.330  44.5440  0.00  0.00     0.000 OA
ATOM     73   O  SGN C   4     160.000  35.213  45.3950  0.00  0.00     0.000 O
ATOM     74   S  SGN C   4     159.662  36.037  44.0670  0.00  0.00     0.000 S
ATOM     75   O  SGN C   4     160.909  36.083  43.3300  0.00  0.00     0.000 OA
ENDBRANCH 60 70
BRANCH 56 76
ATOM     76  O4  IDS C   5     159.232  36.748  49.8190  0.00  0.00     0.000 O
BRANCH 76 80
ATOM     77  C1  IDS C   5     158.076  37.721  53.6110  0.00  0.00     0.000 C
ATOM     78  C2  IDS C   5     156.955  37.773  52.5730  0.00  0.00     0.000 C
ATOM     79  C3  IDS C   5     157.361  36.993  51.3380  0.00  0.00     0.000 C
ATOM     80  C4  IDS C   5     158.545  37.682  50.6650  0.00  0.00     0.000 C
ATOM     81  C5  IDS C   5     159.493  38.230  51.7410  0.00  0.00     0.000 C
ATOM     82  O5  IDS C   5     159.333  37.510  52.9670  0.00  0.00     0.000 O
BRANCH 78 83
ATOM     83   O  IDS C   5     155.711  37.178  53.1150  0.00  0.00     0.000 O
ATOM     84   S  IDS C   5     154.431  38.099  53.3550  0.00  0.00     0.000 S
ATOM     85   O  IDS C   5     154.902  39.252  54.0740  0.00  0.00     0.000 OA
ATOM     86   O  IDS C   5     153.940  38.415  52.0340  0.00  0.00     0.000 OA
ATOM     87   O  IDS C   5     153.507  37.293  54.1140  0.00  0.00     0.000 OA
ENDBRANCH 78 83
BRANCH 81 88
ATOM     88   C  IDS C   5     160.961  38.162  51.3600  0.00  0.00     0.000 C
ATOM     89   O  IDS C   5     161.439  39.017  50.6630  0.00  0.00     0.000 OA
ATOM     90   O  IDS C   5     161.642  37.247  51.7620  0.00  0.00     0.000 OA
ENDBRANCH 81 88
ENDBRANCH 76 80
ENDBRANCH 56 76
ENDBRANCH 55 59
ENDBRANCH 39 55
ENDBRANCH 38 42
ENDBRANCH 18 38
ENDBRANCH 17 21
ENDBRANCH 1 17
TORSDOF 18
ENDMDL
MODEL 53
REMARK VINA RESULT:      -7.1     22.204     25.545
ROOT
ATOM      1  C1  IDS C   1     147.756  35.409  72.3830  0.00  0.00     0.000 C
ATOM      2  C2  IDS C   1     149.104  35.164  71.6980  0.00  0.00     0.000 C
ATOM      3  C3  IDS C   1     149.719  36.475  71.2310  0.00  0.00     0.000 C
ATOM      4  C4  IDS C   1     148.787  37.191  70.2640  0.00  0.00     0.000 C
ATOM      5  C5  IDS C   1     147.340  37.040  70.7230  0.00  0.00     0.000 C
ATOM      6  O5  IDS C   1     147.296  36.727  72.1150  0.00  0.00     0.000 O
ATOM      7   O  IDS C   1     150.981  36.220  70.5980  0.00  0.00     0.000 O
ATOM      9  HD  IDS C   1     151.370  35.571  71.0180  0.00  0.00     0.000 HD
ENDROOT
BRANCH 2 9
ATOM      9   O  IDS C   1     150.061  34.529  72.6310  0.00  0.00     0.000 O
ATOM     10   S  IDS C   1     150.807  33.187  72.1970  0.00  0.00     0.000 S
ATOM     11   O  IDS C   1     151.669  32.837  73.3040  0.00  0.00     0.000 OA
ATOM     12   O  IDS C   1     149.758  32.215  71.9690  0.00  0.00     0.000 OA
ATOM     13   O  IDS C   1     151.542  33.516  70.9960  0.00  0.00     0.000 OA
ENDBRANCH 2 9
BRANCH 5 14
ATOM     14   C  IDS C   1     146.530  38.304  70.4880  0.00  0.00     0.000 C
ATOM     15   O  IDS C   1     147.036  39.236  69.9130  0.00  0.00     0.000 OA
ATOM     16   O  IDS C   1     145.378  38.366  70.8830  0.00  0.00     0.000 OA
ENDBRANCH 5 14
BRANCH 1 17
ATOM     17  O4  SGN C   2     147.389  34.790  73.5090  0.00  0.00     0.000 O
BRANCH 17 21
ATOM     18  C1  SGN C   2     146.869  34.391  77.6440  0.00  0.00     0.000 C
ATOM     19  C2  SGN C   2     147.060  35.816  77.1100  0.00  0.00     0.000 C
ATOM     20  C3  SGN C   2     146.811  35.842  75.5970  0.00  0.00     0.000 C
ATOM     21  C4  SGN C   2     147.680  34.799  74.9040  0.00  0.00     0.000 C
ATOM     22  C5  SGN C   2     147.398  33.430  75.5150  0.00  0.00     0.000 C
ATOM     23  O5  SGN C   2     147.666  33.464  76.9360  0.00  0.00     0.000 O
ATOM     24   O  SGN C   2     147.072  37.139  75.0870  0.00  0.00     0.000 O
ATOM     26  HD  SGN C   2     146.643  36.392  75.1730  0.00  0.00     0.000 HD
BRANCH 19 28
ATOM     26   N  SGN C   2     146.517  36.617  78.2150  0.00  0.00     0.000 N
ATOM     28  HD  SGN C   2     146.844  35.919  78.6090  0.00  0.00     0.000 HD
ATOM     28   O  SGN C   2     146.020  38.861  79.1850  0.00  0.00     0.000 OA
ATOM     29   S  SGN C   2     147.222  37.971  78.7230  0.00  0.00     0.000 S
ATOM     30   O  SGN C   2     148.004  37.645  79.8530  0.00  0.00     0.000 OA
ATOM     31   O  SGN C   2     147.836  38.586  77.5970  0.00  0.00     0.000 OA
ENDBRANCH 19 28
BRANCH 22 32
ATOM     32   C  SGN C   2     148.253  32.328  74.9370  0.00  0.00     0.000 C
ATOM     33   S  SGN C   2     149.734  30.388  75.7640  0.00  0.00     0.000 S
ATOM     34   O  SGN C   2     150.818  31.272  76.1120  0.00  0.00     0.000 OA
ATOM     35   O  SGN C   2     149.544  29.304  76.7060  0.00  0.00     0.000 OA
ATOM     36   O  SGN C   2     149.744  29.957  74.3860  0.00  0.00     0.000 OA
ATOM     37   O  SGN C   2     148.426  31.292  75.9110  0.00  0.00     0.000 O
ENDBRANCH 22 32
BRANCH 18 38
ATOM     38  O4  IDS C   3     145.751  33.716  77.9160  0.00  0.00     0.000 O
BRANCH 38 42
ATOM     39  C1  IDS C   3     142.457  32.928  78.7290  0.00  0.00     0.000 C
ATOM     40  C2  IDS C   3     143.209  34.048  79.4660  0.00  0.00     0.000 C
ATOM     41  C3  IDS C   3     144.552  33.553  80.0020  0.00  0.00     0.000 C
ATOM     42  C4  IDS C   3     145.328  32.799  78.9310  0.00  0.00     0.000 C
ATOM     43  C5  IDS C   3     144.440  31.710  78.3160  0.00  0.00     0.000 C
ATOM     44  O5  IDS C   3     143.281  32.319  77.7490  0.00  0.00     0.000 O
ATOM     45   O  IDS C   3     144.327  32.700  81.1260  0.00  0.00     0.000 O
ATOM     47  HD  IDS C   3     143.862  31.983  81.2670  0.00  0.00     0.000 HD
BRANCH 40 47
ATOM     47   O  IDS C   3     143.485  35.180  78.5490  0.00  0.00     0.000 O
ATOM     48   S  IDS C   3     142.741  36.579  78.7650  0.00  0.00     0.000 S
ATOM     49   O  IDS C   3     141.399  36.398  78.2540  0.00  0.00     0.000 OA
ATOM     50   O  IDS C   3     143.502  37.537  77.9940  0.00  0.00     0.000 OA
ATOM     51   O  IDS C   3     142.768  36.840  80.1800  0.00  0.00     0.000 OA
ENDBRANCH 40 47
BRANCH 43 52
ATOM     52   C  IDS C   3     145.156  30.898  77.2590  0.00  0.00     0.000 C
ATOM     53   O  IDS C   3     146.018  30.114  77.5830  0.00  0.00     0.000 OA
ATOM     54   O  IDS C   3     144.862  31.037  76.0990  0.00  0.00     0.000 OA
ENDBRANCH 43 52
BRANCH 39 55
ATOM     55  O4  SGN C   4     141.612  32.088  79.3270  0.00  0.00     0.000 O
BRANCH 55 59
ATOM     56  C1  SGN C   4     137.591  32.740  78.3750  0.00  0.00     0.000 C
ATOM     57  C2  SGN C   4     138.100  33.376  79.6790  0.00  0.00     0.000 C
ATOM     58  C3  SGN C   4     139.626  33.404  79.7080  0.00  0.00     0.000 C
ATOM     59  C4  SGN C   4     140.195  32.024  79.4000  0.00  0.00     0.000 C
ATOM     60  C5  SGN C   4     139.626  31.544  78.0670  0.00  0.00     0.000 C
ATOM     61  O5  SGN C   4     138.191  31.468  78.1890  0.00  0.00     0.000 O
ATOM     62   O  SGN C   4     140.070  33.857  80.9800  0.00  0.00     0.000 O
ATOM     64  HD  SGN C   4     139.296  34.231  80.8750  0.00  0.00     0.000 HD
BRANCH 57 66
ATOM     64   N  SGN C   4     136.882  34.186  79.5220  0.00  0.00     0.000 N
ATOM     66  HD  SGN C   4     136.095  34.209  79.8830  0.00  0.00     0.000 HD
ATOM     66   S  SGN C   4     136.219  34.907  80.7820  0.00  0.00     0.000 S
ATOM     67   O  SGN C   4     135.040  35.552  80.3300  0.00  0.00     0.000 OA
ATOM     68   O  SGN C   4     136.132  33.938  81.8190  0.00  0.00     0.000 OA
ATOM     69   O  SGN C   4     137.274  35.984  81.1910  0.00  0.00     0.000 OA
ENDBRANCH 57 66
BRANCH 60 70
ATOM     70   C  SGN C   4     140.127  30.180  77.6440  0.00  0.00     0.000 C
ATOM     71   O  SGN C   4     139.487  26.907  79.3720  0.00  0.00     0.000 OA
ATOM     72   O  SGN C   4     138.398  27.766  77.3910  0.00  0.00     0.000 OA
ATOM     73   O  SGN C   4     139.852  29.203  78.6660  0.00  0.00     0.000 O
ATOM     74   S  SGN C   4     139.613  27.701  78.1710  0.00  0.00     0.000 S
ATOM     75   O  SGN C   4     140.787  27.378  77.3850  0.00  0.00     0.000 OA
ENDBRANCH 60 70
BRANCH 56 76
ATOM     76  O4  IDS C   5     137.218  33.195  77.1640  0.00  0.00     0.000 O
BRANCH 76 80
ATOM     77  C1  IDS C   5     140.062  33.333  74.2400  0.00  0.00     0.000 C
ATOM     78  C2  IDS C   5     139.763  34.679  74.8980  0.00  0.00     0.000 C
ATOM     79  C3  IDS C   5     139.055  34.459  76.2210  0.00  0.00     0.000 C
ATOM     80  C4  IDS C   5     137.684  33.839  75.9690  0.00  0.00     0.000 C
ATOM     81  C5  IDS C   5     137.788  32.826  74.8200  0.00  0.00     0.000 C
ATOM     82  O5  IDS C   5     139.130  32.349  74.6890  0.00  0.00     0.000 O
BRANCH 78 83
ATOM     83   O  IDS C   5     141.017  35.426  75.1570  0.00  0.00     0.000 O
ATOM     84   S  IDS C   5     141.164  36.929  74.6450  0.00  0.00     0.000 S
ATOM     85   O  IDS C   5     140.749  36.921  73.2670  0.00  0.00     0.000 OA
ATOM     86   O  IDS C   5     140.293  37.706  75.4960  0.00  0.00     0.000 OA
ATOM     87   O  IDS C   5     142.556  37.266  74.8180  0.00  0.00     0.000 OA
ENDBRANCH 78 83
BRANCH 81 88
ATOM     88   C  IDS C   5     136.885  31.617  74.9820  0.00  0.00     0.000 C
ATOM     89   O  IDS C   5     135.692  31.749  74.9370  0.00  0.00     0.000 OA
ATOM     90   O  IDS C   5     137.375  30.524  75.1540  0.00  0.00     0.000 OA
ENDBRANCH 81 88
ENDBRANCH 76 80
ENDBRANCH 56 76
ENDBRANCH 55 59
ENDBRANCH 39 55
ENDBRANCH 38 42
ENDBRANCH 18 38
ENDBRANCH 17 21
ENDBRANCH 1 17
TORSDOF 18
ENDMDL
MODEL 54
REMARK VINA RESULT:      -7.1     18.855     22.519
ROOT
ATOM      1  C1  IDS C   1     158.927  35.919  50.1180  0.00  0.00     0.000 C
ATOM      2  C2  IDS C   1     159.417  35.564  51.5240  0.00  0.00     0.000 C
ATOM      3  C3  IDS C   1     160.905  35.850  51.6670  0.00  0.00     0.000 C
ATOM      4  C4  IDS C   1     161.705  35.059  50.6410  0.00  0.00     0.000 C
ATOM      5  C5  IDS C   1     160.962  35.029  49.3090  0.00  0.00     0.000 C
ATOM      6  O5  IDS C   1     160.030  36.108  49.2410  0.00  0.00     0.000 O
ATOM      7   O  IDS C   1     161.339  35.514  52.9920  0.00  0.00     0.000 O
ATOM      9  HD  IDS C   1     160.704  35.716  53.5460  0.00  0.00     0.000 HD
ENDROOT
BRANCH 2 9
ATOM      9   O  IDS C   1     158.708  36.365  52.5480  0.00  0.00     0.000 O
ATOM     10   S  IDS C   1     157.879  35.622  53.6890  0.00  0.00     0.000 S
ATOM     11   O  IDS C   1     157.329  36.667  54.5230  0.00  0.00     0.000 OA
ATOM     12   O  IDS C   1     156.862  34.857  52.9970  0.00  0.00     0.000 OA
ATOM     13   O  IDS C   1     158.832  34.789  54.3900  0.00  0.00     0.000 OA
ENDBRANCH 2 9
BRANCH 5 14
ATOM     14   C  IDS C   1     161.907  35.135  48.1240  0.00  0.00     0.000 C
ATOM     15   O  IDS C   1     162.083  34.172  47.4170  0.00  0.00     0.000 OA
ATOM     16   O  IDS C   1     162.481  36.187  47.8990  0.00  0.00     0.000 OA
ENDBRANCH 5 14
BRANCH 1 17
ATOM     17  O4  SGN C   2     157.776  36.557  49.8880  0.00  0.00     0.000 O
BRANCH 17 21
ATOM     18  C1  SGN C   2     155.453  39.727  48.4450  0.00  0.00     0.000 C
ATOM     19  C2  SGN C   2     156.929  39.713  48.0300  0.00  0.00     0.000 C
ATOM     20  C3  SGN C   2     157.521  38.318  48.2650  0.00  0.00     0.000 C
ATOM     21  C4  SGN C   2     157.279  37.880  49.7050  0.00  0.00     0.000 C
ATOM     22  C5  SGN C   2     155.782  37.932  49.9950  0.00  0.00     0.000 C
ATOM     23  O5  SGN C   2     155.286  39.272  49.7720  0.00  0.00     0.000 O
ATOM     24   O  SGN C   2     158.907  38.325  47.9630  0.00  0.00     0.000 O
ATOM     26  HD  SGN C   2     158.098  38.014  47.9740  0.00  0.00     0.000 HD
BRANCH 19 28
ATOM     26   N  SGN C   2     156.917  40.622  46.8760  0.00  0.00     0.000 N
ATOM     28  HD  SGN C   2     156.327  40.961  47.4110  0.00  0.00     0.000 HD
ATOM     28   O  SGN C   2     158.156  41.734  45.0180  0.00  0.00     0.000 OA
ATOM     29   S  SGN C   2     158.115  41.653  46.5810  0.00  0.00     0.000 S
ATOM     30   O  SGN C   2     157.728  42.912  47.0890  0.00  0.00     0.000 OA
ATOM     31   O  SGN C   2     159.322  41.053  47.0350  0.00  0.00     0.000 OA
ENDBRANCH 19 28
BRANCH 22 32
ATOM     32   C  SGN C   2     155.435  37.571  51.4190  0.00  0.00     0.000 C
ATOM     33   S  SGN C   2     154.453  38.696  53.5190  0.00  0.00     0.000 S
ATOM     34   O  SGN C   2     155.689  39.375  53.8170  0.00  0.00     0.000 OA
ATOM     35   O  SGN C   2     153.273  39.495  53.7770  0.00  0.00     0.000 OA
ATOM     36   O  SGN C   2     154.371  37.359  54.0600  0.00  0.00     0.000 OA
ATOM     37   O  SGN C   2     154.481  38.506  51.9340  0.00  0.00     0.000 O
ENDBRANCH 22 32
BRANCH 18 38
ATOM     38  O4  IDS C   3     154.373  39.270  47.8070  0.00  0.00     0.000 O
BRANCH 38 42
ATOM     39  C1  IDS C   3     151.973  37.698  45.8340  0.00  0.00     0.000 C
ATOM     40  C2  IDS C   3     152.985  38.678  45.2190  0.00  0.00     0.000 C
ATOM     41  C3  IDS C   3     152.994  40.008  45.9720  0.00  0.00     0.000 C
ATOM     42  C4  IDS C   3     153.081  39.789  47.4770  0.00  0.00     0.000 C
ATOM     43  C5  IDS C   3     151.992  38.805  47.9220  0.00  0.00     0.000 C
ATOM     44  O5  IDS C   3     152.170  37.569  47.2320  0.00  0.00     0.000 O
ATOM     45   O  IDS C   3     151.805  40.737  45.6590  0.00  0.00     0.000 O
ATOM     47  HD  IDS C   3     150.956  40.572  45.7030  0.00  0.00     0.000 HD
BRANCH 40 47
ATOM     47   O  IDS C   3     154.357  38.120  45.2860  0.00  0.00     0.000 O
ATOM     48   S  IDS C   3     155.462  38.596  44.2330  0.00  0.00     0.000 S
ATOM     49   O  IDS C   3     155.161  37.902  43.0000  0.00  0.00     0.000 OA
ATOM     50   O  IDS C   3     156.729  38.191  44.8020  0.00  0.00     0.000 OA
ATOM     51   O  IDS C   3     155.325  40.024  44.1170  0.00  0.00     0.000 OA
ENDBRANCH 40 47
BRANCH 43 52
ATOM     52   C  IDS C   3     151.999  38.559  49.4140  0.00  0.00     0.000 C
ATOM     53   O  IDS C   3     151.853  39.485  50.1790  0.00  0.00     0.000 OA
ATOM     54   O  IDS C   3     152.151  37.440  49.8340  0.00  0.00     0.000 OA
ENDBRANCH 43 52
BRANCH 39 55
ATOM     55  O4  SGN C   4     150.697  37.621  45.4560  0.00  0.00     0.000 O
BRANCH 55 59
ATOM     56  C1  SGN C   4     147.327  35.335  44.4940  0.00  0.00     0.000 C
ATOM     57  C2  SGN C   4     148.317  34.714  45.4950  0.00  0.00     0.000 C
ATOM     58  C3  SGN C   4     149.261  35.776  46.0530  0.00  0.00     0.000 C
ATOM     59  C4  SGN C   4     149.904  36.571  44.9220  0.00  0.00     0.000 C
ATOM     60  C5  SGN C   4     148.800  37.149  44.0390  0.00  0.00     0.000 C
ATOM     61  O5  SGN C   4     148.035  36.054  43.4960  0.00  0.00     0.000 O
ATOM     62   O  SGN C   4     150.254  35.154  46.8570  0.00  0.00     0.000 O
ATOM     64  HD  SGN C   4     149.568  34.628  46.9140  0.00  0.00     0.000 HD
BRANCH 57 66
ATOM     64   N  SGN C   4     147.192  33.953  46.0630  0.00  0.00     0.000 N
ATOM     66  HD  SGN C   4     146.782  33.212  45.8800  0.00  0.00     0.000 HD
ATOM     66   S  SGN C   4     147.369  32.417  46.4580  0.00  0.00     0.000 S
ATOM     67   O  SGN C   4     146.111  31.948  46.9140  0.00  0.00     0.000 OA
ATOM     68   O  SGN C   4     147.999  31.773  45.3570  0.00  0.00     0.000 OA
ATOM     69   O  SGN C   4     148.372  32.456  47.6560  0.00  0.00     0.000 OA
ENDBRANCH 57 66
BRANCH 60 70
ATOM     70   C  SGN C   4     149.315  37.972  42.8780  0.00  0.00     0.000 C
ATOM     71   O  SGN C   4     148.776  41.645  42.3040  0.00  0.00     0.000 OA
ATOM     72   O  SGN C   4     150.757  40.564  43.1730  0.00  0.00     0.000 OA
ATOM     73   O  SGN C   4     148.731  39.289  42.8960  0.00  0.00     0.000 O
ATOM     74   S  SGN C   4     149.619  40.471  42.2870  0.00  0.00     0.000 S
ATOM     75   O  SGN C   4     149.962  40.026  40.9510  0.00  0.00     0.000 OA
ENDBRANCH 60 70
BRANCH 56 76
ATOM     76  O4  IDS C   5     146.085  35.848  44.5610  0.00  0.00     0.000 O
BRANCH 76 80
ATOM     77  C1  IDS C   5     142.169  36.924  44.9660  0.00  0.00     0.000 C
ATOM     78  C2  IDS C   5     142.403  35.419  44.8410  0.00  0.00     0.000 C
ATOM     79  C3  IDS C   5     143.855  35.098  45.1370  0.00  0.00     0.000 C
ATOM     80  C4  IDS C   5     144.745  35.719  44.0640  0.00  0.00     0.000 C
ATOM     81  C5  IDS C   5     144.184  37.094  43.6720  0.00  0.00     0.000 C
ATOM     82  O5  IDS C   5     143.386  37.632  44.7310  0.00  0.00     0.000 O
BRANCH 78 83
ATOM     83   O  IDS C   5     141.554  34.675  45.8000  0.00  0.00     0.000 O
ATOM     84   S  IDS C   5     140.375  33.746  45.2600  0.00  0.00     0.000 S
ATOM     85   O  IDS C   5     139.644  34.545  44.3130  0.00  0.00     0.000 OA
ATOM     86   O  IDS C   5     141.033  32.611  44.6580  0.00  0.00     0.000 OA
ATOM     87   O  IDS C   5     139.598  33.387  46.4220  0.00  0.00     0.000 OA
ENDBRANCH 78 83
BRANCH 81 88
ATOM     88   C  IDS C   5     145.250  38.121  43.3360  0.00  0.00     0.000 C
ATOM     89   O  IDS C   5     145.722  38.154  42.2310  0.00  0.00     0.000 OA
ATOM     90   O  IDS C   5     145.618  38.901  44.1830  0.00  0.00     0.000 OA
ENDBRANCH 81 88
ENDBRANCH 76 80
ENDBRANCH 56 76
ENDBRANCH 55 59
ENDBRANCH 39 55
ENDBRANCH 38 42
ENDBRANCH 18 38
ENDBRANCH 17 21
ENDBRANCH 1 17
TORSDOF 18
ENDMDL
MODEL 55
REMARK VINA RESULT:      -7.1      4.389      8.376
ROOT
ATOM      1  C1  IDS C   1     145.131  21.147  59.2810  0.00  0.00     0.000 C
ATOM      2  C2  IDS C   1     146.431  20.341  59.3380  0.00  0.00     0.000 C
ATOM      3  C3  IDS C   1     146.724  19.887  60.7600  0.00  0.00     0.000 C
ATOM      4  C4  IDS C   1     146.834  21.084  61.6940  0.00  0.00     0.000 C
ATOM      5  C5  IDS C   1     145.787  22.131  61.3290  0.00  0.00     0.000 C
ATOM      6  O5  IDS C   1     144.725  21.526  60.5900  0.00  0.00     0.000 O
ATOM      7   O  IDS C   1     147.943  19.131  60.7870  0.00  0.00     0.000 O
ATOM      9  HD  IDS C   1     147.989  18.662  60.0600  0.00  0.00     0.000 HD
ENDROOT
BRANCH 2 9
ATOM      9   O  IDS C   1     146.337  19.129  58.4930  0.00  0.00     0.000 O
ATOM     10   S  IDS C   1     147.375  18.923  57.2990  0.00  0.00     0.000 S
ATOM     11   O  IDS C   1     147.030  17.660  56.6870  0.00  0.00     0.000 OA
ATOM     12   O  IDS C   1     147.178  20.052  56.4130  0.00  0.00     0.000 OA
ATOM     13   O  IDS C   1     148.685  18.911  57.9130  0.00  0.00     0.000 OA
ENDBRANCH 2 9
BRANCH 5 14
ATOM     14   C  IDS C   1     145.196  22.804  62.5570  0.00  0.00     0.000 C
ATOM     15   O  IDS C   1     144.523  23.797  62.4230  0.00  0.00     0.000 OA
ATOM     16   O  IDS C   1     145.409  22.338  63.6630  0.00  0.00     0.000 OA
ENDBRANCH 5 14
BRANCH 1 17
ATOM     17  O4  SGN C   2     144.217  20.987  58.3200  0.00  0.00     0.000 O
BRANCH 17 21
ATOM     18  C1  SGN C   2     140.749  19.216  56.7820  0.00  0.00     0.000 C
ATOM     19  C2  SGN C   2     141.160  18.802  58.2000  0.00  0.00     0.000 C
ATOM     20  C3  SGN C   2     142.160  19.817  58.7680  0.00  0.00     0.000 C
ATOM     21  C4  SGN C   2     143.332  19.994  57.8090  0.00  0.00     0.000 C
ATOM     22  C5  SGN C   2     142.798  20.408  56.4410  0.00  0.00     0.000 C
ATOM     23  O5  SGN C   2     141.876  19.406  55.9520  0.00  0.00     0.000 O
ATOM     24   O  SGN C   2     142.608  19.391  60.0440  0.00  0.00     0.000 O
ATOM     26  HD  SGN C   2     142.331  19.955  59.4480  0.00  0.00     0.000 HD
BRANCH 19 28
ATOM     26   N  SGN C   2     139.904  18.528  58.9110  0.00  0.00     0.000 N
ATOM     28  HD  SGN C   2     139.644  18.795  58.1300  0.00  0.00     0.000 HD
ATOM     28   O  SGN C   2     138.652  17.174  60.5910  0.00  0.00     0.000 OA
ATOM     29   S  SGN C   2     139.404  17.032  59.2250  0.00  0.00     0.000 S
ATOM     30   O  SGN C   2     138.468  16.679  58.2280  0.00  0.00     0.000 OA
ATOM     31   O  SGN C   2     140.557  16.224  59.4240  0.00  0.00     0.000 OA
ENDBRANCH 19 28
BRANCH 22 32
ATOM     32   C  SGN C   2     143.877  20.553  55.3970  0.00  0.00     0.000 C
ATOM     33   S  SGN C   2     144.713  19.329  53.2890  0.00  0.00     0.000 S
ATOM     34   O  SGN C   2     145.368  18.303  54.0610  0.00  0.00     0.000 OA
ATOM     35   O  SGN C   2     144.070  18.832  52.0900  0.00  0.00     0.000 OA
ATOM     36   O  SGN C   2     145.522  20.503  53.0630  0.00  0.00     0.000 OA
ATOM     37   O  SGN C   2     143.514  19.818  54.2220  0.00  0.00     0.000 O
ENDBRANCH 22 32
BRANCH 18 38
ATOM     38  O4  IDS C   3     139.885  20.148  56.3720  0.00  0.00     0.000 O
BRANCH 38 42
ATOM     39  C1  IDS C   3     137.176  22.215  55.6530  0.00  0.00     0.000 C
ATOM     40  C2  IDS C   3     137.973  21.534  54.5290  0.00  0.00     0.000 C
ATOM     41  C3  IDS C   3     139.471  21.805  54.6700  0.00  0.00     0.000 C
ATOM     42  C4  IDS C   3     139.944  21.551  56.0950  0.00  0.00     0.000 C
ATOM     43  C5  IDS C   3     139.056  22.317  57.0820  0.00  0.00     0.000 C
ATOM     44  O5  IDS C   3     137.705  21.886  56.9260  0.00  0.00     0.000 O
ATOM     45   O  IDS C   3     139.743  23.159  54.3060  0.00  0.00     0.000 O
ATOM     47  HD  IDS C   3     139.449  23.933  54.5620  0.00  0.00     0.000 HD
BRANCH 40 47
ATOM     47   O  IDS C   3     137.781  20.065  54.5710  0.00  0.00     0.000 O
ATOM     48   S  IDS C   3     136.324  19.446  54.3430  0.00  0.00     0.000 S
ATOM     49   O  IDS C   3     135.608  19.649  55.5840  0.00  0.00     0.000 OA
ATOM     50   O  IDS C   3     136.546  18.046  54.0550  0.00  0.00     0.000 OA
ATOM     51   O  IDS C   3     135.744  20.166  53.2410  0.00  0.00     0.000 OA
ENDBRANCH 40 47
BRANCH 43 52
ATOM     52   C  IDS C   3     139.485  22.134  58.5210  0.00  0.00     0.000 C
ATOM     53   O  IDS C   3     140.434  22.749  58.9490  0.00  0.00     0.000 OA
ATOM     54   O  IDS C   3     138.878  21.376  59.2330  0.00  0.00     0.000 OA
ENDBRANCH 43 52
BRANCH 39 55
ATOM     55  O4  SGN C   4     136.694  23.455  55.5690  0.00  0.00     0.000 O
BRANCH 55 59
ATOM     56  C1  SGN C   4     134.143  24.059  52.3090  0.00  0.00     0.000 C
ATOM     57  C2  SGN C   4     135.348  25.008  52.4240  0.00  0.00     0.000 C
ATOM     58  C3  SGN C   4     136.387  24.449  53.3920  0.00  0.00     0.000 C
ATOM     59  C4  SGN C   4     135.738  24.070  54.7180  0.00  0.00     0.000 C
ATOM     60  C5  SGN C   4     134.587  23.104  54.4430  0.00  0.00     0.000 C
ATOM     61  O5  SGN C   4     133.628  23.771  53.5990  0.00  0.00     0.000 O
ATOM     62   O  SGN C   4     137.415  25.409  53.5930  0.00  0.00     0.000 O
ATOM     64  HD  SGN C   4     137.116  25.575  52.7980  0.00  0.00     0.000 HD
BRANCH 57 66
ATOM     64   N  SGN C   4     135.937  26.190  51.7740  0.00  0.00     0.000 N
ATOM     66  HD  SGN C   4     136.344  26.355  51.0270  0.00  0.00     0.000 HD
ATOM     66   S  SGN C   4     135.499  26.606  50.2970  0.00  0.00     0.000 S
ATOM     67   O  SGN C   4     136.275  27.733  49.9250  0.00  0.00     0.000 OA
ATOM     68   O  SGN C   4     135.548  25.429  49.5000  0.00  0.00     0.000 OA
ATOM     69   O  SGN C   4     134.006  27.037  50.4610  0.00  0.00     0.000 OA
ENDBRANCH 57 66
BRANCH 60 70
ATOM     70   C  SGN C   4     133.865  22.644  55.6900  0.00  0.00     0.000 C
ATOM     71   O  SGN C   4     131.992  24.794  58.1350  0.00  0.00     0.000 OA
ATOM     72   O  SGN C   4     131.068  23.406  56.3830  0.00  0.00     0.000 OA
ATOM     73   O  SGN C   4     133.447  23.775  56.4780  0.00  0.00     0.000 O
ATOM     74   S  SGN C   4     132.123  23.585  57.3550  0.00  0.00     0.000 S
ATOM     75   O  SGN C   4     132.376  22.405  58.1570  0.00  0.00     0.000 OA
ENDBRANCH 60 70
BRANCH 56 76
ATOM     76  O4  IDS C   5     133.789  23.048  51.4940  0.00  0.00     0.000 O
BRANCH 76 80
ATOM     77  C1  IDS C   5     132.379  23.376  47.6780  0.00  0.00     0.000 C
ATOM     78  C2  IDS C   5     131.309  23.498  48.7620  0.00  0.00     0.000 C
ATOM     79  C3  IDS C   5     131.961  23.803  50.0960  0.00  0.00     0.000 C
ATOM     80  C4  IDS C   5     132.817  22.617  50.5300  0.00  0.00     0.000 C
ATOM     81  C5  IDS C   5     133.513  22.016  49.3000  0.00  0.00     0.000 C
ATOM     82  O5  IDS C   5     133.625  22.991  48.2590  0.00  0.00     0.000 O
BRANCH 78 83
ATOM     83   O  IDS C   5     130.362  24.592  48.4420  0.00  0.00     0.000 O
ATOM     84   S  IDS C   5     128.792  24.306  48.4390  0.00  0.00     0.000 S
ATOM     85   O  IDS C   5     128.610  23.112  47.6580  0.00  0.00     0.000 OA
ATOM     86   O  IDS C   5     128.436  24.136  49.8280  0.00  0.00     0.000 OA
ATOM     87   O  IDS C   5     128.184  25.473  47.8480  0.00  0.00     0.000 OA
ENDBRANCH 78 83
BRANCH 81 88
ATOM     88   C  IDS C   5     134.906  21.483  49.5800  0.00  0.00     0.000 C
ATOM     89   O  IDS C   5     135.867  22.166  49.3460  0.00  0.00     0.000 OA
ATOM     90   O  IDS C   5     135.041  20.371  50.0380  0.00  0.00     0.000 OA
ENDBRANCH 81 88
ENDBRANCH 76 80
ENDBRANCH 56 76
ENDBRANCH 55 59
ENDBRANCH 39 55
ENDBRANCH 38 42
ENDBRANCH 18 38
ENDBRANCH 17 21
ENDBRANCH 1 17
TORSDOF 18
ENDMDL
MODEL 56
REMARK VINA RESULT:      -7.1      4.982     13.755
ROOT
ATOM      1  C1  IDS C   1     135.086  26.981  48.5620  0.00  0.00     0.000 C
ATOM      2  C2  IDS C   1     134.082  27.406  47.4870  0.00  0.00     0.000 C
ATOM      3  C3  IDS C   1     134.760  27.521  46.1290  0.00  0.00     0.000 C
ATOM      4  C4  IDS C   1     135.897  28.532  46.1810  0.00  0.00     0.000 C
ATOM      5  C5  IDS C   1     136.647  28.408  47.5050  0.00  0.00     0.000 C
ATOM      6  O5  IDS C   1     136.416  27.123  48.0810  0.00  0.00     0.000 O
ATOM      7   O  IDS C   1     133.799  27.916  45.1390  0.00  0.00     0.000 O
ATOM      9  HD  IDS C   1     133.045  27.534  45.3250  0.00  0.00     0.000 HD
ENDROOT
BRANCH 2 9
ATOM      9   O  IDS C   1     132.993  26.411  47.3590  0.00  0.00     0.000 O
ATOM     10   S  IDS C   1     131.488  26.854  47.6430  0.00  0.00     0.000 S
ATOM     11   O  IDS C   1     130.679  25.676  47.4220  0.00  0.00     0.000 OA
ATOM     12   O  IDS C   1     131.468  27.302  49.0200  0.00  0.00     0.000 OA
ATOM     13   O  IDS C   1     131.204  27.914  46.7010  0.00  0.00     0.000 OA
ENDBRANCH 2 9
BRANCH 5 14
ATOM     14   C  IDS C   1     138.144  28.598  47.3350  0.00  0.00     0.000 C
ATOM     15   O  IDS C   1     138.675  28.248  46.3090  0.00  0.00     0.000 OA
ATOM     16   O  IDS C   1     138.797  29.100  48.2350  0.00  0.00     0.000 OA
ENDBRANCH 5 14
BRANCH 1 17
ATOM     17  O4  SGN C   2     134.808  26.067  49.4960  0.00  0.00     0.000 O
BRANCH 17 21
ATOM     18  C1  SGN C   2     134.829  22.131  50.9210  0.00  0.00     0.000 C
ATOM     19  C2  SGN C   2     135.459  22.366  49.5420  0.00  0.00     0.000 C
ATOM     20  C3  SGN C   2     135.756  23.858  49.3540  0.00  0.00     0.000 C
ATOM     21  C4  SGN C   2     134.499  24.681  49.6100  0.00  0.00     0.000 C
ATOM     22  C5  SGN C   2     133.972  24.365  51.0070  0.00  0.00     0.000 C
ATOM     23  O5  SGN C   2     133.695  22.950  51.1160  0.00  0.00     0.000 O
ATOM     24   O  SGN C   2     136.258  24.090  48.0490  0.00  0.00     0.000 O
ATOM     26  HD  SGN C   2     136.214  24.178  48.9090  0.00  0.00     0.000 HD
BRANCH 19 28
ATOM     26   N  SGN C   2     136.485  21.319  49.4390  0.00  0.00     0.000 N
ATOM     28  HD  SGN C   2     136.077  21.135  50.1810  0.00  0.00     0.000 HD
ATOM     28   O  SGN C   2     137.867  19.815  48.0070  0.00  0.00     0.000 OA
ATOM     29   S  SGN C   2     136.376  20.110  48.3840  0.00  0.00     0.000 S
ATOM     30   O  SGN C   2     135.854  18.992  49.0710  0.00  0.00     0.000 OA
ATOM     31   O  SGN C   2     135.706  20.603  47.2310  0.00  0.00     0.000 OA
ENDBRANCH 19 28
BRANCH 22 32
ATOM     32   C  SGN C   2     132.689  25.087  51.3400  0.00  0.00     0.000 C
ATOM     33   S  SGN C   2     130.550  24.699  52.7240  0.00  0.00     0.000 S
ATOM     34   O  SGN C   2     129.989  23.813  51.7350  0.00  0.00     0.000 OA
ATOM     35   O  SGN C   2     130.292  24.285  54.0880  0.00  0.00     0.000 OA
ATOM     36   O  SGN C   2     130.277  26.097  52.4860  0.00  0.00     0.000 OA
ATOM     37   O  SGN C   2     132.128  24.543  52.5410  0.00  0.00     0.000 O
ENDBRANCH 22 32
BRANCH 18 38
ATOM     38  O4  IDS C   3     135.396  22.068  52.1280  0.00  0.00     0.000 O
BRANCH 38 42
ATOM     39  C1  IDS C   3     136.669  21.287  55.2730  0.00  0.00     0.000 C
ATOM     40  C2  IDS C   3     135.579  22.358  55.1040  0.00  0.00     0.000 C
ATOM     41  C3  IDS C   3     135.981  23.394  54.0550  0.00  0.00     0.000 C
ATOM     42  C4  IDS C   3     136.486  22.725  52.7840  0.00  0.00     0.000 C
ATOM     43  C5  IDS C   3     137.577  21.705  53.1320  0.00  0.00     0.000 C
ATOM     44  O5  IDS C   3     137.038  20.730  54.0230  0.00  0.00     0.000 O
ATOM     45   O  IDS C   3     137.000  24.240  54.5920  0.00  0.00     0.000 O
ATOM     47  HD  IDS C   3     137.779  24.110  54.9470  0.00  0.00     0.000 HD
BRANCH 40 47
ATOM     47   O  IDS C   3     134.309  21.740  54.6550  0.00  0.00     0.000 O
ATOM     48   S  IDS C   3     132.972  21.964  55.5030  0.00  0.00     0.000 S
ATOM     49   O  IDS C   3     133.077  21.088  56.6500  0.00  0.00     0.000 OA
ATOM     50   O  IDS C   3     131.891  21.589  54.6180  0.00  0.00     0.000 OA
ATOM     51   O  IDS C   3     132.949  23.356  55.8660  0.00  0.00     0.000 OA
ENDBRANCH 40 47
BRANCH 43 52
ATOM     52   C  IDS C   3     138.148  21.018  51.9120  0.00  0.00     0.000 C
ATOM     53   O  IDS C   3     137.944  19.839  51.7330  0.00  0.00     0.000 OA
ATOM     54   O  IDS C   3     138.804  21.649  51.1230  0.00  0.00     0.000 OA
ENDBRANCH 43 52
BRANCH 39 55
ATOM     55  O4  SGN C   4     137.676  21.389  56.1400  0.00  0.00     0.000 O
BRANCH 55 59
ATOM     56  C1  SGN C   4     141.450  20.235  57.5290  0.00  0.00     0.000 C
ATOM     57  C2  SGN C   4     141.393  21.516  56.6790  0.00  0.00     0.000 C
ATOM     58  C3  SGN C   4     139.961  22.034  56.5770  0.00  0.00     0.000 C
ATOM     59  C4  SGN C   4     139.018  20.922  56.1300  0.00  0.00     0.000 C
ATOM     60  C5  SGN C   4     139.165  19.740  57.0860  0.00  0.00     0.000 C
ATOM     61  O5  SGN C   4     140.530  19.279  57.0280  0.00  0.00     0.000 O
ATOM     62   O  SGN C   4     139.913  23.127  55.6700  0.00  0.00     0.000 O
ATOM     64  HD  SGN C   4     140.717  23.147  55.9910  0.00  0.00     0.000 HD
BRANCH 57 66
ATOM     64   N  SGN C   4     142.364  22.444  57.2820  0.00  0.00     0.000 N
ATOM     66  HD  SGN C   4     143.193  22.407  57.5290  0.00  0.00     0.000 HD
ATOM     66   S  SGN C   4     143.779  22.699  56.5900  0.00  0.00     0.000 S
ATOM     67   O  SGN C   4     144.508  23.581  57.4270  0.00  0.00     0.000 OA
ATOM     68   O  SGN C   4     144.324  21.424  56.2750  0.00  0.00     0.000 OA
ATOM     69   O  SGN C   4     143.414  23.430  55.2580  0.00  0.00     0.000 OA
ENDBRANCH 57 66
BRANCH 60 70
ATOM     70   C  SGN C   4     138.268  18.569  56.7510  0.00  0.00     0.000 C
ATOM     71   O  SGN C   4     135.474  17.194  58.8520  0.00  0.00     0.000 OA
ATOM     72   O  SGN C   4     135.293  18.636  56.9190  0.00  0.00     0.000 OA
ATOM     73   O  SGN C   4     137.458  18.212  57.8870  0.00  0.00     0.000 O
ATOM     74   S  SGN C   4     136.026  17.575  57.5720  0.00  0.00     0.000 S
ATOM     75   O  SGN C   4     136.304  16.448  56.7040  0.00  0.00     0.000 OA
ENDBRANCH 60 70
BRANCH 56 76
ATOM     76  O4  IDS C   5     141.667  19.950  58.8260  0.00  0.00     0.000 O
BRANCH 76 80
ATOM     77  C1  IDS C   5     144.171  22.565  60.7120  0.00  0.00     0.000 C
ATOM     78  C2  IDS C   5     144.756  21.169  60.4970  0.00  0.00     0.000 C
ATOM     79  C3  IDS C   5     143.961  20.436  59.4350  0.00  0.00     0.000 C
ATOM     80  C4  IDS C   5     142.542  20.188  59.9390  0.00  0.00     0.000 C
ATOM     81  C5  IDS C   5     142.068  21.406  60.7440  0.00  0.00     0.000 C
ATOM     82  O5  IDS C   5     142.789  22.578  60.3530  0.00  0.00     0.000 O
BRANCH 78 83
ATOM     83   O  IDS C   5     146.166  21.256  60.0500  0.00  0.00     0.000 O
ATOM     84   S  IDS C   5     147.343  20.906  61.0680  0.00  0.00     0.000 S
ATOM     85   O  IDS C   5     147.055  21.637  62.2720  0.00  0.00     0.000 OA
ATOM     86   O  IDS C   5     147.279  19.474  61.2430  0.00  0.00     0.000 OA
ATOM     87   O  IDS C   5     148.560  21.333  60.4200  0.00  0.00     0.000 OA
ENDBRANCH 78 83
BRANCH 81 88
ATOM     88   C  IDS C   5     140.588  21.707  60.5910  0.00  0.00     0.000 C
ATOM     89   O  IDS C   5     139.778  21.038  61.1740  0.00  0.00     0.000 OA
ATOM     90   O  IDS C   5     140.234  22.622  59.8830  0.00  0.00     0.000 OA
ENDBRANCH 81 88
ENDBRANCH 76 80
ENDBRANCH 56 76
ENDBRANCH 55 59
ENDBRANCH 39 55
ENDBRANCH 38 42
ENDBRANCH 18 38
ENDBRANCH 17 21
ENDBRANCH 1 17
TORSDOF 18
ENDMDL
MODEL 57
REMARK VINA RESULT:      -7.1     11.077     17.694
ROOT
ATOM      1  C1  IDS C   1     159.783  18.193  42.6430  0.00  0.00     0.000 C
ATOM      2  C2  IDS C   1     160.049  17.492  41.3080  0.00  0.00     0.000 C
ATOM      3  C3  IDS C   1     161.442  17.821  40.7920  0.00  0.00     0.000 C
ATOM      4  C4  IDS C   1     161.606  19.324  40.6120  0.00  0.00     0.000 C
ATOM      5  C5  IDS C   1     160.918  20.067  41.7530  0.00  0.00     0.000 C
ATOM      6  O5  IDS C   1     160.759  19.201  42.8770  0.00  0.00     0.000 O
ATOM      7   O  IDS C   1     161.669  17.150  39.5450  0.00  0.00     0.000 O
ATOM      9  HD  IDS C   1     161.286  16.374  39.5800  0.00  0.00     0.000 HD
ENDROOT
BRANCH 2 9
ATOM      9   O  IDS C   1     159.966  16.021  41.4600  0.00  0.00     0.000 O
ATOM     10   S  IDS C   1     158.829  15.217  40.6820  0.00  0.00     0.000 S
ATOM     11   O  IDS C   1     159.025  13.825  41.0240  0.00  0.00     0.000 OA
ATOM     12   O  IDS C   1     157.573  15.747  41.1710  0.00  0.00     0.000 OA
ATOM     13   O  IDS C   1     159.046  15.486  39.2770  0.00  0.00     0.000 OA
ENDBRANCH 2 9
BRANCH 5 14
ATOM     14   C  IDS C   1     161.703  21.290  42.1950  0.00  0.00     0.000 C
ATOM     15   O  IDS C   1     162.892  21.338  41.9950  0.00  0.00     0.000 OA
ATOM     16   O  IDS C   1     161.126  22.211  42.7500  0.00  0.00     0.000 OA
ENDBRANCH 5 14
BRANCH 1 17
ATOM     17  O4  SGN C   2     159.187  17.591  43.6760  0.00  0.00     0.000 O
BRANCH 17 21
ATOM     18  C1  SGN C   2     159.482  15.444  47.2570  0.00  0.00     0.000 C
ATOM     19  C2  SGN C   2     160.788  15.682  46.4900  0.00  0.00     0.000 C
ATOM     20  C3  SGN C   2     160.592  16.808  45.4680  0.00  0.00     0.000 C
ATOM     21  C4  SGN C   2     159.395  16.505  44.5750  0.00  0.00     0.000 C
ATOM     22  C5  SGN C   2     158.162  16.293  45.4490  0.00  0.00     0.000 C
ATOM     23  O5  SGN C   2     158.401  15.211  46.3780  0.00  0.00     0.000 O
ATOM     24   O  SGN C   2     161.771  16.971  44.6980  0.00  0.00     0.000 O
ATOM     26  HD  SGN C   2     161.079  17.224  45.1510  0.00  0.00     0.000 HD
BRANCH 19 28
ATOM     26   N  SGN C   2     161.792  15.413  47.5290  0.00  0.00     0.000 N
ATOM     28  HD  SGN C   2     161.168  14.834  47.6900  0.00  0.00     0.000 HD
ATOM     28   O  SGN C   2     164.187  15.356  48.2220  0.00  0.00     0.000 OA
ATOM     29   S  SGN C   2     163.196  14.700  47.2030  0.00  0.00     0.000 S
ATOM     30   O  SGN C   2     163.062  13.331  47.5210  0.00  0.00     0.000 OA
ATOM     31   O  SGN C   2     163.579  15.082  45.8880  0.00  0.00     0.000 OA
ENDBRANCH 19 28
BRANCH 22 32
ATOM     32   C  SGN C   2     156.927  15.928  44.6630  0.00  0.00     0.000 C
ATOM     33   S  SGN C   2     154.374  15.821  45.0040  0.00  0.00     0.000 S
ATOM     34   O  SGN C   2     154.457  14.596  45.7590  0.00  0.00     0.000 OA
ATOM     35   O  SGN C   2     153.384  16.750  45.5090  0.00  0.00     0.000 OA
ATOM     36   O  SGN C   2     154.304  15.628  43.5750  0.00  0.00     0.000 OA
ATOM     37   O  SGN C   2     155.777  16.538  45.2620  0.00  0.00     0.000 O
ENDBRANCH 22 32
BRANCH 18 38
ATOM     38  O4  IDS C   3     158.937  16.129  48.2650  0.00  0.00     0.000 O
BRANCH 38 42
ATOM     39  C1  IDS C   3     157.625  17.355  51.2490  0.00  0.00     0.000 C
ATOM     40  C2  IDS C   3     156.764  17.275  49.9790  0.00  0.00     0.000 C
ATOM     41  C3  IDS C   3     157.455  17.955  48.7980  0.00  0.00     0.000 C
ATOM     42  C4  IDS C   3     158.903  17.501  48.6720  0.00  0.00     0.000 C
ATOM     43  C5  IDS C   3     159.618  17.666  50.0190  0.00  0.00     0.000 C
ATOM     44  O5  IDS C   3     158.941  16.888  51.0040  0.00  0.00     0.000 O
ATOM     45   O  IDS C   3     157.408  19.372  48.9740  0.00  0.00     0.000 O
ATOM     47  HD  IDS C   3     157.654  19.920  49.5990  0.00  0.00     0.000 HD
BRANCH 40 47
ATOM     47   O  IDS C   3     156.524  15.862  49.6000  0.00  0.00     0.000 O
ATOM     48   S  IDS C   3     155.305  15.059  50.2530  0.00  0.00     0.000 S
ATOM     49   O  IDS C   3     155.734  14.704  51.5890  0.00  0.00     0.000 OA
ATOM     50   O  IDS C   3     155.116  13.901  49.4080  0.00  0.00     0.000 OA
ATOM     51   O  IDS C   3     154.179  15.954  50.2480  0.00  0.00     0.000 OA
ENDBRANCH 40 47
BRANCH 43 52
ATOM     52   C  IDS C   3     161.074  17.259  49.9620  0.00  0.00     0.000 C
ATOM     53   O  IDS C   3     161.875  17.963  49.3910  0.00  0.00     0.000 OA
ATOM     54   O  IDS C   3     161.429  16.235  50.4890  0.00  0.00     0.000 OA
ENDBRANCH 43 52
BRANCH 39 55
ATOM     55  O4  SGN C   4     157.559  18.357  52.1250  0.00  0.00     0.000 O
BRANCH 55 59
ATOM     56  C1  SGN C   4     155.911  17.508  55.8760  0.00  0.00     0.000 C
ATOM     57  C2  SGN C   4     154.917  17.734  54.7230  0.00  0.00     0.000 C
ATOM     58  C3  SGN C   4     155.622  17.638  53.3730  0.00  0.00     0.000 C
ATOM     59  C4  SGN C   4     156.854  18.536  53.3460  0.00  0.00     0.000 C
ATOM     60  C5  SGN C   4     157.754  18.170  54.5240  0.00  0.00     0.000 C
ATOM     61  O5  SGN C   4     157.015  18.387  55.7430  0.00  0.00     0.000 O
ATOM     62   O  SGN C   4     154.718  17.997  52.3370  0.00  0.00     0.000 O
ATOM     64  HD  SGN C   4     154.213  17.679  52.9650  0.00  0.00     0.000 HD
BRANCH 57 66
ATOM     64   N  SGN C   4     153.999  17.111  55.6910  0.00  0.00     0.000 N
ATOM     66  HD  SGN C   4     153.343  17.376  56.1900  0.00  0.00     0.000 HD
ATOM     66   S  SGN C   4     152.419  17.260  55.5220  0.00  0.00     0.000 S
ATOM     67   O  SGN C   4     151.811  16.613  56.6280  0.00  0.00     0.000 OA
ATOM     68   O  SGN C   4     152.154  18.637  55.2860  0.00  0.00     0.000 OA
ATOM     69   O  SGN C   4     152.108  16.459  54.2180  0.00  0.00     0.000 OA
ENDBRANCH 57 66
BRANCH 60 70
ATOM     70   C  SGN C   4     159.024  18.990  54.6010  0.00  0.00     0.000 C
ATOM     71   O  SGN C   4     160.911  20.500  51.7260  0.00  0.00     0.000 OA
ATOM     72   O  SGN C   4     159.403  21.619  53.2500  0.00  0.00     0.000 OA
ATOM     73   O  SGN C   4     159.560  19.215  53.2830  0.00  0.00     0.000 O
ATOM     74   S  SGN C   4     160.381  20.570  53.0690  0.00  0.00     0.000 S
ATOM     75   O  SGN C   4     161.404  20.551  54.0950  0.00  0.00     0.000 OA
ENDBRANCH 60 70
BRANCH 56 76
ATOM     76  O4  IDS C   5     156.318  16.450  56.6010  0.00  0.00     0.000 O
BRANCH 76 80
ATOM     77  C1  IDS C   5     157.741  13.253  58.7020  0.00  0.00     0.000 C
ATOM     78  C2  IDS C   5     158.816  14.230  58.2270  0.00  0.00     0.000 C
ATOM     79  C3  IDS C   5     158.181  15.558  57.8650  0.00  0.00     0.000 C
ATOM     80  C4  IDS C   5     157.266  15.374  56.6580  0.00  0.00     0.000 C
ATOM     81  C5  IDS C   5     156.541  14.025  56.7710  0.00  0.00     0.000 C
ATOM     82  O5  IDS C   5     156.478  13.601  58.1350  0.00  0.00     0.000 O
BRANCH 78 83
ATOM     83   O  IDS C   5     159.817  14.466  59.2940  0.00  0.00     0.000 O
ATOM     84   S  IDS C   5     161.325  13.986  59.0870  0.00  0.00     0.000 S
ATOM     85   O  IDS C   5     161.247  12.623  58.6330  0.00  0.00     0.000 OA
ATOM     86   O  IDS C   5     161.875  14.883  58.0990  0.00  0.00     0.000 OA
ATOM     87   O  IDS C   5     161.958  14.122  60.3760  0.00  0.00     0.000 OA
ENDBRANCH 78 83
BRANCH 81 88
ATOM     88   C  IDS C   5     155.123  14.042  56.2300  0.00  0.00     0.000 C
ATOM     89   O  IDS C   5     154.194  14.114  56.9900  0.00  0.00     0.000 OA
ATOM     90   O  IDS C   5     154.936  13.983  55.0370  0.00  0.00     0.000 OA
ENDBRANCH 81 88
ENDBRANCH 76 80
ENDBRANCH 56 76
ENDBRANCH 55 59
ENDBRANCH 39 55
ENDBRANCH 38 42
ENDBRANCH 18 38
ENDBRANCH 17 21
ENDBRANCH 1 17
TORSDOF 18
ENDMDL
MODEL 58
REMARK VINA RESULT:      -7.1     12.877     19.365
ROOT
ATOM      1  C1  IDS C   1     137.789  35.616  40.7750  0.00  0.00     0.000 C
ATOM      2  C2  IDS C   1     138.793  36.300  39.8420  0.00  0.00     0.000 C
ATOM      3  C3  IDS C   1     138.685  37.814  39.9490  0.00  0.00     0.000 C
ATOM      4  C4  IDS C   1     137.278  38.278  39.5990  0.00  0.00     0.000 C
ATOM      5  C5  IDS C   1     136.249  37.305  40.1670  0.00  0.00     0.000 C
ATOM      6  O5  IDS C   1     136.823  36.553  41.2360  0.00  0.00     0.000 O
ATOM      7   O  IDS C   1     139.637  38.431  39.0700  0.00  0.00     0.000 O
ATOM      9  HD  IDS C   1     140.356  37.950  39.0670  0.00  0.00     0.000 HD
ENDROOT
BRANCH 2 9
ATOM      9   O  IDS C   1     140.181  35.926  40.1960  0.00  0.00     0.000 O
ATOM     10   S  IDS C   1     141.097  35.201  39.1110  0.00  0.00     0.000 S
ATOM     11   O  IDS C   1     142.376  34.986  39.7520  0.00  0.00     0.000 OA
ATOM     12   O  IDS C   1     140.414  33.965  38.7870  0.00  0.00     0.000 OA
ATOM     13   O  IDS C   1     141.178  36.111  37.9900  0.00  0.00     0.000 OA
ENDBRANCH 2 9
BRANCH 5 14
ATOM     14   C  IDS C   1     135.013  38.017  40.6890  0.00  0.00     0.000 C
ATOM     15   O  IDS C   1     134.031  37.374  40.9680  0.00  0.00     0.000 OA
ATOM     16   O  IDS C   1     135.023  39.230  40.8190  0.00  0.00     0.000 OA
ENDBRANCH 5 14
BRANCH 1 17
ATOM     17  O4  SGN C   2     138.098  34.554  41.5230  0.00  0.00     0.000 O
BRANCH 17 21
ATOM     18  C1  SGN C   2     139.666  32.750  44.9610  0.00  0.00     0.000 C
ATOM     19  C2  SGN C   2     139.593  34.282  44.9610  0.00  0.00     0.000 C
ATOM     20  C3  SGN C   2     138.635  34.757  43.8620  0.00  0.00     0.000 C
ATOM     21  C4  SGN C   2     139.036  34.156  42.5200  0.00  0.00     0.000 C
ATOM     22  C5  SGN C   2     139.069  32.636  42.6450  0.00  0.00     0.000 C
ATOM     23  O5  SGN C   2     139.999  32.250  43.6830  0.00  0.00     0.000 O
ATOM     24   O  SGN C   2     138.632  36.174  43.8040  0.00  0.00     0.000 O
ATOM     26  HD  SGN C   2     138.289  35.379  43.7980  0.00  0.00     0.000 HD
BRANCH 19 28
ATOM     26   N  SGN C   2     139.743  34.584  46.3920  0.00  0.00     0.000 N
ATOM     28  HD  SGN C   2     140.287  33.922  46.2620  0.00  0.00     0.000 HD
ATOM     28   O  SGN C   2     139.750  36.268  48.2310  0.00  0.00     0.000 OA
ATOM     29   S  SGN C   2     140.515  35.893  46.9170  0.00  0.00     0.000 S
ATOM     30   O  SGN C   2     141.830  35.505  47.2550  0.00  0.00     0.000 OA
ATOM     31   O  SGN C   2     140.310  36.927  45.9630  0.00  0.00     0.000 OA
ENDBRANCH 19 28
BRANCH 22 32
ATOM     32   C  SGN C   2     139.513  31.941  41.3810  0.00  0.00     0.000 C
ATOM     33   S  SGN C   2     138.558  30.317  39.6230  0.00  0.00     0.000 S
ATOM     34   O  SGN C   2     138.701  29.179  40.4960  0.00  0.00     0.000 OA
ATOM     35   O  SGN C   2     137.348  30.290  38.8270  0.00  0.00     0.000 OA
ATOM     36   O  SGN C   2     139.742  30.625  38.8570  0.00  0.00     0.000 OA
ATOM     37   O  SGN C   2     138.366  31.553  40.6160  0.00  0.00     0.000 O
ENDBRANCH 22 32
BRANCH 18 38
ATOM     38  O4  IDS C   3     138.814  31.847  45.4500  0.00  0.00     0.000 O
BRANCH 38 42
ATOM     39  C1  IDS C   3     136.148  29.770  46.2910  0.00  0.00     0.000 C
ATOM     40  C2  IDS C   3     136.084  31.284  46.5460  0.00  0.00     0.000 C
ATOM     41  C3  IDS C   3     137.305  31.766  47.3290  0.00  0.00     0.000 C
ATOM     42  C4  IDS C   3     138.594  31.229  46.7230  0.00  0.00     0.000 C
ATOM     43  C5  IDS C   3     138.496  29.708  46.5560  0.00  0.00     0.000 C
ATOM     44  O5  IDS C   3     137.388  29.402  45.7110  0.00  0.00     0.000 O
ATOM     45   O  IDS C   3     137.195  31.337  48.6880  0.00  0.00     0.000 O
ATOM     47  HD  IDS C   3     137.085  30.573  49.0810  0.00  0.00     0.000 HD
BRANCH 40 47
ATOM     47   O  IDS C   3     136.056  32.027  45.2640  0.00  0.00     0.000 O
ATOM     48   S  IDS C   3     134.705  32.735  44.7840  0.00  0.00     0.000 S
ATOM     49   O  IDS C   3     133.862  31.675  44.2720  0.00  0.00     0.000 OA
ATOM     50   O  IDS C   3     135.108  33.666  43.7530  0.00  0.00     0.000 OA
ATOM     51   O  IDS C   3     134.148  33.379  45.9430  0.00  0.00     0.000 OA
ENDBRANCH 40 47
BRANCH 43 52
ATOM     52   C  IDS C   3     139.756  29.099  45.9830  0.00  0.00     0.000 C
ATOM     53   O  IDS C   3     140.691  28.851  46.7100  0.00  0.00     0.000 OA
ATOM     54   O  IDS C   3     139.822  28.863  44.8040  0.00  0.00     0.000 OA
ENDBRANCH 43 52
BRANCH 39 55
ATOM     55  O4  SGN C   4     135.648  28.858  47.1250  0.00  0.00     0.000 O
BRANCH 55 59
ATOM     56  C1  SGN C   4     134.355  24.998  48.0910  0.00  0.00     0.000 C
ATOM     57  C2  SGN C   4     135.861  25.174  47.8290  0.00  0.00     0.000 C
ATOM     58  C3  SGN C   4     136.252  26.648  47.8830  0.00  0.00     0.000 C
ATOM     59  C4  SGN C   4     135.341  27.478  46.9850  0.00  0.00     0.000 C
ATOM     60  C5  SGN C   4     133.890  27.223  47.3870  0.00  0.00     0.000 C
ATOM     61  O5  SGN C   4     133.611  25.821  47.2080  0.00  0.00     0.000 O
ATOM     62   O  SGN C   4     137.610  26.795  47.4930  0.00  0.00     0.000 O
ATOM     64  HD  SGN C   4     137.567  25.999  47.8300  0.00  0.00     0.000 HD
BRANCH 57 66
ATOM     64   N  SGN C   4     136.681  24.368  48.7490  0.00  0.00     0.000 N
ATOM     66  HD  SGN C   4     136.639  23.574  49.0920  0.00  0.00     0.000 HD
ATOM     66   S  SGN C   4     137.177  22.911  48.3290  0.00  0.00     0.000 S
ATOM     67   O  SGN C   4     137.883  22.368  49.4320  0.00  0.00     0.000 OA
ATOM     68   O  SGN C   4     136.047  22.219  47.8130  0.00  0.00     0.000 OA
ATOM     69   O  SGN C   4     138.175  23.183  47.1570  0.00  0.00     0.000 OA
ENDBRANCH 57 66
BRANCH 60 70
ATOM     70   C  SGN C   4     132.884  28.003  46.5690  0.00  0.00     0.000 C
ATOM     71   O  SGN C   4     129.172  27.447  46.4320  0.00  0.00     0.000 OA
ATOM     72   O  SGN C   4     130.362  29.152  47.6670  0.00  0.00     0.000 OA
ATOM     73   O  SGN C   4     131.592  27.366  46.6160  0.00  0.00     0.000 O
ATOM     74   S  SGN C   4     130.319  28.324  46.4830  0.00  0.00     0.000 S
ATOM     75   O  SGN C   4     130.537  29.062  45.2550  0.00  0.00     0.000 OA
ENDBRANCH 60 70
BRANCH 56 76
ATOM     76  O4  IDS C   5     133.588  24.761  49.1710  0.00  0.00     0.000 O
BRANCH 76 80
ATOM     77  C1  IDS C   5     131.137  24.221  52.3900  0.00  0.00     0.000 C
ATOM     78  C2  IDS C   5     130.525  25.046  51.2580  0.00  0.00     0.000 C
ATOM     79  C3  IDS C   5     131.305  24.821  49.9780  0.00  0.00     0.000 C
ATOM     80  C4  IDS C   5     132.719  25.372  50.1370  0.00  0.00     0.000 C
ATOM     81  C5  IDS C   5     133.218  25.087  51.5620  0.00  0.00     0.000 C
ATOM     82  O5  IDS C   5     132.518  23.974  52.1260  0.00  0.00     0.000 O
BRANCH 78 83
ATOM     83   O  IDS C   5     129.116  24.651  51.0240  0.00  0.00     0.000 O
ATOM     84   S  IDS C   5     127.965  25.755  51.0720  0.00  0.00     0.000 S
ATOM     85   O  IDS C   5     128.182  26.500  52.2830  0.00  0.00     0.000 OA
ATOM     86   O  IDS C   5     128.150  26.545  49.8770  0.00  0.00     0.000 OA
ATOM     87   O  IDS C   5     126.722  25.023  51.0680  0.00  0.00     0.000 OA
ENDBRANCH 78 83
BRANCH 81 88
ATOM     88   C  IDS C   5     134.703  24.785  51.6450  0.00  0.00     0.000 C
ATOM     89   O  IDS C   5     135.098  23.668  51.4450  0.00  0.00     0.000 OA
ATOM     90   O  IDS C   5     135.480  25.672  51.9130  0.00  0.00     0.000 OA
ENDBRANCH 81 88
ENDBRANCH 76 80
ENDBRANCH 56 76
ENDBRANCH 55 59
ENDBRANCH 39 55
ENDBRANCH 38 42
ENDBRANCH 18 38
ENDBRANCH 17 21
ENDBRANCH 1 17
TORSDOF 18
ENDMDL
MODEL 59
REMARK VINA RESULT:      -7.1     21.550     25.717
ROOT
ATOM      1  C1  IDS C   1     143.761  36.085  45.5270  0.00  0.00     0.000 C
ATOM      2  C2  IDS C   1     143.963  34.603  45.2020  0.00  0.00     0.000 C
ATOM      3  C3  IDS C   1     143.039  34.165  44.0750  0.00  0.00     0.000 C
ATOM      4  C4  IDS C   1     141.583  34.402  44.4530  0.00  0.00     0.000 C
ATOM      5  C5  IDS C   1     141.446  35.719  45.2100  0.00  0.00     0.000 C
ATOM      6  O5  IDS C   1     142.563  36.564  44.9300  0.00  0.00     0.000 O
ATOM      7   O  IDS C   1     143.250  32.776  43.7860  0.00  0.00     0.000 O
ATOM      9  HD  IDS C   1     144.094  32.605  43.8770  0.00  0.00     0.000 HD
ENDROOT
BRANCH 2 9
ATOM      9   O  IDS C   1     145.354  34.345  44.7640  0.00  0.00     0.000 O
ATOM     10   S  IDS C   1     146.260  33.325  45.5900  0.00  0.00     0.000 S
ATOM     11   O  IDS C   1     147.534  33.285  44.9080  0.00  0.00     0.000 OA
ATOM     12   O  IDS C   1     146.352  33.880  46.9250  0.00  0.00     0.000 OA
ATOM     13   O  IDS C   1     145.563  32.058  45.5530  0.00  0.00     0.000 OA
ENDBRANCH 2 9
BRANCH 5 14
ATOM     14   C  IDS C   1     140.175  36.464  44.8390  0.00  0.00     0.000 C
ATOM     15   O  IDS C   1     139.135  36.166  45.3750  0.00  0.00     0.000 OA
ATOM     16   O  IDS C   1     140.214  37.351  44.0040  0.00  0.00     0.000 OA
ENDBRANCH 5 14
BRANCH 1 17
ATOM     17  O4  SGN C   2     144.774  36.925  45.7560  0.00  0.00     0.000 O
BRANCH 17 21
ATOM     18  C1  SGN C   2     147.650  39.754  44.6360  0.00  0.00     0.000 C
ATOM     19  C2  SGN C   2     146.567  39.428  43.6000  0.00  0.00     0.000 C
ATOM     20  C3  SGN C   2     145.385  38.732  44.2860  0.00  0.00     0.000 C
ATOM     21  C4  SGN C   2     145.873  37.521  45.0730  0.00  0.00     0.000 C
ATOM     22  C5  SGN C   2     146.938  37.972  46.0690  0.00  0.00     0.000 C
ATOM     23  O5  SGN C   2     148.031  38.604  45.3630  0.00  0.00     0.000 O
ATOM     24   O  SGN C   2     144.421  38.352  43.3170  0.00  0.00     0.000 O
ATOM     26  HD  SGN C   2     144.707  38.670  44.0710  0.00  0.00     0.000 HD
BRANCH 19 28
ATOM     26   N  SGN C   2     146.659  40.591  42.7070  0.00  0.00     0.000 N
ATOM     28  HD  SGN C   2     147.473  40.474  42.9760  0.00  0.00     0.000 HD
ATOM     28   O  SGN C   2     145.848  41.798  40.6800  0.00  0.00     0.000 OA
ATOM     29   S  SGN C   2     146.536  40.458  41.1090  0.00  0.00     0.000 S
ATOM     30   O  SGN C   2     147.847  40.434  40.5820  0.00  0.00     0.000 OA
ATOM     31   O  SGN C   2     145.648  39.383  40.8320  0.00  0.00     0.000 OA
ENDBRANCH 19 28
BRANCH 22 32
ATOM     32   C  SGN C   2     147.533  36.835  46.8640  0.00  0.00     0.000 C
ATOM     33   S  SGN C   2     149.853  36.005  47.6210  0.00  0.00     0.000 S
ATOM     34   O  SGN C   2     150.165  35.475  46.3170  0.00  0.00     0.000 OA
ATOM     35   O  SGN C   2     150.982  36.629  48.2800  0.00  0.00     0.000 OA
ATOM     36   O  SGN C   2     149.125  35.091  48.4690  0.00  0.00     0.000 OA
ATOM     37   O  SGN C   2     148.838  37.202  47.3260  0.00  0.00     0.000 O
ENDBRANCH 22 32
BRANCH 18 38
ATOM     38  O4  IDS C   3     147.716  40.741  45.5330  0.00  0.00     0.000 O
BRANCH 38 42
ATOM     39  C1  IDS C   3     147.052  43.615  47.3840  0.00  0.00     0.000 C
ATOM     40  C2  IDS C   3     146.938  43.616  45.8510  0.00  0.00     0.000 C
ATOM     41  C3  IDS C   3     148.212  43.077  45.2020  0.00  0.00     0.000 C
ATOM     42  C4  IDS C   3     148.654  41.774  45.8530  0.00  0.00     0.000 C
ATOM     43  C5  IDS C   3     148.734  41.955  47.3740  0.00  0.00     0.000 C
ATOM     44  O5  IDS C   3     147.452  42.343  47.8660  0.00  0.00     0.000 O
ATOM     45   O  IDS C   3     149.251  44.051  45.3180  0.00  0.00     0.000 O
ATOM     47  HD  IDS C   3     149.616  44.481  45.9760  0.00  0.00     0.000 HD
BRANCH 40 47
ATOM     47   O  IDS C   3     145.816  42.753  45.4120  0.00  0.00     0.000 O
ATOM     48   S  IDS C   3     144.848  43.243  44.2360  0.00  0.00     0.000 S
ATOM     49   O  IDS C   3     143.960  44.218  44.8330  0.00  0.00     0.000 OA
ATOM     50   O  IDS C   3     144.149  42.055  43.7980  0.00  0.00     0.000 OA
ATOM     51   O  IDS C   3     145.695  43.809  43.2210  0.00  0.00     0.000 OA
ENDBRANCH 40 47
BRANCH 43 52
ATOM     52   C  IDS C   3     149.195  40.704  48.0890  0.00  0.00     0.000 C
ATOM     53   O  IDS C   3     150.347  40.347  47.9980  0.00  0.00     0.000 OA
ATOM     54   O  IDS C   3     148.411  40.070  48.7480  0.00  0.00     0.000 OA
ENDBRANCH 43 52
BRANCH 39 55
ATOM     55  O4  SGN C   4     147.532  44.639  48.0890  0.00  0.00     0.000 O
BRANCH 55 59
ATOM     56  C1  SGN C   4     144.681  47.538  49.0740  0.00  0.00     0.000 C
ATOM     57  C2  SGN C   4     145.517  47.798  47.8100  0.00  0.00     0.000 C
ATOM     58  C3  SGN C   4     146.214  46.520  47.3500  0.00  0.00     0.000 C
ATOM     59  C4  SGN C   4     146.976  45.879  48.5040  0.00  0.00     0.000 C
ATOM     60  C5  SGN C   4     146.010  45.654  49.6650  0.00  0.00     0.000 C
ATOM     61  O5  SGN C   4     145.488  46.934  50.0730  0.00  0.00     0.000 O
ATOM     62   O  SGN C   4     147.093  46.819  46.2730  0.00  0.00     0.000 O
ATOM     64  HD  SGN C   4     146.470  47.418  46.2170  0.00  0.00     0.000 HD
BRANCH 57 66
ATOM     64   N  SGN C   4     145.129  49.217  47.8580  0.00  0.00     0.000 N
ATOM     66  HD  SGN C   4     145.355  49.941  47.4400  0.00  0.00     0.000 HD
ATOM     66   S  SGN C   4     144.653  49.973  46.5360  0.00  0.00     0.000 S
ATOM     67   O  SGN C   4     144.410  51.326  46.8840  0.00  0.00     0.000 OA
ATOM     68   O  SGN C   4     145.602  49.673  45.5200  0.00  0.00     0.000 OA
ATOM     69   O  SGN C   4     143.300  49.278  46.1780  0.00  0.00     0.000 OA
ENDBRANCH 57 66
BRANCH 60 70
ATOM     70   C  SGN C   4     146.649  45.009  50.8760  0.00  0.00     0.000 C
ATOM     71   O  SGN C   4     147.212  41.339  51.4430  0.00  0.00     0.000 OA
ATOM     72   O  SGN C   4     148.835  42.987  50.7380  0.00  0.00     0.000 OA
ATOM     73   O  SGN C   4     146.500  43.577  50.8230  0.00  0.00     0.000 O
ATOM     74   S  SGN C   4     147.651  42.713  51.5210  0.00  0.00     0.000 S
ATOM     75   O  SGN C   4     147.724  43.221  52.8760  0.00  0.00     0.000 OA
ENDBRANCH 60 70
BRANCH 56 76
ATOM     76  O4  IDS C   5     143.402  47.210  49.3310  0.00  0.00     0.000 O
BRANCH 76 80
ATOM     77  C1  IDS C   5     139.576  45.797  49.5020  0.00  0.00     0.000 C
ATOM     78  C2  IDS C   5     140.130  45.960  48.0860  0.00  0.00     0.000 C
ATOM     79  C3  IDS C   5     141.642  46.055  48.1330  0.00  0.00     0.000 C
ATOM     80  C4  IDS C   5     142.052  47.333  48.8590  0.00  0.00     0.000 C
ATOM     81  C5  IDS C   5     141.093  47.580  50.0330  0.00  0.00     0.000 C
ATOM     82  O5  IDS C   5     140.484  46.355  50.4510  0.00  0.00     0.000 O
BRANCH 78 83
ATOM     83   O  IDS C   5     139.759  44.801  47.2410  0.00  0.00     0.000 O
ATOM     84   S  IDS C   5     139.094  45.043  45.8120  0.00  0.00     0.000 S
ATOM     85   O  IDS C   5     138.032  45.989  46.0240  0.00  0.00     0.000 OA
ATOM     86   O  IDS C   5     140.158  45.559  44.9820  0.00  0.00     0.000 OA
ATOM     87   O  IDS C   5     138.626  43.750  45.3750  0.00  0.00     0.000 OA
ENDBRANCH 78 83
BRANCH 81 88
ATOM     88   C  IDS C   5     141.757  48.200  51.2500  0.00  0.00     0.000 C
ATOM     89   O  IDS C   5     142.015  49.374  51.2580  0.00  0.00     0.000 OA
ATOM     90   O  IDS C   5     142.022  47.507  52.2050  0.00  0.00     0.000 OA
ENDBRANCH 81 88
ENDBRANCH 76 80
ENDBRANCH 56 76
ENDBRANCH 55 59
ENDBRANCH 39 55
ENDBRANCH 38 42
ENDBRANCH 18 38
ENDBRANCH 17 21
ENDBRANCH 1 17
TORSDOF 18
ENDMDL
MODEL 60
REMARK VINA RESULT:      -7.1      4.024     11.839
ROOT
ATOM      1  C1  IDS C   1     137.590  22.252  49.0280  0.00  0.00     0.000 C
ATOM      2  C2  IDS C   1     136.529  23.271  48.6020  0.00  0.00     0.000 C
ATOM      3  C3  IDS C   1     136.268  23.186  47.1060  0.00  0.00     0.000 C
ATOM      4  C4  IDS C   1     137.548  23.437  46.3210  0.00  0.00     0.000 C
ATOM      5  C5  IDS C   1     138.730  22.774  47.0230  0.00  0.00     0.000 C
ATOM      6  O5  IDS C   1     138.268  21.737  47.8890  0.00  0.00     0.000 O
ATOM      7   O  IDS C   1     135.269  24.146  46.7330  0.00  0.00     0.000 O
ATOM      9  HD  IDS C   1     134.686  24.195  47.3710  0.00  0.00     0.000 HD
ENDROOT
BRANCH 2 9
ATOM      9   O  IDS C   1     135.246  23.017  49.2950  0.00  0.00     0.000 O
ATOM     10   S  IDS C   1     134.499  24.220  50.0280  0.00  0.00     0.000 S
ATOM     11   O  IDS C   1     133.290  23.656  50.5850  0.00  0.00     0.000 OA
ATOM     12   O  IDS C   1     135.421  24.692  51.0410  0.00  0.00     0.000 OA
ATOM     13   O  IDS C   1     134.238  25.206  49.0020  0.00  0.00     0.000 OA
ENDBRANCH 2 9
BRANCH 5 14
ATOM     14   C  IDS C   1     139.717  22.173  46.0370  0.00  0.00     0.000 C
ATOM     15   O  IDS C   1     139.693  22.525  44.8830  0.00  0.00     0.000 OA
ATOM     16   O  IDS C   1     140.522  21.340  46.4190  0.00  0.00     0.000 OA
ENDBRANCH 5 14
BRANCH 1 17
ATOM     17  O4  SGN C   2     137.483  21.509  50.1330  0.00  0.00     0.000 O
BRANCH 17 21
ATOM     18  C1  SGN C   2     136.235  18.253  52.4500  0.00  0.00     0.000 C
ATOM     19  C2  SGN C   2     136.256  18.047  50.9300  0.00  0.00     0.000 C
ATOM     20  C3  SGN C   2     137.113  19.133  50.2700  0.00  0.00     0.000 C
ATOM     21  C4  SGN C   2     136.635  20.515  50.7020  0.00  0.00     0.000 C
ATOM     22  C5  SGN C   2     136.664  20.598  52.2250  0.00  0.00     0.000 C
ATOM     23  O5  SGN C   2     135.827  19.562  52.7880  0.00  0.00     0.000 O
ATOM     24   O  SGN C   2     137.063  18.997  48.8600  0.00  0.00     0.000 O
ATOM     26  HD  SGN C   2     137.432  19.135  49.6310  0.00  0.00     0.000 HD
BRANCH 19 28
ATOM     26   N  SGN C   2     136.261  16.581  50.8350  0.00  0.00     0.000 N
ATOM     28  HD  SGN C   2     135.802  16.739  51.5520  0.00  0.00     0.000 HD
ATOM     28   O  SGN C   2     136.271  14.532  49.4110  0.00  0.00     0.000 OA
ATOM     29   S  SGN C   2     135.394  15.788  49.7360  0.00  0.00     0.000 S
ATOM     30   O  SGN C   2     134.203  15.359  50.3630  0.00  0.00     0.000 OA
ATOM     31   O  SGN C   2     135.321  16.604  48.5740  0.00  0.00     0.000 OA
ENDBRANCH 19 28
BRANCH 22 32
ATOM     32   C  SGN C   2     136.152  21.912  52.7630  0.00  0.00     0.000 C
ATOM     33   S  SGN C   2     136.096  23.205  54.9910  0.00  0.00     0.000 S
ATOM     34   O  SGN C   2     135.034  22.386  55.5190  0.00  0.00     0.000 OA
ATOM     35   O  SGN C   2     137.097  23.563  55.9750  0.00  0.00     0.000 OA
ATOM     36   O  SGN C   2     135.640  24.324  54.2020  0.00  0.00     0.000 OA
ATOM     37   O  SGN C   2     136.857  22.249  53.9640  0.00  0.00     0.000 O
ENDBRANCH 22 32
BRANCH 18 38
ATOM     38  O4  IDS C   3     137.152  17.951  53.3730  0.00  0.00     0.000 O
BRANCH 38 42
ATOM     39  C1  IDS C   3     139.978  17.234  55.2770  0.00  0.00     0.000 C
ATOM     40  C2  IDS C   3     139.532  16.302  54.1390  0.00  0.00     0.000 C
ATOM     41  C3  IDS C   3     138.061  15.914  54.2870  0.00  0.00     0.000 C
ATOM     42  C4  IDS C   3     137.193  17.136  54.5490  0.00  0.00     0.000 C
ATOM     43  C5  IDS C   3     137.767  17.940  55.7220  0.00  0.00     0.000 C
ATOM     44  O5  IDS C   3     139.100  18.339  55.4060  0.00  0.00     0.000 O
ATOM     45   O  IDS C   3     137.923  14.984  55.3630  0.00  0.00     0.000 O
ATOM     47  HD  IDS C   3     138.140  14.982  56.2020  0.00  0.00     0.000 HD
BRANCH 40 47
ATOM     47   O  IDS C   3     139.685  16.972  52.8260  0.00  0.00     0.000 O
ATOM     48   S  IDS C   3     141.144  17.180  52.2040  0.00  0.00     0.000 S
ATOM     49   O  IDS C   3     141.727  18.293  52.9230  0.00  0.00     0.000 OA
ATOM     50   O  IDS C   3     140.922  17.479  50.8060  0.00  0.00     0.000 OA
ATOM     51   O  IDS C   3     141.855  15.947  52.4130  0.00  0.00     0.000 OA
ENDBRANCH 40 47
BRANCH 43 52
ATOM     52   C  IDS C   3     136.938  19.159  56.0600  0.00  0.00     0.000 C
ATOM     53   O  IDS C   3     137.484  20.201  56.3410  0.00  0.00     0.000 OA
ATOM     54   O  IDS C   3     135.735  19.085  56.0460  0.00  0.00     0.000 OA
ENDBRANCH 43 52
BRANCH 39 55
ATOM     55  O4  SGN C   4     140.479  16.801  56.4330  0.00  0.00     0.000 O
BRANCH 55 59
ATOM     56  C1  SGN C   4     143.644  18.964  58.1080  0.00  0.00     0.000 C
ATOM     57  C2  SGN C   4     143.993  18.034  56.9340  0.00  0.00     0.000 C
ATOM     58  C3  SGN C   4     142.734  17.623  56.1760  0.00  0.00     0.000 C
ATOM     59  C4  SGN C   4     141.682  17.080  57.1360  0.00  0.00     0.000 C
ATOM     60  C5  SGN C   4     141.420  18.125  58.2200  0.00  0.00     0.000 C
ATOM     61  O5  SGN C   4     142.654  18.362  58.9260  0.00  0.00     0.000 O
ATOM     62   O  SGN C   4     143.065  16.651  55.1940  0.00  0.00     0.000 O
ATOM     64  HD  SGN C   4     143.787  17.119  55.2870  0.00  0.00     0.000 HD
BRANCH 57 66
ATOM     64   N  SGN C   4     145.309  18.644  57.1810  0.00  0.00     0.000 N
ATOM     66  HD  SGN C   4     146.121  18.360  57.2860  0.00  0.00     0.000 HD
ATOM     66   S  SGN C   4     146.545  18.324  56.2230  0.00  0.00     0.000 S
ATOM     67   O  SGN C   4     147.675  19.001  56.7470  0.00  0.00     0.000 OA
ATOM     68   O  SGN C   4     146.590  16.912  56.0600  0.00  0.00     0.000 OA
ATOM     69   O  SGN C   4     146.137  18.973  54.8620  0.00  0.00     0.000 OA
ENDBRANCH 57 66
BRANCH 60 70
ATOM     70   C  SGN C   4     140.380  17.704  59.2360  0.00  0.00     0.000 C
ATOM     71   O  SGN C   4     136.781  18.772  59.3540  0.00  0.00     0.000 OA
ATOM     72   O  SGN C   4     137.672  16.679  58.5330  0.00  0.00     0.000 OA
ATOM     73   O  SGN C   4     139.177  18.480  59.0770  0.00  0.00     0.000 O
ATOM     74   S  SGN C   4     137.806  17.762  59.4810  0.00  0.00     0.000 S
ATOM     75   O  SGN C   4     138.011  17.314  60.8440  0.00  0.00     0.000 OA
ENDBRANCH 60 70
BRANCH 56 76
ATOM     76  O4  IDS C   5     143.569  20.296  58.2910  0.00  0.00     0.000 O
BRANCH 76 80
ATOM     77  C1  IDS C   5     140.140  22.308  57.3690  0.00  0.00     0.000 C
ATOM     78  C2  IDS C   5     141.197  22.318  56.2660  0.00  0.00     0.000 C
ATOM     79  C3  IDS C   5     142.207  21.214  56.5110  0.00  0.00     0.000 C
ATOM     80  C4  IDS C   5     142.982  21.507  57.7930  0.00  0.00     0.000 C
ATOM     81  C5  IDS C   5     142.031  22.111  58.8360  0.00  0.00     0.000 C
ATOM     82  O5  IDS C   5     140.679  21.733  58.5600  0.00  0.00     0.000 O
BRANCH 78 83
ATOM     83   O  IDS C   5     140.573  22.095  54.9400  0.00  0.00     0.000 O
ATOM     84   S  IDS C   5     140.979  23.023  53.7080  0.00  0.00     0.000 S
ATOM     85   O  IDS C   5     140.893  24.377  54.1860  0.00  0.00     0.000 OA
ATOM     86   O  IDS C   5     142.323  22.626  53.3620  0.00  0.00     0.000 OA
ATOM     87   O  IDS C   5     140.026  22.726  52.6660  0.00  0.00     0.000 OA
ENDBRANCH 78 83
BRANCH 81 88
ATOM     88   C  IDS C   5     142.339  21.697  60.2630  0.00  0.00     0.000 C
ATOM     89   O  IDS C   5     143.298  22.154  60.8250  0.00  0.00     0.000 OA
ATOM     90   O  IDS C   5     141.616  20.908  60.8270  0.00  0.00     0.000 OA
ENDBRANCH 81 88
ENDBRANCH 76 80
ENDBRANCH 56 76
ENDBRANCH 55 59
ENDBRANCH 39 55
ENDBRANCH 38 42
ENDBRANCH 18 38
ENDBRANCH 17 21
ENDBRANCH 1 17
TORSDOF 18
ENDMDL
MODEL 61
REMARK VINA RESULT:      -7.1     21.190     29.839
ROOT
ATOM      1  C1  IDS C   1     159.409  33.979  52.0530  0.00  0.00     0.000 C
ATOM      2  C2  IDS C   1     158.508  32.940  51.3790  0.00  0.00     0.000 C
ATOM      3  C3  IDS C   1     157.085  33.463  51.2470  0.00  0.00     0.000 C
ATOM      4  C4  IDS C   1     156.512  33.814  52.6130  0.00  0.00     0.000 C
ATOM      5  C5  IDS C   1     157.586  34.465  53.4790  0.00  0.00     0.000 C
ATOM      6  O5  IDS C   1     158.623  34.999  52.6560  0.00  0.00     0.000 O
ATOM      7   O  IDS C   1     156.262  32.475  50.6100  0.00  0.00     0.000 O
ATOM      9  HD  IDS C   1     156.737  32.072  50.0090  0.00  0.00     0.000 HD
ENDROOT
BRANCH 2 9
ATOM      9   O  IDS C   1     158.995  32.623  50.0180  0.00  0.00     0.000 O
ATOM     10   S  IDS C   1     159.363  31.116  49.6480  0.00  0.00     0.000 S
ATOM     11   O  IDS C   1     159.786  31.139  48.2660  0.00  0.00     0.000 OA
ATOM     12   O  IDS C   1     160.426  30.740  50.5580  0.00  0.00     0.000 OA
ATOM     13   O  IDS C   1     158.151  30.353  49.8520  0.00  0.00     0.000 OA
ENDBRANCH 2 9
BRANCH 5 14
ATOM     14   C  IDS C   1     157.028  35.587  54.3380  0.00  0.00     0.000 C
ATOM     15   O  IDS C   1     155.852  35.851  54.2790  0.00  0.00     0.000 OA
ATOM     16   O  IDS C   1     157.771  36.211  55.0760  0.00  0.00     0.000 OA
ENDBRANCH 5 14
BRANCH 1 17
ATOM     17  O4  SGN C   2     160.646  34.252  51.6310  0.00  0.00     0.000 O
BRANCH 17 21
ATOM     18  C1  SGN C   2     163.739  36.807  50.4350  0.00  0.00     0.000 C
ATOM     19  C2  SGN C   2     162.507  37.468  51.0650  0.00  0.00     0.000 C
ATOM     20  C3  SGN C   2     161.683  36.418  51.8190  0.00  0.00     0.000 C
ATOM     21  C4  SGN C   2     161.355  35.248  50.8980  0.00  0.00     0.000 C
ATOM     22  C5  SGN C   2     162.655  34.675  50.3400  0.00  0.00     0.000 C
ATOM     23  O5  SGN C   2     163.378  35.705  49.6280  0.00  0.00     0.000 O
ATOM     24   O  SGN C   2     160.499  37.008  52.3290  0.00  0.00     0.000 O
ATOM     26  HD  SGN C   2     161.203  36.505  52.3410  0.00  0.00     0.000 HD
BRANCH 19 28
ATOM     26   N  SGN C   2     163.047  38.778  51.4560  0.00  0.00     0.000 N
ATOM     28  HD  SGN C   2     163.490  38.578  50.7390  0.00  0.00     0.000 HD
ATOM     28   O  SGN C   2     162.678  41.020  52.4860  0.00  0.00     0.000 OA
ATOM     29   S  SGN C   2     162.210  40.139  51.2780  0.00  0.00     0.000 S
ATOM     30   O  SGN C   2     162.641  40.750  50.0800  0.00  0.00     0.000 OA
ATOM     31   O  SGN C   2     160.834  39.826  51.4520  0.00  0.00     0.000 OA
ENDBRANCH 19 28
BRANCH 22 32
ATOM     32   C  SGN C   2     162.439  33.542  49.3660  0.00  0.00     0.000 C
ATOM     33   S  SGN C   2     162.940  32.985  46.8990  0.00  0.00     0.000 S
ATOM     34   O  SGN C   2     161.866  33.820  46.4220  0.00  0.00     0.000 OA
ATOM     35   O  SGN C   2     164.129  33.039  46.0750  0.00  0.00     0.000 OA
ATOM     36   O  SGN C   2     162.535  31.641  47.2370  0.00  0.00     0.000 OA
ATOM     37   O  SGN C   2     163.371  33.654  48.2830  0.00  0.00     0.000 O
ENDBRANCH 22 32
BRANCH 18 38
ATOM     38  O4  IDS C   3     164.897  36.438  50.9870  0.00  0.00     0.000 O
BRANCH 38 42
ATOM     39  C1  IDS C   3     168.121  36.856  52.2370  0.00  0.00     0.000 C
ATOM     40  C2  IDS C   3     167.631  37.663  51.0240  0.00  0.00     0.000 C
ATOM     41  C3  IDS C   3     167.051  36.746  49.9480  0.00  0.00     0.000 C
ATOM     42  C4  IDS C   3     166.070  35.747  50.5450  0.00  0.00     0.000 C
ATOM     43  C5  IDS C   3     166.725  35.019  51.7260  0.00  0.00     0.000 C
ATOM     44  O5  IDS C   3     167.112  35.978  52.7080  0.00  0.00     0.000 O
ATOM     45   O  IDS C   3     168.115  36.048  49.2980  0.00  0.00     0.000 O
ATOM     47  HD  IDS C   3     168.764  35.539  49.5620  0.00  0.00     0.000 HD
BRANCH 40 47
ATOM     47   O  IDS C   3     166.563  38.609  51.4250  0.00  0.00     0.000 O
ATOM     48   S  IDS C   3     166.934  39.920  52.2630  0.00  0.00     0.000 S
ATOM     49   O  IDS C   3     167.150  39.474  53.6230  0.00  0.00     0.000 OA
ATOM     50   O  IDS C   3     165.782  40.787  52.1420  0.00  0.00     0.000 OA
ATOM     51   O  IDS C   3     168.120  40.466  51.6590  0.00  0.00     0.000 OA
ENDBRANCH 40 47
BRANCH 43 52
ATOM     52   C  IDS C   3     165.815  33.987  52.3550  0.00  0.00     0.000 C
ATOM     53   O  IDS C   3     165.261  33.167  51.6580  0.00  0.00     0.000 OA
ATOM     54   O  IDS C   3     165.648  33.986  53.5480  0.00  0.00     0.000 OA
ENDBRANCH 43 52
BRANCH 39 55
ATOM     55  O4  SGN C   4     169.358  36.373  52.3520  0.00  0.00     0.000 O
BRANCH 55 59
ATOM     56  C1  SGN C   4     172.678  36.259  54.8960  0.00  0.00     0.000 C
ATOM     57  C2  SGN C   4     171.487  37.115  55.3580  0.00  0.00     0.000 C
ATOM     58  C3  SGN C   4     170.228  36.764  54.5690  0.00  0.00     0.000 C
ATOM     59  C4  SGN C   4     170.506  36.803  53.0700  0.00  0.00     0.000 C
ATOM     60  C5  SGN C   4     171.686  35.883  52.7650  0.00  0.00     0.000 C
ATOM     61  O5  SGN C   4     172.835  36.365  53.4900  0.00  0.00     0.000 O
ATOM     62   O  SGN C   4     169.185  37.667  54.9090  0.00  0.00     0.000 O
ATOM     64  HD  SGN C   4     169.683  37.634  55.6170  0.00  0.00     0.000 HD
BRANCH 57 66
ATOM     64   N  SGN C   4     171.006  37.302  56.7360  0.00  0.00     0.000 N
ATOM     66  HD  SGN C   4     171.305  37.132  57.5310  0.00  0.00     0.000 HD
ATOM     66   S  SGN C   4     171.903  38.068  57.8120  0.00  0.00     0.000 S
ATOM     67   O  SGN C   4     171.208  38.034  59.0460  0.00  0.00     0.000 OA
ATOM     68   O  SGN C   4     173.212  37.516  57.7310  0.00  0.00     0.000 OA
ATOM     69   O  SGN C   4     171.946  39.537  57.2810  0.00  0.00     0.000 OA
ENDBRANCH 57 66
BRANCH 60 70
ATOM     70   C  SGN C   4     172.054  35.828  51.2980  0.00  0.00     0.000 C
ATOM     71   O  SGN C   4     172.314  32.757  49.1510  0.00  0.00     0.000 OA
ATOM     72   O  SGN C   4     170.495  34.349  49.2340  0.00  0.00     0.000 OA
ATOM     73   O  SGN C   4     172.252  34.464  50.8780  0.00  0.00     0.000 O
ATOM     74   S  SGN C   4     171.920  34.133  49.3500  0.00  0.00     0.000 S
ATOM     75   O  SGN C   4     172.711  35.077  48.5860  0.00  0.00     0.000 OA
ENDBRANCH 60 70
BRANCH 56 76
ATOM     76  O4  IDS C   5     173.231  35.094  55.2800  0.00  0.00     0.000 O
BRANCH 76 80
ATOM     77  C1  IDS C   5     172.653  31.630  53.2010  0.00  0.00     0.000 C
ATOM     78  C2  IDS C   5     171.658  31.861  54.3380  0.00  0.00     0.000 C
ATOM     79  C3  IDS C   5     171.671  33.321  54.7440  0.00  0.00     0.000 C
ATOM     80  C4  IDS C   5     173.030  33.674  55.3410  0.00  0.00     0.000 C
ATOM     81  C5  IDS C   5     174.133  32.942  54.5620  0.00  0.00     0.000 C
ATOM     82  O5  IDS C   5     173.685  32.616  53.2430  0.00  0.00     0.000 O
BRANCH 78 83
ATOM     83   O  IDS C   5     170.284  31.504  53.9120  0.00  0.00     0.000 O
ATOM     84   S  IDS C   5     169.183  31.144  55.0090  0.00  0.00     0.000 S
ATOM     85   O  IDS C   5     169.800  30.190  55.8910  0.00  0.00     0.000 OA
ATOM     86   O  IDS C   5     168.871  32.397  55.6570  0.00  0.00     0.000 OA
ATOM     87   O  IDS C   5     168.065  30.603  54.2760  0.00  0.00     0.000 OA
ENDBRANCH 78 83
BRANCH 81 88
ATOM     88   C  IDS C   5     175.420  33.735  54.4250  0.00  0.00     0.000 C
ATOM     89   O  IDS C   5     176.203  33.767  55.3350  0.00  0.00     0.000 OA
ATOM     90   O  IDS C   5     175.649  34.331  53.3970  0.00  0.00     0.000 OA
ENDBRANCH 81 88
ENDBRANCH 76 80
ENDBRANCH 56 76
ENDBRANCH 55 59
ENDBRANCH 39 55
ENDBRANCH 38 42
ENDBRANCH 18 38
ENDBRANCH 17 21
ENDBRANCH 1 17
TORSDOF 18
ENDMDL
MODEL 62
REMARK VINA RESULT:      -7.0     22.014     27.304
ROOT
ATOM      1  C1  IDS C   1     146.218  35.180  79.8400  0.00  0.00     0.000 C
ATOM      2  C2  IDS C   1     146.358  34.950  81.3480  0.00  0.00     0.000 C
ATOM      3  C3  IDS C   1     145.174  34.160  81.8860  0.00  0.00     0.000 C
ATOM      4  C4  IDS C   1     143.869  34.893  81.6090  0.00  0.00     0.000 C
ATOM      5  C5  IDS C   1     143.912  35.534  80.2250  0.00  0.00     0.000 C
ATOM      6  O5  IDS C   1     144.893  34.887  79.4150  0.00  0.00     0.000 O
ATOM      7   O  IDS C   1     145.329  33.954  83.2970  0.00  0.00     0.000 O
ATOM      9  HD  IDS C   1     146.170  33.828  83.4630  0.00  0.00     0.000 HD
ENDROOT
BRANCH 2 9
ATOM      9   O  IDS C   1     147.584  34.178  81.6510  0.00  0.00     0.000 O
ATOM     10   S  IDS C   1     148.646  34.769  82.6840  0.00  0.00     0.000 S
ATOM     11   O  IDS C   1     149.703  33.786  82.7710  0.00  0.00     0.000 OA
ATOM     12   O  IDS C   1     149.088  36.024  82.1120  0.00  0.00     0.000 OA
ATOM     13   O  IDS C   1     147.933  34.938  83.9310  0.00  0.00     0.000 OA
ENDBRANCH 2 9
BRANCH 5 14
ATOM     14   C  IDS C   1     142.572  35.454  79.5140  0.00  0.00     0.000 C
ATOM     15   O  IDS C   1     141.903  36.451  79.3930  0.00  0.00     0.000 OA
ATOM     16   O  IDS C   1     142.183  34.385  79.0740  0.00  0.00     0.000 OA
ENDBRANCH 5 14
BRANCH 1 17
ATOM     17  O4  SGN C   2     147.237  35.048  78.9860  0.00  0.00     0.000 O
BRANCH 17 21
ATOM     18  C1  SGN C   2     149.724  32.906  76.3880  0.00  0.00     0.000 C
ATOM     19  C2  SGN C   2     148.444  32.200  76.8510  0.00  0.00     0.000 C
ATOM     20  C3  SGN C   2     147.462  33.229  77.4240  0.00  0.00     0.000 C
ATOM     21  C4  SGN C   2     148.141  34.054  78.5110  0.00  0.00     0.000 C
ATOM     22  C5  SGN C   2     149.393  34.707  77.9310  0.00  0.00     0.000 C
ATOM     23  O5  SGN C   2     150.284  33.688  77.4220  0.00  0.00     0.000 O
ATOM     24   O  SGN C   2     146.314  32.570  77.9320  0.00  0.00     0.000 O
ATOM     26  HD  SGN C   2     146.754  33.184  77.5090  0.00  0.00     0.000 HD
BRANCH 19 28
ATOM     26   N  SGN C   2     147.977  31.368  75.7340  0.00  0.00     0.000 N
ATOM     28  HD  SGN C   2     148.610  31.844  75.3840  0.00  0.00     0.000 HD
ATOM     28   O  SGN C   2     147.034  29.202  74.9300  0.00  0.00     0.000 OA
ATOM     29   S  SGN C   2     148.297  29.794  75.6420  0.00  0.00     0.000 S
ATOM     30   O  SGN C   2     149.412  29.636  74.7890  0.00  0.00     0.000 OA
ATOM     31   O  SGN C   2     148.349  29.287  76.9690  0.00  0.00     0.000 OA
ENDBRANCH 19 28
BRANCH 22 32
ATOM     32   C  SGN C   2     150.176  35.505  78.9440  0.00  0.00     0.000 C
ATOM     33   S  SGN C   2     151.827  37.483  78.9970  0.00  0.00     0.000 S
ATOM     34   O  SGN C   2     152.926  36.667  78.5450  0.00  0.00     0.000 OA
ATOM     35   O  SGN C   2     151.823  38.816  78.4320  0.00  0.00     0.000 OA
ATOM     36   O  SGN C   2     151.630  37.464  80.4270  0.00  0.00     0.000 OA
ATOM     37   O  SGN C   2     150.534  36.774  78.3860  0.00  0.00     0.000 O
ENDBRANCH 22 32
BRANCH 18 38
ATOM     38  O4  IDS C   3     149.969  33.610  75.2810  0.00  0.00     0.000 O
BRANCH 38 42
ATOM     39  C1  IDS C   3     150.029  35.835  72.6030  0.00  0.00     0.000 C
ATOM     40  C2  IDS C   3     148.794  34.964  72.8810  0.00  0.00     0.000 C
ATOM     41  C3  IDS C   3     149.175  33.489  73.0070  0.00  0.00     0.000 C
ATOM     42  C4  IDS C   3     150.365  33.305  73.9390  0.00  0.00     0.000 C
ATOM     43  C5  IDS C   3     151.509  34.231  73.5090  0.00  0.00     0.000 C
ATOM     44  O5  IDS C   3     151.056  35.583  73.5480  0.00  0.00     0.000 O
ATOM     45   O  IDS C   3     149.490  32.970  71.7140  0.00  0.00     0.000 O
ATOM     47  HD  IDS C   3     150.042  33.190  71.0840  0.00  0.00     0.000 HD
BRANCH 40 47
ATOM     47   O  IDS C   3     148.148  35.367  74.1520  0.00  0.00     0.000 O
ATOM     48   S  IDS C   3     146.624  35.851  74.1520  0.00  0.00     0.000 S
ATOM     49   O  IDS C   3     146.638  37.207  73.6450  0.00  0.00     0.000 OA
ATOM     50   O  IDS C   3     146.202  35.782  75.5340  0.00  0.00     0.000 OA
ATOM     51   O  IDS C   3     145.908  34.943  73.2960  0.00  0.00     0.000 OA
ENDBRANCH 40 47
BRANCH 43 52
ATOM     52   C  IDS C   3     152.740  34.083  74.3750  0.00  0.00     0.000 C
ATOM     53   O  IDS C   3     153.102  35.004  75.0710  0.00  0.00     0.000 OA
ATOM     54   O  IDS C   3     153.354  33.046  74.3680  0.00  0.00     0.000 OA
ENDBRANCH 43 52
BRANCH 39 55
ATOM     55  O4  SGN C   4     150.475  36.116  71.3780  0.00  0.00     0.000 O
BRANCH 55 59
ATOM     56  C1  SGN C   4     148.497  39.344  69.5980  0.00  0.00     0.000 C
ATOM     57  C2  SGN C   4     148.194  37.950  69.0220  0.00  0.00     0.000 C
ATOM     58  C3  SGN C   4     148.649  36.856  69.9850  0.00  0.00     0.000 C
ATOM     59  C4  SGN C   4     150.098  37.078  70.4040  0.00  0.00     0.000 C
ATOM     60  C5  SGN C   4     150.231  38.485  70.9830  0.00  0.00     0.000 C
ATOM     61  O5  SGN C   4     149.865  39.432  69.9600  0.00  0.00     0.000 O
ATOM     62   O  SGN C   4     148.495  35.585  69.3680  0.00  0.00     0.000 O
ATOM     64  HD  SGN C   4     147.888  36.080  68.9980  0.00  0.00     0.000 HD
BRANCH 57 66
ATOM     64   N  SGN C   4     147.629  37.466  67.7520  0.00  0.00     0.000 N
ATOM     66  HD  SGN C   4     146.867  37.154  67.4860  0.00  0.00     0.000 HD
ATOM     66   S  SGN C   4     146.274  38.085  67.1790  0.00  0.00     0.000 S
ATOM     67   O  SGN C   4     145.956  37.382  65.9900  0.00  0.00     0.000 OA
ATOM     68   O  SGN C   4     145.340  38.104  68.2510  0.00  0.00     0.000 OA
ATOM     69   O  SGN C   4     146.659  39.557  66.8240  0.00  0.00     0.000 OA
ENDBRANCH 57 66
BRANCH 60 70
ATOM     70   C  SGN C   4     151.631  38.824  71.4480  0.00  0.00     0.000 C
ATOM     71   O  SGN C   4     152.578  40.815  74.4880  0.00  0.00     0.000 OA
ATOM     72   O  SGN C   4     152.619  38.411  74.2280  0.00  0.00     0.000 OA
ATOM     73   O  SGN C   4     151.587  39.774  72.5300  0.00  0.00     0.000 O
ATOM     74   S  SGN C   4     152.780  39.699  73.5930  0.00  0.00     0.000 S
ATOM     75   O  SGN C   4     153.989  39.805  72.8010  0.00  0.00     0.000 OA
ENDBRANCH 60 70
BRANCH 56 76
ATOM     76  O4  IDS C   5     147.823  40.249  70.3310  0.00  0.00     0.000 O
BRANCH 76 80
ATOM     77  C1  IDS C   5     146.521  42.691  73.3310  0.00  0.00     0.000 C
ATOM     78  C2  IDS C   5     146.890  41.277  73.7790  0.00  0.00     0.000 C
ATOM     79  C3  IDS C   5     147.752  40.612  72.7250  0.00  0.00     0.000 C
ATOM     80  C4  IDS C   5     146.938  40.414  71.4500  0.00  0.00     0.000 C
ATOM     81  C5  IDS C   5     146.024  41.629  71.2360  0.00  0.00     0.000 C
ATOM     82  O5  IDS C   5     146.551  42.778  71.9070  0.00  0.00     0.000 O
BRANCH 78 83
ATOM     83   O  IDS C   5     147.649  41.312  75.0520  0.00  0.00     0.000 O
ATOM     84   S  IDS C   5     146.995  40.721  76.3810  0.00  0.00     0.000 S
ATOM     85   O  IDS C   5     145.675  41.289  76.4590  0.00  0.00     0.000 OA
ATOM     86   O  IDS C   5     146.987  39.289  76.1950  0.00  0.00     0.000 OA
ATOM     87   O  IDS C   5     147.858  41.137  77.4590  0.00  0.00     0.000 OA
ENDBRANCH 78 83
BRANCH 81 88
ATOM     88   C  IDS C   5     145.826  42.002  69.7780  0.00  0.00     0.000 C
ATOM     89   O  IDS C   5     145.056  41.376  69.0990  0.00  0.00     0.000 OA
ATOM     90   O  IDS C   5     146.445  42.929  69.3070  0.00  0.00     0.000 OA
ENDBRANCH 81 88
ENDBRANCH 76 80
ENDBRANCH 56 76
ENDBRANCH 55 59
ENDBRANCH 39 55
ENDBRANCH 38 42
ENDBRANCH 18 38
ENDBRANCH 17 21
ENDBRANCH 1 17
TORSDOF 18
ENDMDL
MODEL 63
REMARK VINA RESULT:      -7.0     21.554     26.749
ROOT
ATOM      1  C1  IDS C   1     144.106  32.267  75.6980  0.00  0.00     0.000 C
ATOM      2  C2  IDS C   1     143.525  32.375  77.1100  0.00  0.00     0.000 C
ATOM      3  C3  IDS C   1     143.546  31.024  77.8090  0.00  0.00     0.000 C
ATOM      4  C4  IDS C   1     142.750  29.997  77.0150  0.00  0.00     0.000 C
ATOM      5  C5  IDS C   1     142.987  30.192  75.5210  0.00  0.00     0.000 C
ATOM      6  O5  IDS C   1     144.205  30.904  75.3060  0.00  0.00     0.000 O
ATOM      7   O  IDS C   1     143.002  31.151  79.1300  0.00  0.00     0.000 O
ATOM      9  HD  IDS C   1     143.244  31.918  79.4510  0.00  0.00     0.000 HD
ENDROOT
BRANCH 2 9
ATOM      9   O  IDS C   1     144.316  33.316  77.9350  0.00  0.00     0.000 O
ATOM     10   S  IDS C   1     143.582  34.535  78.6550  0.00  0.00     0.000 S
ATOM     11   O  IDS C   1     144.612  35.245  79.3810  0.00  0.00     0.000 OA
ATOM     12   O  IDS C   1     142.999  35.323  77.5890  0.00  0.00     0.000 OA
ATOM     13   O  IDS C   1     142.591  33.941  79.5250  0.00  0.00     0.000 OA
ENDBRANCH 2 9
BRANCH 5 14
ATOM     14   C  IDS C   1     143.063  28.870  74.7750  0.00  0.00     0.000 C
ATOM     15   O  IDS C   1     143.808  28.764  73.8310  0.00  0.00     0.000 OA
ATOM     16   O  IDS C   1     142.373  27.932  75.1340  0.00  0.00     0.000 OA
ENDBRANCH 5 14
BRANCH 1 17
ATOM     17  O4  SGN C   2     144.946  33.172  75.1850  0.00  0.00     0.000 O
BRANCH 17 21
ATOM     18  C1  SGN C   2     148.662  34.594  73.8850  0.00  0.00     0.000 C
ATOM     19  C2  SGN C   2     148.533  33.077  74.0680  0.00  0.00     0.000 C
ATOM     20  C3  SGN C   2     147.052  32.684  74.1240  0.00  0.00     0.000 C
ATOM     21  C4  SGN C   2     146.332  33.501  75.1910  0.00  0.00     0.000 C
ATOM     22  C5  SGN C   2     146.528  34.985  74.8990  0.00  0.00     0.000 C
ATOM     23  O5  SGN C   2     147.940  35.297  74.8750  0.00  0.00     0.000 O
ATOM     24   O  SGN C   2     146.931  31.295  74.3810  0.00  0.00     0.000 O
ATOM     26  HD  SGN C   2     146.744  32.051  74.0020  0.00  0.00     0.000 HD
BRANCH 19 28
ATOM     26   N  SGN C   2     149.660  32.589  73.2620  0.00  0.00     0.000 N
ATOM     28  HD  SGN C   2     149.940  33.350  73.5670  0.00  0.00     0.000 HD
ATOM     28   O  SGN C   2     151.001  30.667  72.4040  0.00  0.00     0.000 OA
ATOM     29   S  SGN C   2     150.598  31.374  73.7420  0.00  0.00     0.000 S
ATOM     30   O  SGN C   2     151.757  31.936  74.3230  0.00  0.00     0.000 OA
ATOM     31   O  SGN C   2     149.793  30.482  74.5030  0.00  0.00     0.000 OA
ENDBRANCH 19 28
BRANCH 22 32
ATOM     32   C  SGN C   2     145.901  35.887  75.9330  0.00  0.00     0.000 C
ATOM     33   S  SGN C   2     146.492  38.012  77.2680  0.00  0.00     0.000 S
ATOM     34   O  SGN C   2     147.345  37.286  78.1760  0.00  0.00     0.000 OA
ATOM     35   O  SGN C   2     147.004  39.318  76.9090  0.00  0.00     0.000 OA
ATOM     36   O  SGN C   2     145.100  38.024  77.6490  0.00  0.00     0.000 OA
ATOM     37   O  SGN C   2     146.549  37.165  75.9150  0.00  0.00     0.000 O
ENDBRANCH 22 32
BRANCH 18 38
ATOM     38  O4  IDS C   3     148.523  35.345  72.7890  0.00  0.00     0.000 O
BRANCH 38 42
ATOM     39  C1  IDS C   3     149.268  38.463  71.4300  0.00  0.00     0.000 C
ATOM     40  C2  IDS C   3     148.036  37.671  70.9660  0.00  0.00     0.000 C
ATOM     41  C3  IDS C   3     148.416  36.248  70.5560  0.00  0.00     0.000 C
ATOM     42  C4  IDS C   3     149.296  35.588  71.6090  0.00  0.00     0.000 C
ATOM     43  C5  IDS C   3     150.483  36.501  71.9400  0.00  0.00     0.000 C
ATOM     44  O5  IDS C   3     149.991  37.751  72.4200  0.00  0.00     0.000 O
ATOM     45   O  IDS C   3     149.105  36.284  69.3050  0.00  0.00     0.000 O
ATOM     47  HD  IDS C   3     149.805  36.694  69.0040  0.00  0.00     0.000 HD
BRANCH 40 47
ATOM     47   O  IDS C   3     147.040  37.568  72.0590  0.00  0.00     0.000 O
ATOM     48   S  IDS C   3     146.041  38.784  72.3420  0.00  0.00     0.000 S
ATOM     49   O  IDS C   3     146.818  39.782  73.0440  0.00  0.00     0.000 OA
ATOM     50   O  IDS C   3     144.986  38.227  73.1600  0.00  0.00     0.000 OA
ATOM     51   O  IDS C   3     145.580  39.239  71.0570  0.00  0.00     0.000 OA
ENDBRANCH 40 47
BRANCH 43 52
ATOM     52   C  IDS C   3     151.420  35.897  72.9620  0.00  0.00     0.000 C
ATOM     53   O  IDS C   3     151.930  34.821  72.7500  0.00  0.00     0.000 OA
ATOM     54   O  IDS C   3     151.653  36.491  73.9830  0.00  0.00     0.000 OA
ENDBRANCH 43 52
BRANCH 39 55
ATOM     55  O4  SGN C   4     150.035  39.183  70.6110  0.00  0.00     0.000 O
BRANCH 55 59
ATOM     56  C1  SGN C   4     148.614  43.047  69.8660  0.00  0.00     0.000 C
ATOM     57  C2  SGN C   4     148.222  41.962  68.8490  0.00  0.00     0.000 C
ATOM     58  C3  SGN C   4     148.454  40.569  69.4270  0.00  0.00     0.000 C
ATOM     59  C4  SGN C   4     149.867  40.447  69.9840  0.00  0.00     0.000 C
ATOM     60  C5  SGN C   4     150.094  41.566  70.9980  0.00  0.00     0.000 C
ATOM     61  O5  SGN C   4     149.940  42.829  70.3200  0.00  0.00     0.000 O
ATOM     62   O  SGN C   4     148.226  39.592  68.4200  0.00  0.00     0.000 O
ATOM     64  HD  SGN C   4     147.718  40.257  68.1960  0.00  0.00     0.000 HD
BRANCH 57 66
ATOM     64   N  SGN C   4     147.861  43.034  67.9060  0.00  0.00     0.000 N
ATOM     66  HD  SGN C   4     147.662  43.086  67.0650  0.00  0.00     0.000 HD
ATOM     66   S  SGN C   4     146.527  42.935  67.0370  0.00  0.00     0.000 S
ATOM     67   O  SGN C   4     146.486  44.071  66.1900  0.00  0.00     0.000 OA
ATOM     68   O  SGN C   4     146.500  41.634  66.4630  0.00  0.00     0.000 OA
ATOM     69   O  SGN C   4     145.385  43.038  68.0980  0.00  0.00     0.000 OA
ENDBRANCH 57 66
BRANCH 60 70
ATOM     70   C  SGN C   4     151.467  41.546  71.6330  0.00  0.00     0.000 C
ATOM     71   O  SGN C   4     152.518  39.612  74.6770  0.00  0.00     0.000 OA
ATOM     72   O  SGN C   4     152.941  39.060  72.3600  0.00  0.00     0.000 OA
ATOM     73   O  SGN C   4     151.429  40.857  72.8980  0.00  0.00     0.000 O
ATOM     74   S  SGN C   4     152.769  40.107  73.3430  0.00  0.00     0.000 S
ATOM     75   O  SGN C   4     153.799  41.124  73.2880  0.00  0.00     0.000 OA
ENDBRANCH 60 70
BRANCH 56 76
ATOM     76  O4  IDS C   5     147.972  43.757  70.8120  0.00  0.00     0.000 O
BRANCH 76 80
ATOM     77  C1  IDS C   5     145.441  43.185  73.9630  0.00  0.00     0.000 C
ATOM     78  C2  IDS C   5     144.817  42.923  72.5920  0.00  0.00     0.000 C
ATOM     79  C3  IDS C   5     145.909  42.730  71.5590  0.00  0.00     0.000 C
ATOM     80  C4  IDS C   5     146.686  44.032  71.3870  0.00  0.00     0.000 C
ATOM     81  C5  IDS C   5     146.844  44.713  72.7540  0.00  0.00     0.000 C
ATOM     82  O5  IDS C   5     146.742  43.753  73.8090  0.00  0.00     0.000 O
BRANCH 78 83
ATOM     83   O  IDS C   5     143.981  41.700  72.6230  0.00  0.00     0.000 O
ATOM     84   S  IDS C   5     142.550  41.700  71.9170  0.00  0.00     0.000 S
ATOM     85   O  IDS C   5     141.884  42.890  72.3740  0.00  0.00     0.000 OA
ATOM     86   O  IDS C   5     142.828  41.713  70.5000  0.00  0.00     0.000 OA
ATOM     87   O  IDS C   5     141.903  40.484  72.3460  0.00  0.00     0.000 OA
ENDBRANCH 78 83
BRANCH 81 88
ATOM     88   C  IDS C   5     148.163  45.445  72.9280  0.00  0.00     0.000 C
ATOM     89   O  IDS C   5     149.029  44.965  73.6090  0.00  0.00     0.000 OA
ATOM     90   O  IDS C   5     148.334  46.509  72.3780  0.00  0.00     0.000 OA
ENDBRANCH 81 88
ENDBRANCH 76 80
ENDBRANCH 56 76
ENDBRANCH 55 59
ENDBRANCH 39 55
ENDBRANCH 38 42
ENDBRANCH 18 38
ENDBRANCH 17 21
ENDBRANCH 1 17
TORSDOF 18
ENDMDL
MODEL 64
REMARK VINA RESULT:      -7.0     20.446     28.570
ROOT
ATOM      1  C1  IDS C   1     156.285  38.641  51.6060  0.00  0.00     0.000 C
ATOM      2  C2  IDS C   1     154.964  38.429  52.3520  0.00  0.00     0.000 C
ATOM      3  C3  IDS C   1     153.841  39.222  51.7000  0.00  0.00     0.000 C
ATOM      4  C4  IDS C   1     154.174  40.708  51.6810  0.00  0.00     0.000 C
ATOM      5  C5  IDS C   1     155.655  40.908  51.3730  0.00  0.00     0.000 C
ATOM      6  O5  IDS C   1     156.183  39.752  50.7240  0.00  0.00     0.000 O
ATOM      7   O  IDS C   1     152.616  39.004  52.4130  0.00  0.00     0.000 O
ATOM      9  HD  IDS C   1     152.598  38.180  52.6780  0.00  0.00     0.000 HD
ENDROOT
BRANCH 2 9
ATOM      9   O  IDS C   1     154.572  37.001  52.3320  0.00  0.00     0.000 O
ATOM     10   S  IDS C   1     154.393  36.219  53.7100  0.00  0.00     0.000 S
ATOM     11   O  IDS C   1     153.999  34.874  53.3540  0.00  0.00     0.000 OA
ATOM     12   O  IDS C   1     155.686  36.275  54.3600  0.00  0.00     0.000 OA
ATOM     13   O  IDS C   1     153.365  36.930  54.4380  0.00  0.00     0.000 OA
ENDBRANCH 2 9
BRANCH 5 14
ATOM     14   C  IDS C   1     155.896  42.114  50.4810  0.00  0.00     0.000 C
ATOM     15   O  IDS C   1     156.697  42.951  50.8170  0.00  0.00     0.000 OA
ATOM     16   O  IDS C   1     155.279  42.226  49.4350  0.00  0.00     0.000 OA
ENDBRANCH 5 14
BRANCH 1 17
ATOM     17  O4  SGN C   2     157.133  37.646  51.3310  0.00  0.00     0.000 O
BRANCH 17 21
ATOM     18  C1  SGN C   2     159.643  35.511  48.7490  0.00  0.00     0.000 C
ATOM     19  C2  SGN C   2     159.012  36.792  48.1890  0.00  0.00     0.000 C
ATOM     20  C3  SGN C   2     158.489  37.660  49.3410  0.00  0.00     0.000 C
ATOM     21  C4  SGN C   2     157.557  36.846  50.2300  0.00  0.00     0.000 C
ATOM     22  C5  SGN C   2     158.297  35.607  50.7260  0.00  0.00     0.000 C
ATOM     23  O5  SGN C   2     158.749  34.823  49.5980  0.00  0.00     0.000 O
ATOM     24   O  SGN C   2     157.828  38.802  48.8230  0.00  0.00     0.000 O
ATOM     26  HD  SGN C   2     158.349  38.360  49.3550  0.00  0.00     0.000 HD
BRANCH 19 28
ATOM     26   N  SGN C   2     159.891  37.076  47.0470  0.00  0.00     0.000 N
ATOM     28  HD  SGN C   2     159.884  36.211  47.0910  0.00  0.00     0.000 HD
ATOM     28   O  SGN C   2     160.470  38.532  45.1060  0.00  0.00     0.000 OA
ATOM     29   S  SGN C   2     159.325  37.606  45.6380  0.00  0.00     0.000 S
ATOM     30   O  SGN C   2     159.211  36.490  44.7790  0.00  0.00     0.000 OA
ATOM     31   O  SGN C   2     158.181  38.406  45.9060  0.00  0.00     0.000 OA
ENDBRANCH 19 28
BRANCH 22 32
ATOM     32   C  SGN C   2     157.440  34.698  51.5730  0.00  0.00     0.000 C
ATOM     33   S  SGN C   2     157.680  33.186  53.6470  0.00  0.00     0.000 S
ATOM     34   O  SGN C   2     158.335  32.144  52.8960  0.00  0.00     0.000 OA
ATOM     35   O  SGN C   2     158.225  33.375  54.9750  0.00  0.00     0.000 OA
ATOM     36   O  SGN C   2     156.238  33.113  53.6220  0.00  0.00     0.000 OA
ATOM     37   O  SGN C   2     158.046  34.526  52.8600  0.00  0.00     0.000 O
ENDBRANCH 22 32
BRANCH 18 38
ATOM     38  O4  IDS C   3     160.839  35.314  49.3090  0.00  0.00     0.000 O
BRANCH 38 42
ATOM     39  C1  IDS C   3     163.773  35.286  51.1850  0.00  0.00     0.000 C
ATOM     40  C2  IDS C   3     163.394  36.502  50.3250  0.00  0.00     0.000 C
ATOM     41  C3  IDS C   3     163.084  36.087  48.8870  0.00  0.00     0.000 C
ATOM     42  C4  IDS C   3     162.131  34.901  48.8500  0.00  0.00     0.000 C
ATOM     43  C5  IDS C   3     162.668  33.775  49.7430  0.00  0.00     0.000 C
ATOM     44  O5  IDS C   3     162.799  34.261  51.0770  0.00  0.00     0.000 O
ATOM     45   O  IDS C   3     164.300  35.750  48.2190  0.00  0.00     0.000 O
ATOM     47  HD  IDS C   3     164.951  35.199  48.3720  0.00  0.00     0.000 HD
BRANCH 40 47
ATOM     47   O  IDS C   3     162.186  37.167  50.8670  0.00  0.00     0.000 O
ATOM     48   S  IDS C   3     162.210  38.737  51.1710  0.00  0.00     0.000 S
ATOM     49   O  IDS C   3     162.939  38.890  52.4120  0.00  0.00     0.000 OA
ATOM     50   O  IDS C   3     160.821  39.122  51.2950  0.00  0.00     0.000 OA
ATOM     51   O  IDS C   3     162.872  39.358  50.0550  0.00  0.00     0.000 OA
ENDBRANCH 40 47
BRANCH 43 52
ATOM     52   C  IDS C   3     161.784  32.548  49.7340  0.00  0.00     0.000 C
ATOM     53   O  IDS C   3     161.767  31.824  48.7650  0.00  0.00     0.000 OA
ATOM     54   O  IDS C   3     161.100  32.297  50.6930  0.00  0.00     0.000 OA
ENDBRANCH 43 52
BRANCH 39 55
ATOM     55  O4  SGN C   4     165.021  34.838  51.3220  0.00  0.00     0.000 O
BRANCH 55 59
ATOM     56  C1  SGN C   4     168.580  34.535  53.5000  0.00  0.00     0.000 C
ATOM     57  C2  SGN C   4     167.636  33.321  53.5530  0.00  0.00     0.000 C
ATOM     58  C3  SGN C   4     166.600  33.392  52.4340  0.00  0.00     0.000 C
ATOM     59  C4  SGN C   4     165.905  34.748  52.4300  0.00  0.00     0.000 C
ATOM     60  C5  SGN C   4     166.965  35.843  52.3400  0.00  0.00     0.000 C
ATOM     61  O5  SGN C   4     167.825  35.736  53.4920  0.00  0.00     0.000 O
ATOM     62   O  SGN C   4     165.654  32.343  52.5950  0.00  0.00     0.000 O
ATOM     64  HD  SGN C   4     166.381  32.036  52.9520  0.00  0.00     0.000 HD
BRANCH 57 66
ATOM     64   N  SGN C   4     168.029  32.722  54.8390  0.00  0.00     0.000 N
ATOM     66  HD  SGN C   4     167.899  31.966  55.2420  0.00  0.00     0.000 HD
ATOM     66   S  SGN C   4     168.762  31.305  54.8830  0.00  0.00     0.000 S
ATOM     67   O  SGN C   4     168.955  30.968  56.2460  0.00  0.00     0.000 OA
ATOM     68   O  SGN C   4     168.022  30.427  54.0430  0.00  0.00     0.000 OA
ATOM     69   O  SGN C   4     170.148  31.584  54.2170  0.00  0.00     0.000 OA
ENDBRANCH 57 66
BRANCH 60 70
ATOM     70   C  SGN C   4     166.395  37.245  52.3180  0.00  0.00     0.000 C
ATOM     71   O  SGN C   4     167.926  40.278  50.7160  0.00  0.00     0.000 OA
ATOM     72   O  SGN C   4     166.129  38.906  49.8580  0.00  0.00     0.000 OA
ATOM     73   O  SGN C   4     167.363  38.175  51.7940  0.00  0.00     0.000 O
ATOM     74   S  SGN C   4     166.782  39.452  51.0260  0.00  0.00     0.000 S
ATOM     75   O  SGN C   4     165.866  40.065  51.9670  0.00  0.00     0.000 OA
ENDBRANCH 60 70
BRANCH 56 76
ATOM     76  O4  IDS C   5     169.774  34.801  52.9390  0.00  0.00     0.000 O
BRANCH 76 80
ATOM     77  C1  IDS C   5     173.517  34.144  54.4290  0.00  0.00     0.000 C
ATOM     78  C2  IDS C   5     172.850  35.425  54.9300  0.00  0.00     0.000 C
ATOM     79  C3  IDS C   5     171.355  35.356  54.6880  0.00  0.00     0.000 C
ATOM     80  C4  IDS C   5     171.082  35.339  53.1870  0.00  0.00     0.000 C
ATOM     81  C5  IDS C   5     172.152  34.491  52.4840  0.00  0.00     0.000 C
ATOM     82  O5  IDS C   5     172.728  33.552  53.3970  0.00  0.00     0.000 O
BRANCH 78 83
ATOM     83   O  IDS C   5     173.081  35.602  56.3830  0.00  0.00     0.000 O
ATOM     84   S  IDS C   5     173.907  36.862  56.9070  0.00  0.00     0.000 S
ATOM     85   O  IDS C   5     175.099  36.916  56.1030  0.00  0.00     0.000 OA
ATOM     86   O  IDS C   5     173.036  37.996  56.7060  0.00  0.00     0.000 OA
ATOM     87   O  IDS C   5     174.171  36.604  58.3010  0.00  0.00     0.000 OA
ENDBRANCH 78 83
BRANCH 81 88
ATOM     88   C  IDS C   5     171.633  33.710  51.2910  0.00  0.00     0.000 C
ATOM     89   O  IDS C   5     171.306  34.292  50.2910  0.00  0.00     0.000 OA
ATOM     90   O  IDS C   5     171.554  32.505  51.3530  0.00  0.00     0.000 OA
ENDBRANCH 81 88
ENDBRANCH 76 80
ENDBRANCH 56 76
ENDBRANCH 55 59
ENDBRANCH 39 55
ENDBRANCH 38 42
ENDBRANCH 18 38
ENDBRANCH 17 21
ENDBRANCH 1 17
TORSDOF 18
ENDMDL
MODEL 65
REMARK VINA RESULT:      -7.0     17.695     23.708
ROOT
ATOM      1  C1  IDS C   1     137.858  31.693  44.8470  0.00  0.00     0.000 C
ATOM      2  C2  IDS C   1     136.592  31.517  45.6900  0.00  0.00     0.000 C
ATOM      3  C3  IDS C   1     136.941  31.072  47.1020  0.00  0.00     0.000 C
ATOM      4  C4  IDS C   1     137.713  29.760  47.0760  0.00  0.00     0.000 C
ATOM      5  C5  IDS C   1     138.696  29.754  45.9100  0.00  0.00     0.000 C
ATOM      6  O5  IDS C   1     138.972  31.092  45.4940  0.00  0.00     0.000 O
ATOM      7   O  IDS C   1     135.740  30.918  47.8730  0.00  0.00     0.000 O
ATOM      9  HD  IDS C   1     135.183  31.536  47.6340  0.00  0.00     0.000 HD
ENDROOT
BRANCH 2 9
ATOM      9   O  IDS C   1     135.848  32.793  45.7950  0.00  0.00     0.000 O
ATOM     10   S  IDS C   1     134.383  32.899  45.1740  0.00  0.00     0.000 S
ATOM     11   O  IDS C   1     133.931  34.245  45.4520  0.00  0.00     0.000 OA
ATOM     12   O  IDS C   1     134.540  32.638  43.7580  0.00  0.00     0.000 OA
ATOM     13   O  IDS C   1     133.594  31.893  45.8490  0.00  0.00     0.000 OA
ENDBRANCH 2 9
BRANCH 5 14
ATOM     14   C  IDS C   1     140.009  29.081  46.2700  0.00  0.00     0.000 C
ATOM     15   O  IDS C   1     140.939  29.145  45.5040  0.00  0.00     0.000 OA
ATOM     16   O  IDS C   1     140.112  28.482  47.3270  0.00  0.00     0.000 OA
ENDBRANCH 5 14
BRANCH 1 17
ATOM     17  O4  SGN C   2     138.044  32.727  44.0210  0.00  0.00     0.000 O
BRANCH 17 21
ATOM     18  C1  SGN C   2     139.514  36.599  43.4100  0.00  0.00     0.000 C
ATOM     19  C2  SGN C   2     139.498  36.090  44.8570  0.00  0.00     0.000 C
ATOM     20  C3  SGN C   2     139.349  34.564  44.8700  0.00  0.00     0.000 C
ATOM     21  C4  SGN C   2     138.130  34.149  44.0540  0.00  0.00     0.000 C
ATOM     22  C5  SGN C   2     138.264  34.707  42.6400  0.00  0.00     0.000 C
ATOM     23  O5  SGN C   2     138.384  36.147  42.6920  0.00  0.00     0.000 O
ATOM     24   O  SGN C   2     139.247  34.100  46.2060  0.00  0.00     0.000 O
ATOM     26  HD  SGN C   2     139.515  34.095  45.3820  0.00  0.00     0.000 HD
BRANCH 19 28
ATOM     26   N  SGN C   2     139.916  37.008  45.9260  0.00  0.00     0.000 N
ATOM     28  HD  SGN C   2     139.063  36.927  46.0460  0.00  0.00     0.000 HD
ATOM     28   O  SGN C   2     141.658  37.738  47.5560  0.00  0.00     0.000 OA
ATOM     29   S  SGN C   2     140.748  36.511  47.2080  0.00  0.00     0.000 S
ATOM     30   O  SGN C   2     139.829  36.317  48.2630  0.00  0.00     0.000 OA
ATOM     31   O  SGN C   2     141.579  35.434  46.7930  0.00  0.00     0.000 OA
ENDBRANCH 19 28
BRANCH 22 32
ATOM     32   C  SGN C   2     137.076  34.401  41.7610  0.00  0.00     0.000 C
ATOM     33   S  SGN C   2     134.990  35.598  40.8360  0.00  0.00     0.000 S
ATOM     34   O  SGN C   2     134.293  35.502  42.0940  0.00  0.00     0.000 OA
ATOM     35   O  SGN C   2     134.769  36.851  40.1440  0.00  0.00     0.000 OA
ATOM     36   O  SGN C   2     134.838  34.439  39.9880  0.00  0.00     0.000 OA
ATOM     37   O  SGN C   2     136.533  35.621  41.2420  0.00  0.00     0.000 O
ENDBRANCH 22 32
BRANCH 18 38
ATOM     38  O4  IDS C   3     140.496  36.594  42.5060  0.00  0.00     0.000 O
BRANCH 38 42
ATOM     39  C1  IDS C   3     143.069  35.994  40.2370  0.00  0.00     0.000 C
ATOM     40  C2  IDS C   3     143.354  36.123  41.7420  0.00  0.00     0.000 C
ATOM     41  C3  IDS C   3     142.757  37.410  42.3100  0.00  0.00     0.000 C
ATOM     42  C4  IDS C   3     141.310  37.586  41.8710  0.00  0.00     0.000 C
ATOM     43  C5  IDS C   3     141.209  37.448  40.3470  0.00  0.00     0.000 C
ATOM     44  O5  IDS C   3     141.688  36.161  39.9620  0.00  0.00     0.000 O
ATOM     45   O  IDS C   3     143.533  38.526  41.8710  0.00  0.00     0.000 O
ATOM     47  HD  IDS C   3     143.785  38.831  41.1010  0.00  0.00     0.000 HD
BRANCH 40 47
ATOM     47   O  IDS C   3     142.754  34.988  42.4840  0.00  0.00     0.000 O
ATOM     48   S  IDS C   3     143.632  34.180  43.5480  0.00  0.00     0.000 S
ATOM     49   O  IDS C   3     144.494  33.313  42.7750  0.00  0.00     0.000 OA
ATOM     50   O  IDS C   3     142.678  33.442  44.3470  0.00  0.00     0.000 OA
ATOM     51   O  IDS C   3     144.362  35.163  44.3040  0.00  0.00     0.000 OA
ENDBRANCH 40 47
BRANCH 43 52
ATOM     52   C  IDS C   3     139.799  37.640  39.8330  0.00  0.00     0.000 C
ATOM     53   O  IDS C   3     139.209  36.712  39.3300  0.00  0.00     0.000 OA
ATOM     54   O  IDS C   3     139.271  38.719  39.9280  0.00  0.00     0.000 OA
ENDBRANCH 43 52
BRANCH 39 55
ATOM     55  O4  SGN C   4     143.873  36.477  39.2900  0.00  0.00     0.000 O
BRANCH 55 59
ATOM     56  C1  SGN C   4     144.004  34.162  35.8070  0.00  0.00     0.000 C
ATOM     57  C2  SGN C   4     145.113  33.909  36.8430  0.00  0.00     0.000 C
ATOM     58  C3  SGN C   4     144.736  34.506  38.1960  0.00  0.00     0.000 C
ATOM     59  C4  SGN C   4     144.320  35.965  38.0420  0.00  0.00     0.000 C
ATOM     60  C5  SGN C   4     143.196  36.048  37.0120  0.00  0.00     0.000 C
ATOM     61  O5  SGN C   4     143.694  35.545  35.7560  0.00  0.00     0.000 O
ATOM     62   O  SGN C   4     145.835  34.390  39.0900  0.00  0.00     0.000 O
ATOM     64  HD  SGN C   4     145.930  33.726  38.5420  0.00  0.00     0.000 HD
BRANCH 57 66
ATOM     64   N  SGN C   4     146.408  33.411  36.3530  0.00  0.00     0.000 N
ATOM     66  HD  SGN C   4     146.988  32.821  36.6090  0.00  0.00     0.000 HD
ATOM     66   S  SGN C   4     146.639  31.851  36.1100  0.00  0.00     0.000 S
ATOM     67   O  SGN C   4     147.986  31.678  35.7040  0.00  0.00     0.000 OA
ATOM     68   O  SGN C   4     146.166  31.174  37.2680  0.00  0.00     0.000 OA
ATOM     69   O  SGN C   4     145.690  31.518  34.9140  0.00  0.00     0.000 OA
ENDBRANCH 57 66
BRANCH 60 70
ATOM     70   C  SGN C   4     142.686  37.454  36.7770  0.00  0.00     0.000 C
ATOM     71   O  SGN C   4     144.583  40.316  35.2540  0.00  0.00     0.000 OA
ATOM     72   O  SGN C   4     142.927  38.912  34.1890  0.00  0.00     0.000 OA
ATOM     73   O  SGN C   4     143.763  38.320  36.3690  0.00  0.00     0.000 O
ATOM     74   S  SGN C   4     143.375  39.539  35.4110  0.00  0.00     0.000 S
ATOM     75   O  SGN C   4     142.323  40.244  36.1170  0.00  0.00     0.000 OA
ENDBRANCH 60 70
BRANCH 56 76
ATOM     76  O4  IDS C   5     142.925  33.487  35.3680  0.00  0.00     0.000 O
BRANCH 76 80
ATOM     77  C1  IDS C   5     139.396  33.811  37.3940  0.00  0.00     0.000 C
ATOM     78  C2  IDS C   5     140.221  32.575  37.7500  0.00  0.00     0.000 C
ATOM     79  C3  IDS C   5     141.656  32.767  37.3020  0.00  0.00     0.000 C
ATOM     80  C4  IDS C   5     141.710  32.842  35.7790  0.00  0.00     0.000 C
ATOM     81  C5  IDS C   5     140.490  33.620  35.2650  0.00  0.00     0.000 C
ATOM     82  O5  IDS C   5     139.983  34.488  36.2820  0.00  0.00     0.000 O
BRANCH 78 83
ATOM     83   O  IDS C   5     140.214  32.345  39.2140  0.00  0.00     0.000 O
ATOM     84   S  IDS C   5     139.135  31.362  39.8570  0.00  0.00     0.000 S
ATOM     85   O  IDS C   5     137.865  31.757  39.3100  0.00  0.00     0.000 OA
ATOM     86   O  IDS C   5     139.541  30.037  39.4510  0.00  0.00     0.000 OA
ATOM     87   O  IDS C   5     139.228  31.559  41.2830  0.00  0.00     0.000 OA
ENDBRANCH 78 83
BRANCH 81 88
ATOM     88   C  IDS C   5     140.773  34.468  34.0380  0.00  0.00     0.000 C
ATOM     89   O  IDS C   5     140.907  33.943  32.9650  0.00  0.00     0.000 OA
ATOM     90   O  IDS C   5     140.861  35.670  34.1480  0.00  0.00     0.000 OA
ENDBRANCH 81 88
ENDBRANCH 76 80
ENDBRANCH 56 76
ENDBRANCH 55 59
ENDBRANCH 39 55
ENDBRANCH 38 42
ENDBRANCH 18 38
ENDBRANCH 17 21
ENDBRANCH 1 17
TORSDOF 18
ENDMDL
MODEL 66
REMARK VINA RESULT:      -7.0     22.086     30.029
ROOT
ATOM      1  C1  IDS C   1     159.590  34.235  51.8740  0.00  0.00     0.000 C
ATOM      2  C2  IDS C   1     158.733  33.119  51.2710  0.00  0.00     0.000 C
ATOM      3  C3  IDS C   1     157.268  33.526  51.2290  0.00  0.00     0.000 C
ATOM      4  C4  IDS C   1     156.760  33.849  52.6270  0.00  0.00     0.000 C
ATOM      5  C5  IDS C   1     157.833  34.596  53.4140  0.00  0.00     0.000 C
ATOM      6  O5  IDS C   1     158.767  35.199  52.5190  0.00  0.00     0.000 O
ATOM      7   O  IDS C   1     156.487  32.467  50.6570  0.00  0.00     0.000 O
ATOM      9  HD  IDS C   1     156.952  32.094  50.0290  0.00  0.00     0.000 HD
ENDROOT
BRANCH 2 9
ATOM      9   O  IDS C   1     159.154  32.823  49.8830  0.00  0.00     0.000 O
ATOM     10   S  IDS C   1     159.555  31.331  49.4880  0.00  0.00     0.000 S
ATOM     11   O  IDS C   1     159.898  31.371  48.0840  0.00  0.00     0.000 OA
ATOM     12   O  IDS C   1     160.681  30.992  50.3340  0.00  0.00     0.000 OA
ATOM     13   O  IDS C   1     158.385  30.523  49.7560  0.00  0.00     0.000 OA
ENDBRANCH 2 9
BRANCH 5 14
ATOM     14   C  IDS C   1     157.244  35.681  54.2990  0.00  0.00     0.000 C
ATOM     15   O  IDS C   1     157.968  36.305  55.0350  0.00  0.00     0.000 OA
ATOM     16   O  IDS C   1     156.047  35.911  54.2590  0.00  0.00     0.000 OA
ENDBRANCH 5 14
BRANCH 1 17
ATOM     17  O4  SGN C   2     160.772  34.600  51.3680  0.00  0.00     0.000 O
BRANCH 17 21
ATOM     18  C1  SGN C   2     163.420  37.194  49.4230  0.00  0.00     0.000 C
ATOM     19  C2  SGN C   2     162.098  37.801  49.9110  0.00  0.00     0.000 C
ATOM     20  C3  SGN C   2     161.450  36.871  50.9450  0.00  0.00     0.000 C
ATOM     21  C4  SGN C   2     161.314  35.465  50.3730  0.00  0.00     0.000 C
ATOM     22  C5  SGN C   2     162.688  34.972  49.9300  0.00  0.00     0.000 C
ATOM     23  O5  SGN C   2     163.238  35.878  48.9460  0.00  0.00     0.000 O
ATOM     24   O  SGN C   2     160.188  37.386  51.3330  0.00  0.00     0.000 O
ATOM     26  HD  SGN C   2     160.963  37.018  51.4460  0.00  0.00     0.000 HD
BRANCH 19 28
ATOM     26   N  SGN C   2     162.420  39.234  49.9190  0.00  0.00     0.000 N
ATOM     28  HD  SGN C   2     162.880  38.924  49.2540  0.00  0.00     0.000 HD
ATOM     28   O  SGN C   2     161.701  41.583  50.3530  0.00  0.00     0.000 OA
ATOM     29   S  SGN C   2     161.368  40.353  49.4430  0.00  0.00     0.000 S
ATOM     30   O  SGN C   2     161.675  40.685  48.1050  0.00  0.00     0.000 OA
ATOM     31   O  SGN C   2     160.065  39.887  49.7700  0.00  0.00     0.000 OA
ENDBRANCH 19 28
BRANCH 22 32
ATOM     32   C  SGN C   2     162.656  33.604  49.2930  0.00  0.00     0.000 C
ATOM     33   S  SGN C   2     163.362  32.477  47.0850  0.00  0.00     0.000 S
ATOM     34   O  SGN C   2     162.235  33.019  46.3680  0.00  0.00     0.000 OA
ATOM     35   O  SGN C   2     164.586  32.454  46.3110  0.00  0.00     0.000 OA
ATOM     36   O  SGN C   2     163.086  31.232  47.7620  0.00  0.00     0.000 OA
ATOM     37   O  SGN C   2     163.634  33.536  48.2480  0.00  0.00     0.000 O
ENDBRANCH 22 32
BRANCH 18 38
ATOM     38  O4  IDS C   3     164.621  37.166  50.0040  0.00  0.00     0.000 O
BRANCH 38 42
ATOM     39  C1  IDS C   3     167.364  37.755  52.0670  0.00  0.00     0.000 C
ATOM     40  C2  IDS C   3     166.561  38.920  51.4660  0.00  0.00     0.000 C
ATOM     41  C3  IDS C   3     166.420  38.771  49.9520  0.00  0.00     0.000 C
ATOM     42  C4  IDS C   3     165.973  37.365  49.5750  0.00  0.00     0.000 C
ATOM     43  C5  IDS C   3     166.890  36.332  50.2410  0.00  0.00     0.000 C
ATOM     44  O5  IDS C   3     166.838  36.505  51.6560  0.00  0.00     0.000 O
ATOM     45   O  IDS C   3     167.674  39.061  49.3300  0.00  0.00     0.000 O
ATOM     47  HD  IDS C   3     168.482  38.761  49.4130  0.00  0.00     0.000 HD
BRANCH 40 47
ATOM     47   O  IDS C   3     165.194  38.958  52.0380  0.00  0.00     0.000 O
ATOM     48   S  IDS C   3     164.668  40.288  52.7550  0.00  0.00     0.000 S
ATOM     49   O  IDS C   3     165.293  40.310  54.0600  0.00  0.00     0.000 OA
ATOM     50   O  IDS C   3     163.232  40.136  52.8320  0.00  0.00     0.000 OA
ATOM     51   O  IDS C   3     165.077  41.387  51.9220  0.00  0.00     0.000 OA
ENDBRANCH 40 47
BRANCH 43 52
ATOM     52   C  IDS C   3     166.522  34.908  49.8880  0.00  0.00     0.000 C
ATOM     53   O  IDS C   3     166.691  34.503  48.7610  0.00  0.00     0.000 OA
ATOM     54   O  IDS C   3     166.061  34.184  50.7340  0.00  0.00     0.000 OA
ENDBRANCH 43 52
BRANCH 39 55
ATOM     55  O4  SGN C   4     168.690  37.767  52.2060  0.00  0.00     0.000 O
BRANCH 55 59
ATOM     56  C1  SGN C   4     169.941  38.714  56.0840  0.00  0.00     0.000 C
ATOM     57  C2  SGN C   4     170.360  39.688  54.9700  0.00  0.00     0.000 C
ATOM     58  C3  SGN C   4     169.531  39.457  53.7090  0.00  0.00     0.000 C
ATOM     59  C4  SGN C   4     169.549  37.984  53.3170  0.00  0.00     0.000 C
ATOM     60  C5  SGN C   4     169.079  37.153  54.5090  0.00  0.00     0.000 C
ATOM     61  O5  SGN C   4     169.987  37.380  55.6040  0.00  0.00     0.000 O
ATOM     62   O  SGN C   4     170.035  40.264  52.6530  0.00  0.00     0.000 O
ATOM     64  HD  SGN C   4     170.233  40.701  53.3740  0.00  0.00     0.000 HD
BRANCH 57 66
ATOM     64   N  SGN C   4     170.268  40.981  55.6670  0.00  0.00     0.000 N
ATOM     66  HD  SGN C   4     170.621  41.337  56.3740  0.00  0.00     0.000 HD
ATOM     66   S  SGN C   4     171.584  41.823  55.9910  0.00  0.00     0.000 S
ATOM     67   O  SGN C   4     171.184  42.975  56.7140  0.00  0.00     0.000 OA
ATOM     68   O  SGN C   4     172.521  40.925  56.5710  0.00  0.00     0.000 OA
ATOM     69   O  SGN C   4     172.107  42.251  54.5820  0.00  0.00     0.000 OA
ENDBRANCH 57 66
BRANCH 60 70
ATOM     70   C  SGN C   4     169.044  35.664  54.2390  0.00  0.00     0.000 C
ATOM     71   O  SGN C   4     171.651  33.136  55.1950  0.00  0.00     0.000 OA
ATOM     72   O  SGN C   4     169.547  33.575  56.3030  0.00  0.00     0.000 OA
ATOM     73   O  SGN C   4     170.310  35.061  54.5680  0.00  0.00     0.000 O
ATOM     74   S  SGN C   4     170.271  33.538  55.0530  0.00  0.00     0.000 S
ATOM     75   O  SGN C   4     169.569  32.832  54.0000  0.00  0.00     0.000 OA
ENDBRANCH 60 70
BRANCH 56 76
ATOM     76  O4  IDS C   5     169.077  38.746  57.1150  0.00  0.00     0.000 O
BRANCH 76 80
ATOM     77  C1  IDS C   5     169.535  41.702  59.8930  0.00  0.00     0.000 C
ATOM     78  C2  IDS C   5     170.095  40.343  60.3140  0.00  0.00     0.000 C
ATOM     79  C3  IDS C   5     170.276  39.461  59.0940  0.00  0.00     0.000 C
ATOM     80  C4  IDS C   5     168.914  39.146  58.4840  0.00  0.00     0.000 C
ATOM     81  C5  IDS C   5     168.016  40.389  58.5760  0.00  0.00     0.000 C
ATOM     82  O5  IDS C   5     168.809  41.576  58.6700  0.00  0.00     0.000 O
BRANCH 78 83
ATOM     83   O  IDS C   5     171.410  40.501  60.9780  0.00  0.00     0.000 O
ATOM     84   S  IDS C   5     171.645  39.880  62.4280  0.00  0.00     0.000 S
ATOM     85   O  IDS C   5     170.522  40.296  63.2240  0.00  0.00     0.000 OA
ATOM     86   O  IDS C   5     171.698  38.451  62.2230  0.00  0.00     0.000 OA
ATOM     87   O  IDS C   5     172.901  40.422  62.8860  0.00  0.00     0.000 OA
ENDBRANCH 78 83
BRANCH 81 88
ATOM     88   C  IDS C   5     167.077  40.558  57.3960  0.00  0.00     0.000 C
ATOM     89   O  IDS C   5     167.384  41.279  56.4850  0.00  0.00     0.000 OA
ATOM     90   O  IDS C   5     166.023  39.964  57.3790  0.00  0.00     0.000 OA
ENDBRANCH 81 88
ENDBRANCH 76 80
ENDBRANCH 56 76
ENDBRANCH 55 59
ENDBRANCH 39 55
ENDBRANCH 38 42
ENDBRANCH 18 38
ENDBRANCH 17 21
ENDBRANCH 1 17
TORSDOF 18
ENDMDL
MODEL 67
REMARK VINA RESULT:      -7.0     16.350     19.950
ROOT
ATOM      1  C1  IDS C   1     139.858  34.461  44.7800  0.00  0.00     0.000 C
ATOM      2  C2  IDS C   1     141.203  34.221  44.0900  0.00  0.00     0.000 C
ATOM      3  C3  IDS C   1     142.348  34.325  45.0860  0.00  0.00     0.000 C
ATOM      4  C4  IDS C   1     142.361  35.696  45.7480  0.00  0.00     0.000 C
ATOM      5  C5  IDS C   1     140.933  36.152  46.0340  0.00  0.00     0.000 C
ATOM      6  O5  IDS C   1     140.056  35.026  46.0700  0.00  0.00     0.000 O
ATOM      7   O  IDS C   1     143.596  34.093  44.4170  0.00  0.00     0.000 O
ATOM      9  HD  IDS C   1     143.472  33.485  43.8130  0.00  0.00     0.000 HD
ENDROOT
BRANCH 2 9
ATOM      9   O  IDS C   1     141.255  32.868  43.4910  0.00  0.00     0.000 O
ATOM     10   S  IDS C   1     141.588  32.711  41.9390  0.00  0.00     0.000 S
ATOM     11   O  IDS C   1     141.576  31.289  41.6740  0.00  0.00     0.000 OA
ATOM     12   O  IDS C   1     140.538  33.424  41.2400  0.00  0.00     0.000 OA
ATOM     13   O  IDS C   1     142.893  33.305  41.7530  0.00  0.00     0.000 OA
ENDBRANCH 2 9
BRANCH 5 14
ATOM     14   C  IDS C   1     140.822  36.891  47.3570  0.00  0.00     0.000 C
ATOM     15   O  IDS C   1     141.635  37.739  47.6340  0.00  0.00     0.000 OA
ATOM     16   O  IDS C   1     139.916  36.620  48.1270  0.00  0.00     0.000 OA
ENDBRANCH 5 14
BRANCH 1 17
ATOM     17  O4  SGN C   2     138.773  33.720  44.5370  0.00  0.00     0.000 O
BRANCH 17 21
ATOM     18  C1  SGN C   2     135.968  30.740  45.4180  0.00  0.00     0.000 C
ATOM     19  C2  SGN C   2     136.913  31.150  46.5530  0.00  0.00     0.000 C
ATOM     20  C3  SGN C   2     137.565  32.499  46.2250  0.00  0.00     0.000 C
ATOM     21  C4  SGN C   2     138.230  32.441  44.8550  0.00  0.00     0.000 C
ATOM     22  C5  SGN C   2     137.193  32.029  43.8150  0.00  0.00     0.000 C
ATOM     23  O5  SGN C   2     136.628  30.746  44.1690  0.00  0.00     0.000 O
ATOM     24   O  SGN C   2     138.504  32.838  47.2310  0.00  0.00     0.000 O
ATOM     26  HD  SGN C   2     137.866  32.976  46.6620  0.00  0.00     0.000 HD
BRANCH 19 28
ATOM     26   N  SGN C   2     136.139  30.993  47.7920  0.00  0.00     0.000 N
ATOM     28  HD  SGN C   2     135.570  30.800  47.1680  0.00  0.00     0.000 HD
ATOM     28   O  SGN C   2     136.074  30.367  50.2060  0.00  0.00     0.000 OA
ATOM     29   S  SGN C   2     136.364  29.755  48.7940  0.00  0.00     0.000 S
ATOM     30   O  SGN C   2     135.373  28.790  48.5080  0.00  0.00     0.000 OA
ATOM     31   O  SGN C   2     137.737  29.393  48.7310  0.00  0.00     0.000 OA
ENDBRANCH 19 28
BRANCH 22 32
ATOM     32   C  SGN C   2     137.763  31.884  42.4250  0.00  0.00     0.000 C
ATOM     33   S  SGN C   2     137.713  30.201  40.4740  0.00  0.00     0.000 S
ATOM     34   O  SGN C   2     138.642  29.312  41.1270  0.00  0.00     0.000 OA
ATOM     35   O  SGN C   2     136.656  29.515  39.7610  0.00  0.00     0.000 OA
ATOM     36   O  SGN C   2     138.342  31.247  39.7020  0.00  0.00     0.000 OA
ATOM     37   O  SGN C   2     136.976  30.951  41.6750  0.00  0.00     0.000 O
ENDBRANCH 22 32
BRANCH 18 38
ATOM     38  O4  IDS C   3     134.732  31.155  45.1330  0.00  0.00     0.000 O
BRANCH 38 42
ATOM     39  C1  IDS C   3     131.272  31.307  44.7630  0.00  0.00     0.000 C
ATOM     40  C2  IDS C   3     132.053  30.036  44.3910  0.00  0.00     0.000 C
ATOM     41  C3  IDS C   3     133.209  30.355  43.4430  0.00  0.00     0.000 C
ATOM     42  C4  IDS C   3     134.025  31.537  43.9480  0.00  0.00     0.000 C
ATOM     43  C5  IDS C   3     133.097  32.719  44.2500  0.00  0.00     0.000 C
ATOM     44  O5  IDS C   3     132.142  32.323  45.2330  0.00  0.00     0.000 O
ATOM     45   O  IDS C   3     132.688  30.648  42.1450  0.00  0.00     0.000 O
ATOM     47  HD  IDS C   3     132.108  31.208  41.8300  0.00  0.00     0.000 HD
BRANCH 40 47
ATOM     47   O  IDS C   3     132.632  29.409  45.6030  0.00  0.00     0.000 O
ATOM     48   S  IDS C   3     131.774  28.348  46.4370  0.00  0.00     0.000 S
ATOM     49   O  IDS C   3     130.822  29.122  47.2040  0.00  0.00     0.000 OA
ATOM     50   O  IDS C   3     132.731  27.660  47.2750  0.00  0.00     0.000 OA
ATOM     51   O  IDS C   3     131.144  27.486  45.4720  0.00  0.00     0.000 OA
ENDBRANCH 40 47
BRANCH 43 52
ATOM     52   C  IDS C   3     133.844  33.943  44.7310  0.00  0.00     0.000 C
ATOM     53   O  IDS C   3     133.485  34.512  45.7370  0.00  0.00     0.000 OA
ATOM     54   O  IDS C   3     134.793  34.346  44.1090  0.00  0.00     0.000 OA
ENDBRANCH 43 52
BRANCH 39 55
ATOM     55  O4  SGN C   4     130.231  31.764  44.0670  0.00  0.00     0.000 O
BRANCH 55 59
ATOM     56  C1  SGN C   4     126.542  30.663  45.7050  0.00  0.00     0.000 C
ATOM     57  C2  SGN C   4     126.901  30.045  44.3430  0.00  0.00     0.000 C
ATOM     58  C3  SGN C   4     128.392  30.201  44.0540  0.00  0.00     0.000 C
ATOM     59  C4  SGN C   4     128.825  31.652  44.2360  0.00  0.00     0.000 C
ATOM     60  C5  SGN C   4     128.432  32.108  45.6400  0.00  0.00     0.000 C
ATOM     61  O5  SGN C   4     126.999  32.004  45.7650  0.00  0.00     0.000 O
ATOM     62   O  SGN C   4     128.669  29.758  42.7320  0.00  0.00     0.000 O
ATOM     64  HD  SGN C   4     127.977  29.297  42.9750  0.00  0.00     0.000 HD
BRANCH 57 66
ATOM     64   N  SGN C   4     125.605  29.755  43.7090  0.00  0.00     0.000 N
ATOM     66  HD  SGN C   4     125.321  29.238  43.0750  0.00  0.00     0.000 HD
ATOM     66   S  SGN C   4     125.070  28.255  43.6050  0.00  0.00     0.000 S
ATOM     67   O  SGN C   4     123.842  28.289  42.8990  0.00  0.00     0.000 OA
ATOM     68   O  SGN C   4     126.142  27.465  43.1050  0.00  0.00     0.000 OA
ATOM     69   O  SGN C   4     124.803  27.852  45.0910  0.00  0.00     0.000 OA
ENDBRANCH 57 66
BRANCH 60 70
ATOM     70   C  SGN C   4     128.820  33.538  45.9480  0.00  0.00     0.000 C
ATOM     71   O  SGN C   4     127.390  35.734  48.6390  0.00  0.00     0.000 OA
ATOM     72   O  SGN C   4     129.493  34.541  48.6720  0.00  0.00     0.000 OA
ATOM     73   O  SGN C   4     127.911  34.113  46.9070  0.00  0.00     0.000 O
ATOM     74   S  SGN C   4     128.510  35.237  47.8730  0.00  0.00     0.000 S
ATOM     75   O  SGN C   4     129.084  36.224  46.9820  0.00  0.00     0.000 OA
ENDBRANCH 60 70
BRANCH 56 76
ATOM     76  O4  IDS C   5     126.438  30.212  46.9690  0.00  0.00     0.000 O
BRANCH 76 80
ATOM     77  C1  IDS C   5     126.964  28.767  50.7500  0.00  0.00     0.000 C
ATOM     78  C2  IDS C   5     127.913  28.177  49.7070  0.00  0.00     0.000 C
ATOM     79  C3  IDS C   5     127.945  29.064  48.4790  0.00  0.00     0.000 C
ATOM     80  C4  IDS C   5     126.575  29.054  47.8060  0.00  0.00     0.000 C
ATOM     81  C5  IDS C   5     125.480  29.037  48.8820  0.00  0.00     0.000 C
ATOM     82  O5  IDS C   5     125.975  29.575  50.1110  0.00  0.00     0.000 O
BRANCH 78 83
ATOM     83   O  IDS C   5     129.289  28.077  50.2490  0.00  0.00     0.000 O
ATOM     84   S  IDS C   5     129.984  26.647  50.3880  0.00  0.00     0.000 S
ATOM     85   O  IDS C   5     129.023  25.802  51.0440  0.00  0.00     0.000 OA
ATOM     86   O  IDS C   5     130.274  26.234  49.0350  0.00  0.00     0.000 OA
ATOM     87   O  IDS C   5     131.176  26.868  51.1690  0.00  0.00     0.000 OA
ENDBRANCH 78 83
BRANCH 81 88
ATOM     88   C  IDS C   5     124.236  29.823  48.5070  0.00  0.00     0.000 C
ATOM     89   O  IDS C   5     123.417  29.334  47.7750  0.00  0.00     0.000 OA
ATOM     90   O  IDS C   5     124.077  30.938  48.9480  0.00  0.00     0.000 OA
ENDBRANCH 81 88
ENDBRANCH 76 80
ENDBRANCH 56 76
ENDBRANCH 55 59
ENDBRANCH 39 55
ENDBRANCH 38 42
ENDBRANCH 18 38
ENDBRANCH 17 21
ENDBRANCH 1 17
TORSDOF 18
ENDMDL
MODEL 68
REMARK VINA RESULT:      -7.0     21.052     26.375
ROOT
ATOM      1  C1  IDS C   1     168.310  34.217  54.3640  0.00  0.00     0.000 C
ATOM      2  C2  IDS C   1     169.642  34.899  54.6880  0.00  0.00     0.000 C
ATOM      3  C3  IDS C   1     170.801  33.927  54.5270  0.00  0.00     0.000 C
ATOM      4  C4  IDS C   1     170.620  32.721  55.4380  0.00  0.00     0.000 C
ATOM      5  C5  IDS C   1     169.153  32.305  55.4720  0.00  0.00     0.000 C
ATOM      6  O5  IDS C   1     168.474  32.805  54.3190  0.00  0.00     0.000 O
ATOM      7   O  IDS C   1     172.036  34.590  54.8310  0.00  0.00     0.000 O
ATOM      9  HD  IDS C   1     171.985  35.406  54.5460  0.00  0.00     0.000 HD
ENDROOT
BRANCH 2 9
ATOM      9   O  IDS C   1     169.885  36.039  53.7740  0.00  0.00     0.000 O
ATOM     10   S  IDS C   1     170.176  37.484  54.3840  0.00  0.00     0.000 S
ATOM     11   O  IDS C   1     170.382  38.358  53.2510  0.00  0.00     0.000 OA
ATOM     12   O  IDS C   1     168.997  37.826  55.1540  0.00  0.00     0.000 OA
ATOM     13   O  IDS C   1     171.359  37.336  55.2020  0.00  0.00     0.000 OA
ENDBRANCH 2 9
BRANCH 5 14
ATOM     14   C  IDS C   1     168.985  30.796  55.5120  0.00  0.00     0.000 C
ATOM     15   O  IDS C   1     168.249  30.259  54.7200  0.00  0.00     0.000 OA
ATOM     16   O  IDS C   1     169.592  30.141  56.3430  0.00  0.00     0.000 OA
ENDBRANCH 5 14
BRANCH 1 17
ATOM     17  O4  SGN C   2     167.351  34.800  53.6390  0.00  0.00     0.000 O
BRANCH 17 21
ATOM     18  C1  SGN C   2     165.145  35.442  50.1390  0.00  0.00     0.000 C
ATOM     19  C2  SGN C   2     166.093  34.236  50.1420  0.00  0.00     0.000 C
ATOM     20  C3  SGN C   2     166.489  33.890  51.5820  0.00  0.00     0.000 C
ATOM     21  C4  SGN C   2     167.050  35.122  52.2830  0.00  0.00     0.000 C
ATOM     22  C5  SGN C   2     166.019  36.244  52.2190  0.00  0.00     0.000 C
ATOM     23  O5  SGN C   2     165.699  36.536  50.8390  0.00  0.00     0.000 O
ATOM     24   O  SGN C   2     167.433  32.832  51.5820  0.00  0.00     0.000 O
ATOM     26  HD  SGN C   2     166.740  33.277  51.8500  0.00  0.00     0.000 HD
BRANCH 19 28
ATOM     26   N  SGN C   2     165.564  33.446  49.0220  0.00  0.00     0.000 N
ATOM     28  HD  SGN C   2     165.450  34.265  48.7670  0.00  0.00     0.000 HD
ATOM     28   O  SGN C   2     165.670  31.381  47.6260  0.00  0.00     0.000 OA
ATOM     29   S  SGN C   2     166.521  32.637  48.0140  0.00  0.00     0.000 S
ATOM     30   O  SGN C   2     166.698  33.436  46.8620  0.00  0.00     0.000 OA
ATOM     31   O  SGN C   2     167.657  32.204  48.7510  0.00  0.00     0.000 OA
ENDBRANCH 19 28
BRANCH 22 32
ATOM     32   C  SGN C   2     166.499  37.534  52.8370  0.00  0.00     0.000 C
ATOM     33   S  SGN C   2     165.578  39.874  53.4020  0.00  0.00     0.000 S
ATOM     34   O  SGN C   2     165.653  40.310  52.0300  0.00  0.00     0.000 OA
ATOM     35   O  SGN C   2     164.403  40.354  54.1000  0.00  0.00     0.000 OA
ATOM     36   O  SGN C   2     166.802  40.054  54.1450  0.00  0.00     0.000 OA
ATOM     37   O  SGN C   2     165.377  38.294  53.3010  0.00  0.00     0.000 O
ENDBRANCH 22 32
BRANCH 18 38
ATOM     38  O4  IDS C   3     163.839  35.512  50.4100  0.00  0.00     0.000 O
BRANCH 38 42
ATOM     39  C1  IDS C   3     160.367  35.766  50.4470  0.00  0.00     0.000 C
ATOM     40  C2  IDS C   3     161.242  36.766  51.2200  0.00  0.00     0.000 C
ATOM     41  C3  IDS C   3     162.235  36.042  52.1300  0.00  0.00     0.000 C
ATOM     42  C4  IDS C   3     162.961  34.933  51.3810  0.00  0.00     0.000 C
ATOM     43  C5  IDS C   3     161.942  34.021  50.6870  0.00  0.00     0.000 C
ATOM     44  O5  IDS C   3     161.160  34.798  49.7820  0.00  0.00     0.000 O
ATOM     45   O  IDS C   3     161.537  35.492  53.2480  0.00  0.00     0.000 O
ATOM     47  HD  IDS C   3     160.862  34.958  53.3470  0.00  0.00     0.000 HD
BRANCH 40 47
ATOM     47   O  IDS C   3     162.027  37.603  50.2820  0.00  0.00     0.000 O
ATOM     48   S  IDS C   3     162.052  39.192  50.4650  0.00  0.00     0.000 S
ATOM     49   O  IDS C   3     160.788  39.671  49.9500  0.00  0.00     0.000 OA
ATOM     50   O  IDS C   3     163.178  39.647  49.6790  0.00  0.00     0.000 OA
ATOM     51   O  IDS C   3     162.209  39.437  51.8740  0.00  0.00     0.000 OA
ENDBRANCH 40 47
BRANCH 43 52
ATOM     52   C  IDS C   3     162.592  32.875  49.9440  0.00  0.00     0.000 C
ATOM     53   O  IDS C   3     163.214  32.037  50.5530  0.00  0.00     0.000 OA
ATOM     54   O  IDS C   3     162.485  32.804  48.7460  0.00  0.00     0.000 OA
ENDBRANCH 43 52
BRANCH 39 55
ATOM     55  O4  SGN C   4     159.205  35.296  50.9020  0.00  0.00     0.000 O
BRANCH 55 59
ATOM     56  C1  SGN C   4     155.898  37.856  50.9940  0.00  0.00     0.000 C
ATOM     57  C2  SGN C   4     155.930  36.737  52.0490  0.00  0.00     0.000 C
ATOM     58  C3  SGN C   4     157.331  36.143  52.1650  0.00  0.00     0.000 C
ATOM     59  C4  SGN C   4     157.863  35.749  50.7920  0.00  0.00     0.000 C
ATOM     60  C5  SGN C   4     157.798  36.966  49.8720  0.00  0.00     0.000 C
ATOM     61  O5  SGN C   4     156.422  37.379  49.7650  0.00  0.00     0.000 O
ATOM     62   O  SGN C   4     157.301  35.018  53.0330  0.00  0.00     0.000 O
ATOM     64  HD  SGN C   4     156.655  35.524  53.3110  0.00  0.00     0.000 HD
BRANCH 57 66
ATOM     64   N  SGN C   4     155.131  36.175  53.1490  0.00  0.00     0.000 N
ATOM     66  HD  SGN C   4     154.885  36.432  53.9380  0.00  0.00     0.000 HD
ATOM     66   S  SGN C   4     153.900  36.989  53.7570  0.00  0.00     0.000 S
ATOM     67   O  SGN C   4     153.374  36.226  54.8290  0.00  0.00     0.000 OA
ATOM     68   O  SGN C   4     154.357  38.314  54.0000  0.00  0.00     0.000 OA
ATOM     69   O  SGN C   4     152.865  37.023  52.5880  0.00  0.00     0.000 OA
ENDBRANCH 57 66
BRANCH 60 70
ATOM     70   C  SGN C   4     158.312  36.702  48.4730  0.00  0.00     0.000 C
ATOM     71   O  SGN C   4     159.648  39.237  46.0450  0.00  0.00     0.000 OA
ATOM     72   O  SGN C   4     160.914  37.708  47.4260  0.00  0.00     0.000 OA
ATOM     73   O  SGN C   4     158.542  37.943  47.7770  0.00  0.00     0.000 O
ATOM     74   S  SGN C   4     159.700  37.938  46.6750  0.00  0.00     0.000 S
ATOM     75   O  SGN C   4     159.359  36.849  45.7830  0.00  0.00     0.000 OA
ENDBRANCH 60 70
BRANCH 56 76
ATOM     76  O4  IDS C   5     156.042  39.194  51.0060  0.00  0.00     0.000 O
BRANCH 76 80
ATOM     77  C1  IDS C   5     157.564  42.487  52.8770  0.00  0.00     0.000 C
ATOM     78  C2  IDS C   5     156.572  41.682  53.7170  0.00  0.00     0.000 C
ATOM     79  C3  IDS C   5     156.413  40.292  53.1330  0.00  0.00     0.000 C
ATOM     80  C4  IDS C   5     155.766  40.388  51.7540  0.00  0.00     0.000 C
ATOM     81  C5  IDS C   5     156.313  41.620  51.0200  0.00  0.00     0.000 C
ATOM     82  O5  IDS C   5     157.594  41.987  51.5400  0.00  0.00     0.000 O
BRANCH 78 83
ATOM     83   O  IDS C   5     157.051  41.552  55.1130  0.00  0.00     0.000 O
ATOM     84   S  IDS C   5     156.139  42.067  56.3150  0.00  0.00     0.000 S
ATOM     85   O  IDS C   5     155.717  43.393  55.9520  0.00  0.00     0.000 OA
ATOM     86   O  IDS C   5     155.047  41.125  56.3930  0.00  0.00     0.000 OA
ATOM     87   O  IDS C   5     156.982  42.039  57.4850  0.00  0.00     0.000 OA
ENDBRANCH 78 83
BRANCH 81 88
ATOM     88   C  IDS C   5     156.466  41.427  49.5220  0.00  0.00     0.000 C
ATOM     89   O  IDS C   5     155.559  41.708  48.7860  0.00  0.00     0.000 OA
ATOM     90   O  IDS C   5     157.504  40.991  49.0780  0.00  0.00     0.000 OA
ENDBRANCH 81 88
ENDBRANCH 76 80
ENDBRANCH 56 76
ENDBRANCH 55 59
ENDBRANCH 39 55
ENDBRANCH 38 42
ENDBRANCH 18 38
ENDBRANCH 17 21
ENDBRANCH 1 17
TORSDOF 18
ENDMDL
MODEL 69
REMARK VINA RESULT:      -7.0     17.532     21.688
ROOT
ATOM      1  C1  IDS C   1     148.813  37.837  43.0500  0.00  0.00     0.000 C
ATOM      2  C2  IDS C   1     149.873  38.102  41.9760  0.00  0.00     0.000 C
ATOM      3  C3  IDS C   1     151.273  37.997  42.5620  0.00  0.00     0.000 C
ATOM      4  C4  IDS C   1     151.454  38.989  43.7030  0.00  0.00     0.000 C
ATOM      5  C5  IDS C   1     150.180  39.064  44.5390  0.00  0.00     0.000 C
ATOM      6  O5  IDS C   1     149.397  37.886  44.3450  0.00  0.00     0.000 O
ATOM      7   O  IDS C   1     152.247  38.245  41.5380  0.00  0.00     0.000 O
ATOM      9  HD  IDS C   1     151.955  37.906  40.7970  0.00  0.00     0.000 HD
ENDROOT
BRANCH 2 9
ATOM      9   O  IDS C   1     149.772  37.113  40.8800  0.00  0.00     0.000 O
ATOM     10   S  IDS C   1     149.619  37.622  39.3770  0.00  0.00     0.000 S
ATOM     11   O  IDS C   1     149.562  36.430  38.5590  0.00  0.00     0.000 OA
ATOM     12   O  IDS C   1     148.389  38.386  39.3470  0.00  0.00     0.000 OA
ATOM     13   O  IDS C   1     150.790  38.428  39.1120  0.00  0.00     0.000 OA
ENDBRANCH 2 9
BRANCH 5 14
ATOM     14   C  IDS C   1     150.476  39.207  46.0220  0.00  0.00     0.000 C
ATOM     15   O  IDS C   1     150.675  40.303  46.4850  0.00  0.00     0.000 OA
ATOM     16   O  IDS C   1     150.512  38.215  46.7310  0.00  0.00     0.000 OA
ENDBRANCH 5 14
BRANCH 1 17
ATOM     17  O4  SGN C   2     147.731  37.083  42.8330  0.00  0.00     0.000 O
BRANCH 17 21
ATOM     18  C1  SGN C   2     145.375  33.639  43.1700  0.00  0.00     0.000 C
ATOM     19  C2  SGN C   2     146.539  33.775  44.1600  0.00  0.00     0.000 C
ATOM     20  C3  SGN C   2     147.022  35.230  44.1970  0.00  0.00     0.000 C
ATOM     21  C4  SGN C   2     147.348  35.712  42.7880  0.00  0.00     0.000 C
ATOM     22  C5  SGN C   2     146.118  35.531  41.9040  0.00  0.00     0.000 C
ATOM     23  O5  SGN C   2     145.721  34.140  41.8950  0.00  0.00     0.000 O
ATOM     24   O  SGN C   2     148.153  35.341  45.0460  0.00  0.00     0.000 O
ATOM     26  HD  SGN C   2     147.392  35.573  44.7030  0.00  0.00     0.000 HD
BRANCH 19 28
ATOM     26   N  SGN C   2     146.213  32.746  45.1560  0.00  0.00     0.000 N
ATOM     28  HD  SGN C   2     146.086  32.346  44.3990  0.00  0.00     0.000 HD
ATOM     28   O  SGN C   2     146.627  31.736  47.4000  0.00  0.00     0.000 OA
ATOM     29   S  SGN C   2     147.343  32.011  46.0340  0.00  0.00     0.000 S
ATOM     30   O  SGN C   2     147.625  30.774  45.4150  0.00  0.00     0.000 OA
ATOM     31   O  SGN C   2     148.393  32.944  46.2530  0.00  0.00     0.000 OA
ENDBRANCH 19 28
BRANCH 22 32
ATOM     32   C  SGN C   2     146.351  35.926  40.4660  0.00  0.00     0.000 C
ATOM     33   S  SGN C   2     145.328  35.481  38.1430  0.00  0.00     0.000 S
ATOM     34   O  SGN C   2     145.927  34.173  38.0540  0.00  0.00     0.000 OA
ATOM     35   O  SGN C   2     143.986  35.543  37.6030  0.00  0.00     0.000 OA
ATOM     36   O  SGN C   2     146.182  36.552  37.6850  0.00  0.00     0.000 OA
ATOM     37   O  SGN C   2     145.151  35.726  39.7100  0.00  0.00     0.000 O
ENDBRANCH 22 32
BRANCH 18 38
ATOM     38  O4  IDS C   3     144.087  33.960  43.3060  0.00  0.00     0.000 O
BRANCH 38 42
ATOM     39  C1  IDS C   3     140.861  35.272  43.2730  0.00  0.00     0.000 C
ATOM     40  C2  IDS C   3     141.998  35.983  44.0250  0.00  0.00     0.000 C
ATOM     41  C3  IDS C   3     142.714  35.026  44.9770  0.00  0.00     0.000 C
ATOM     42  C4  IDS C   3     143.067  33.719  44.2810  0.00  0.00     0.000 C
ATOM     43  C5  IDS C   3     141.821  33.138  43.6030  0.00  0.00     0.000 C
ATOM     44  O5  IDS C   3     141.322  34.081  42.6560  0.00  0.00     0.000 O
ATOM     45   O  IDS C   3     141.874  34.762  46.1020  0.00  0.00     0.000 O
ATOM     47  HD  IDS C   3     141.067  34.466  46.2080  0.00  0.00     0.000 HD
BRANCH 40 47
ATOM     47   O  IDS C   3     143.008  36.501  43.0720  0.00  0.00     0.000 O
ATOM     48   S  IDS C   3     143.114  38.074  42.8010  0.00  0.00     0.000 S
ATOM     49   O  IDS C   3     142.011  38.400  41.9220  0.00  0.00     0.000 OA
ATOM     50   O  IDS C   3     144.400  38.265  42.1680  0.00  0.00     0.000 OA
ATOM     51   O  IDS C   3     143.013  38.715  44.0840  0.00  0.00     0.000 OA
ENDBRANCH 40 47
BRANCH 43 52
ATOM     52   C  IDS C   3     142.090  31.819  42.9120  0.00  0.00     0.000 C
ATOM     53   O  IDS C   3     142.013  31.743  41.7080  0.00  0.00     0.000 OA
ATOM     54   O  IDS C   3     142.380  30.851  43.5670  0.00  0.00     0.000 OA
ENDBRANCH 43 52
BRANCH 39 55
ATOM     55  O4  SGN C   4     139.609  35.200  43.7240  0.00  0.00     0.000 O
BRANCH 55 59
ATOM     56  C1  SGN C   4     136.468  34.877  40.9790  0.00  0.00     0.000 C
ATOM     57  C2  SGN C   4     137.179  36.239  41.0530  0.00  0.00     0.000 C
ATOM     58  C3  SGN C   4     138.518  36.113  41.7740  0.00  0.00     0.000 C
ATOM     59  C4  SGN C   4     138.343  35.404  43.1130  0.00  0.00     0.000 C
ATOM     60  C5  SGN C   4     137.658  34.061  42.8710  0.00  0.00     0.000 C
ATOM     61  O5  SGN C   4     136.370  34.310  42.2750  0.00  0.00     0.000 O
ATOM     62   O  SGN C   4     139.082  37.404  41.9600  0.00  0.00     0.000 O
ATOM     64  HD  SGN C   4     138.597  37.480  41.2470  0.00  0.00     0.000 HD
BRANCH 57 66
ATOM     64   N  SGN C   4     137.275  36.768  39.6830  0.00  0.00     0.000 N
ATOM     66  HD  SGN C   4     136.739  36.861  39.0100  0.00  0.00     0.000 HD
ATOM     66   S  SGN C   4     136.260  37.889  39.1730  0.00  0.00     0.000 S
ATOM     67   O  SGN C   4     136.561  38.146  37.8120  0.00  0.00     0.000 OA
ATOM     68   O  SGN C   4     134.952  37.459  39.5300  0.00  0.00     0.000 OA
ATOM     69   O  SGN C   4     136.627  39.141  40.0310  0.00  0.00     0.000 OA
ENDBRANCH 57 66
BRANCH 60 70
ATOM     70   C  SGN C   4     137.436  33.253  44.1320  0.00  0.00     0.000 C
ATOM     71   O  SGN C   4     139.821  30.809  45.6950  0.00  0.00     0.000 OA
ATOM     72   O  SGN C   4     139.385  33.087  46.3800  0.00  0.00     0.000 OA
ATOM     73   O  SGN C   4     138.483  32.278  44.2980  0.00  0.00     0.000 O
ATOM     74   S  SGN C   4     138.851  31.875  45.8010  0.00  0.00     0.000 S
ATOM     75   O  SGN C   4     137.595  31.457  46.3910  0.00  0.00     0.000 OA
ENDBRANCH 60 70
BRANCH 56 76
ATOM     76  O4  IDS C   5     136.411  33.869  40.0890  0.00  0.00     0.000 O
BRANCH 76 80
ATOM     77  C1  IDS C   5     138.960  30.809  39.1950  0.00  0.00     0.000 C
ATOM     78  C2  IDS C   5     139.372  32.166  38.6240  0.00  0.00     0.000 C
ATOM     79  C3  IDS C   5     138.641  33.275  39.3540  0.00  0.00     0.000 C
ATOM     80  C4  IDS C   5     137.145  33.174  39.0700  0.00  0.00     0.000 C
ATOM     81  C5  IDS C   5     136.735  31.695  39.0280  0.00  0.00     0.000 C
ATOM     82  O5  IDS C   5     137.658  30.896  39.7730  0.00  0.00     0.000 O
BRANCH 78 83
ATOM     83   O  IDS C   5     140.830  32.381  38.7840  0.00  0.00     0.000 O
ATOM     84   S  IDS C   5     141.786  32.315  37.5090  0.00  0.00     0.000 S
ATOM     85   O  IDS C   5     141.435  31.106  36.8130  0.00  0.00     0.000 OA
ATOM     86   O  IDS C   5     141.492  33.511  36.7540  0.00  0.00     0.000 OA
ATOM     87   O  IDS C   5     143.131  32.303  38.0300  0.00  0.00     0.000 OA
ENDBRANCH 78 83
BRANCH 81 88
ATOM     88   C  IDS C   5     135.347  31.425  39.5790  0.00  0.00     0.000 C
ATOM     89   O  IDS C   5     135.219  30.983  40.6900  0.00  0.00     0.000 OA
ATOM     90   O  IDS C   5     134.375  31.658  38.8970  0.00  0.00     0.000 OA
ENDBRANCH 81 88
ENDBRANCH 76 80
ENDBRANCH 56 76
ENDBRANCH 55 59
ENDBRANCH 39 55
ENDBRANCH 38 42
ENDBRANCH 18 38
ENDBRANCH 17 21
ENDBRANCH 1 17
TORSDOF 18
ENDMDL
MODEL 70
REMARK VINA RESULT:      -7.0     21.222     24.838
ROOT
ATOM      1  C1  IDS C   1     147.575  35.075  72.6620  0.00  0.00     0.000 C
ATOM      2  C2  IDS C   1     149.076  35.043  72.3590  0.00  0.00     0.000 C
ATOM      3  C3  IDS C   1     149.693  36.423  72.5370  0.00  0.00     0.000 C
ATOM      4  C4  IDS C   1     149.017  37.436  71.6240  0.00  0.00     0.000 C
ATOM      5  C5  IDS C   1     147.516  37.171  71.5680  0.00  0.00     0.000 C
ATOM      6  O5  IDS C   1     147.108  36.417  72.7100  0.00  0.00     0.000 O
ATOM      7   O  IDS C   1     151.098  36.366  72.2520  0.00  0.00     0.000 O
ATOM      9  HD  IDS C   1     151.403  35.607  72.5360  0.00  0.00     0.000 HD
ENDROOT
BRANCH 2 9
ATOM      9   O  IDS C   1     149.779  34.117  73.2750  0.00  0.00     0.000 O
ATOM     10   S  IDS C   1     150.620  32.905  72.6700  0.00  0.00     0.000 S
ATOM     11   O  IDS C   1     151.186  32.210  73.8050  0.00  0.00     0.000 OA
ATOM     12   O  IDS C   1     149.668  32.100  71.9330  0.00  0.00     0.000 OA
ATOM     13   O  IDS C   1     151.626  33.506  71.8220  0.00  0.00     0.000 OA
ENDBRANCH 2 9
BRANCH 5 14
ATOM     14   C  IDS C   1     146.708  38.457  71.5260  0.00  0.00     0.000 C
ATOM     15   O  IDS C   1     147.268  39.515  71.6750  0.00  0.00     0.000 OA
ATOM     16   O  IDS C   1     145.503  38.409  71.3450  0.00  0.00     0.000 OA
ENDBRANCH 5 14
BRANCH 1 17
ATOM     17  O4  SGN C   2     146.956  34.128  73.3720  0.00  0.00     0.000 O
BRANCH 17 21
ATOM     18  C1  SGN C   2     144.663  32.764  76.5980  0.00  0.00     0.000 C
ATOM     19  C2  SGN C   2     144.796  34.284  76.4440  0.00  0.00     0.000 C
ATOM     20  C3  SGN C   2     145.280  34.623  75.0290  0.00  0.00     0.000 C
ATOM     21  C4  SGN C   2     146.557  33.853  74.7130  0.00  0.00     0.000 C
ATOM     22  C5  SGN C   2     146.298  32.361  74.8960  0.00  0.00     0.000 C
ATOM     23  O5  SGN C   2     145.861  32.103  76.2510  0.00  0.00     0.000 O
ATOM     24   O  SGN C   2     145.487  36.020  74.9110  0.00  0.00     0.000 O
ATOM     26  HD  SGN C   2     145.223  35.233  74.6630  0.00  0.00     0.000 HD
BRANCH 19 28
ATOM     26   N  SGN C   2     143.646  34.760  77.2250  0.00  0.00     0.000 N
ATOM     28  HD  SGN C   2     143.863  34.015  77.6110  0.00  0.00     0.000 HD
ATOM     28   O  SGN C   2     142.334  36.668  78.1520  0.00  0.00     0.000 OA
ATOM     29   S  SGN C   2     143.750  36.006  78.2360  0.00  0.00     0.000 S
ATOM     30   O  SGN C   2     143.928  35.485  79.5370  0.00  0.00     0.000 OA
ATOM     31   O  SGN C   2     144.708  36.913  77.7050  0.00  0.00     0.000 OA
ENDBRANCH 19 28
BRANCH 22 32
ATOM     32   C  SGN C   2     147.521  31.508  74.6630  0.00  0.00     0.000 C
ATOM     33   S  SGN C   2     149.084  29.954  75.9990  0.00  0.00     0.000 S
ATOM     34   O  SGN C   2     149.770  31.062  76.6160  0.00  0.00     0.000 OA
ATOM     35   O  SGN C   2     148.870  28.834  76.8920  0.00  0.00     0.000 OA
ATOM     36   O  SGN C   2     149.619  29.572  74.7140  0.00  0.00     0.000 OA
ATOM     37   O  SGN C   2     147.622  30.519  75.6940  0.00  0.00     0.000 O
ENDBRANCH 22 32
BRANCH 18 38
ATOM     38  O4  IDS C   3     143.703  31.936  76.1790  0.00  0.00     0.000 O
BRANCH 38 42
ATOM     39  C1  IDS C   3     140.668  30.231  76.0940  0.00  0.00     0.000 C
ATOM     40  C2  IDS C   3     141.391  30.494  77.4240  0.00  0.00     0.000 C
ATOM     41  C3  IDS C   3     142.844  30.021  77.3660  0.00  0.00     0.000 C
ATOM     42  C4  IDS C   3     143.534  30.517  76.1030  0.00  0.00     0.000 C
ATOM     43  C5  IDS C   3     142.691  30.155  74.8740  0.00  0.00     0.000 C
ATOM     44  O5  IDS C   3     141.402  30.754  75.0000  0.00  0.00     0.000 O
ATOM     45   O  IDS C   3     142.879  28.594  77.4070  0.00  0.00     0.000 O
ATOM     47  HD  IDS C   3     142.520  27.959  76.9390  0.00  0.00     0.000 HD
BRANCH 40 47
ATOM     47   O  IDS C   3     141.407  31.944  77.7300  0.00  0.00     0.000 O
ATOM     48   S  IDS C   3     140.099  32.646  78.3240  0.00  0.00     0.000 S
ATOM     49   O  IDS C   3     139.197  32.818  77.2060  0.00  0.00     0.000 OA
ATOM     50   O  IDS C   3     140.556  33.908  78.8650  0.00  0.00     0.000 OA
ATOM     51   O  IDS C   3     139.580  31.756  79.3280  0.00  0.00     0.000 OA
ENDBRANCH 40 47
BRANCH 43 52
ATOM     52   C  IDS C   3     143.330  30.593  73.5750  0.00  0.00     0.000 C
ATOM     53   O  IDS C   3     143.938  29.792  72.9030  0.00  0.00     0.000 OA
ATOM     54   O  IDS C   3     143.229  31.738  73.2160  0.00  0.00     0.000 OA
ENDBRANCH 43 52
BRANCH 39 55
ATOM     55  O4  SGN C   4     140.015  29.101  75.8190  0.00  0.00     0.000 O
BRANCH 55 59
ATOM     56  C1  SGN C   4     137.585  27.770  78.9530  0.00  0.00     0.000 C
ATOM     57  C2  SGN C   4     138.683  26.804  78.4770  0.00  0.00     0.000 C
ATOM     58  C3  SGN C   4     139.723  27.539  77.6340  0.00  0.00     0.000 C
ATOM     59  C4  SGN C   4     139.047  28.341  76.5280  0.00  0.00     0.000 C
ATOM     60  C5  SGN C   4     138.014  29.273  77.1580  0.00  0.00     0.000 C
ATOM     61  O5  SGN C   4     137.037  28.465  77.8450  0.00  0.00     0.000 O
ATOM     62   O  SGN C   4     140.639  26.601  77.0860  0.00  0.00     0.000 O
ATOM     64  HD  SGN C   4     140.366  26.233  77.8200  0.00  0.00     0.000 HD
BRANCH 57 66
ATOM     64   N  SGN C   4     137.975  25.718  79.1730  0.00  0.00     0.000 N
ATOM     66  HD  SGN C   4     138.027  24.854  79.2000  0.00  0.00     0.000 HD
ATOM     66   S  SGN C   4     138.783  24.644  80.0350  0.00  0.00     0.000 S
ATOM     67   O  SGN C   4     137.846  23.701  80.5260  0.00  0.00     0.000 OA
ATOM     68   O  SGN C   4     139.869  24.198  79.2320  0.00  0.00     0.000 OA
ATOM     69   O  SGN C   4     139.352  25.478  81.2270  0.00  0.00     0.000 OA
ENDBRANCH 57 66
BRANCH 60 70
ATOM     70   C  SGN C   4     137.277  30.135  76.1560  0.00  0.00     0.000 C
ATOM     71   O  SGN C   4     133.626  31.015  76.1890  0.00  0.00     0.000 OA
ATOM     72   O  SGN C   4     135.482  32.397  76.8920  0.00  0.00     0.000 OA
ATOM     73   O  SGN C   4     135.856  30.072  76.3830  0.00  0.00     0.000 O
ATOM     74   S  SGN C   4     135.012  31.371  75.9880  0.00  0.00     0.000 S
ATOM     75   O  SGN C   4     135.349  31.625  74.6020  0.00  0.00     0.000 OA
ENDBRANCH 60 70
BRANCH 56 76
ATOM     76  O4  IDS C   5     137.375  28.522  80.0500  0.00  0.00     0.000 O
BRANCH 76 80
ATOM     77  C1  IDS C   5     133.416  29.327  80.6320  0.00  0.00     0.000 C
ATOM     78  C2  IDS C   5     134.287  30.562  80.4010  0.00  0.00     0.000 C
ATOM     79  C3  IDS C   5     135.605  30.151  79.7730  0.00  0.00     0.000 C
ATOM     80  C4  IDS C   5     136.396  29.297  80.7590  0.00  0.00     0.000 C
ATOM     81  C5  IDS C   5     135.433  28.377  81.5220  0.00  0.00     0.000 C
ATOM     82  O5  IDS C   5     134.236  28.166  80.7680  0.00  0.00     0.000 O
BRANCH 78 83
ATOM     83   O  IDS C   5     133.612  31.517  79.4920  0.00  0.00     0.000 O
ATOM     84   S  IDS C   5     133.388  33.028  79.9540  0.00  0.00     0.000 S
ATOM     85   O  IDS C   5     132.820  32.958  81.2740  0.00  0.00     0.000 OA
ATOM     86   O  IDS C   5     134.701  33.629  79.9330  0.00  0.00     0.000 OA
ATOM     87   O  IDS C   5     132.496  33.606  78.9790  0.00  0.00     0.000 OA
ENDBRANCH 78 83
BRANCH 81 88
ATOM     88   C  IDS C   5     136.013  27.013  81.8490  0.00  0.00     0.000 C
ATOM     89   O  IDS C   5     135.647  26.044  81.2380  0.00  0.00     0.000 OA
ATOM     90   O  IDS C   5     136.844  26.909  82.7220  0.00  0.00     0.000 OA
ENDBRANCH 81 88
ENDBRANCH 76 80
ENDBRANCH 56 76
ENDBRANCH 55 59
ENDBRANCH 39 55
ENDBRANCH 38 42
ENDBRANCH 18 38
ENDBRANCH 17 21
ENDBRANCH 1 17
TORSDOF 18
ENDMDL
MODEL 71
REMARK VINA RESULT:      -7.0     19.169     23.426
ROOT
ATOM      1  C1  IDS C   1     161.156  34.240  46.4340  0.00  0.00     0.000 C
ATOM      2  C2  IDS C   1     162.481  33.545  46.1080  0.00  0.00     0.000 C
ATOM      3  C3  IDS C   1     163.130  34.168  44.8800  0.00  0.00     0.000 C
ATOM      4  C4  IDS C   1     162.203  34.072  43.6760  0.00  0.00     0.000 C
ATOM      5  C5  IDS C   1     160.761  34.327  44.1040  0.00  0.00     0.000 C
ATOM      6  O5  IDS C   1     160.735  35.043  45.3390  0.00  0.00     0.000 O
ATOM      7   O  IDS C   1     164.370  33.504  44.5970  0.00  0.00     0.000 O
ATOM      9  HD  IDS C   1     164.746  33.298  45.3500  0.00  0.00     0.000 HD
ENDROOT
BRANCH 2 9
ATOM      9   O  IDS C   1     163.436  33.676  47.2320  0.00  0.00     0.000 O
ATOM     10   S  IDS C   1     163.940  32.365  47.9880  0.00  0.00     0.000 S
ATOM     11   O  IDS C   1     164.858  32.824  49.0070  0.00  0.00     0.000 OA
ATOM     12   O  IDS C   1     162.749  31.750  48.5370  0.00  0.00     0.000 OA
ATOM     13   O  IDS C   1     164.583  31.551  46.9800  0.00  0.00     0.000 OA
ENDBRANCH 2 9
BRANCH 5 14
ATOM     14   C  IDS C   1     159.989  35.126  43.0680  0.00  0.00     0.000 C
ATOM     15   O  IDS C   1     158.784  35.162  43.1240  0.00  0.00     0.000 OA
ATOM     16   O  IDS C   1     160.591  35.721  42.1900  0.00  0.00     0.000 OA
ENDBRANCH 5 14
BRANCH 1 17
ATOM     17  O4  SGN C   2     160.791  34.563  47.6780  0.00  0.00     0.000 O
BRANCH 17 21
ATOM     18  C1  SGN C   2     160.747  37.171  50.9520  0.00  0.00     0.000 C
ATOM     19  C2  SGN C   2     161.484  37.656  49.6980  0.00  0.00     0.000 C
ATOM     20  C3  SGN C   2     161.060  36.815  48.4880  0.00  0.00     0.000 C
ATOM     21  C4  SGN C   2     161.252  35.332  48.7860  0.00  0.00     0.000 C
ATOM     22  C5  SGN C   2     160.471  34.972  50.0460  0.00  0.00     0.000 C
ATOM     23  O5  SGN C   2     160.926  35.785  51.1520  0.00  0.00     0.000 O
ATOM     24   O  SGN C   2     161.804  37.204  47.3450  0.00  0.00     0.000 O
ATOM     26  HD  SGN C   2     161.100  36.968  47.7910  0.00  0.00     0.000 HD
BRANCH 19 28
ATOM     26   N  SGN C   2     161.507  39.109  49.9140  0.00  0.00     0.000 N
ATOM     28  HD  SGN C   2     161.496  38.782  50.7160  0.00  0.00     0.000 HD
ATOM     28   O  SGN C   2     162.247  41.370  49.1640  0.00  0.00     0.000 OA
ATOM     29   S  SGN C   2     162.821  39.997  49.6500  0.00  0.00     0.000 S
ATOM     30   O  SGN C   2     163.461  40.190  50.8950  0.00  0.00     0.000 OA
ATOM     31   O  SGN C   2     163.538  39.399  48.5770  0.00  0.00     0.000 OA
ENDBRANCH 19 28
BRANCH 22 32
ATOM     32   C  SGN C   2     160.640  33.532  50.4640  0.00  0.00     0.000 C
ATOM     33   S  SGN C   2     159.274  31.347  50.4900  0.00  0.00     0.000 S
ATOM     34   O  SGN C   2     158.504  31.762  51.6360  0.00  0.00     0.000 OA
ATOM     35   O  SGN C   2     158.499  30.630  49.4990  0.00  0.00     0.000 OA
ATOM     36   O  SGN C   2     160.522  30.702  50.8220  0.00  0.00     0.000 OA
ATOM     37   O  SGN C   2     159.685  32.715  49.7770  0.00  0.00     0.000 O
ENDBRANCH 22 32
BRANCH 18 38
ATOM     38  O4  IDS C   3     159.496  37.398  51.3580  0.00  0.00     0.000 O
BRANCH 38 42
ATOM     39  C1  IDS C   3     156.250  38.658  51.2870  0.00  0.00     0.000 C
ATOM     40  C2  IDS C   3     157.434  39.491  50.7710  0.00  0.00     0.000 C
ATOM     41  C3  IDS C   3     158.550  39.570  51.8130  0.00  0.00     0.000 C
ATOM     42  C4  IDS C   3     158.876  38.193  52.3750  0.00  0.00     0.000 C
ATOM     43  C5  IDS C   3     157.590  37.512  52.8600  0.00  0.00     0.000 C
ATOM     44  O5  IDS C   3     156.683  37.396  51.7650  0.00  0.00     0.000 O
ATOM     45   O  IDS C   3     158.148  40.441  52.8720  0.00  0.00     0.000 O
ATOM     47  HD  IDS C   3     157.470  40.479  53.4090  0.00  0.00     0.000 HD
BRANCH 40 47
ATOM     47   O  IDS C   3     158.008  38.879  49.5490  0.00  0.00     0.000 O
ATOM     48   S  IDS C   3     158.352  39.797  48.2860  0.00  0.00     0.000 S
ATOM     49   O  IDS C   3     157.087  40.075  47.6400  0.00  0.00     0.000 OA
ATOM     50   O  IDS C   3     159.230  38.996  47.4610  0.00  0.00     0.000 OA
ATOM     51   O  IDS C   3     158.986  40.981  48.8030  0.00  0.00     0.000 OA
ENDBRANCH 40 47
BRANCH 43 52
ATOM     52   C  IDS C   3     157.841  36.146  53.4600  0.00  0.00     0.000 C
ATOM     53   O  IDS C   3     157.788  35.162  52.7590  0.00  0.00     0.000 OA
ATOM     54   O  IDS C   3     158.092  36.046  54.6340  0.00  0.00     0.000 OA
ENDBRANCH 43 52
BRANCH 39 55
ATOM     55  O4  SGN C   4     155.224  39.173  51.9650  0.00  0.00     0.000 O
BRANCH 55 59
ATOM     56  C1  SGN C   4     151.798  39.938  49.6890  0.00  0.00     0.000 C
ATOM     57  C2  SGN C   4     152.825  41.079  49.7890  0.00  0.00     0.000 C
ATOM     58  C3  SGN C   4     154.168  40.555  50.2920  0.00  0.00     0.000 C
ATOM     59  C4  SGN C   4     153.984  39.741  51.5670  0.00  0.00     0.000 C
ATOM     60  C5  SGN C   4     152.967  38.634  51.3000  0.00  0.00     0.000 C
ATOM     61  O5  SGN C   4     151.718  39.248  50.9250  0.00  0.00     0.000 O
ATOM     62   O  SGN C   4     155.050  41.647  50.5170  0.00  0.00     0.000 O
ATOM     64  HD  SGN C   4     154.518  41.923  49.8920  0.00  0.00     0.000 HD
BRANCH 57 66
ATOM     64   N  SGN C   4     151.832  42.100  49.4200  0.00  0.00     0.000 N
ATOM     66  HD  SGN C   4     151.826  42.961  49.3240  0.00  0.00     0.000 HD
ATOM     66   S  SGN C   4     152.124  43.123  48.2300  0.00  0.00     0.000 S
ATOM     67   O  SGN C   4     151.023  44.013  48.1550  0.00  0.00     0.000 OA
ATOM     68   O  SGN C   4     153.430  43.644  48.4400  0.00  0.00     0.000 OA
ATOM     69   O  SGN C   4     152.146  42.216  46.9580  0.00  0.00     0.000 OA
ENDBRANCH 57 66
BRANCH 60 70
ATOM     70   C  SGN C   4     152.703  37.744  52.4960  0.00  0.00     0.000 C
ATOM     71   O  SGN C   4     154.595  34.647  53.4630  0.00  0.00     0.000 OA
ATOM     72   O  SGN C   4     154.801  36.859  54.4190  0.00  0.00     0.000 OA
ATOM     73   O  SGN C   4     153.497  36.545  52.4170  0.00  0.00     0.000 O
ATOM     74   S  SGN C   4     153.929  35.882  53.8070  0.00  0.00     0.000 S
ATOM     75   O  SGN C   4     152.686  35.688  54.5270  0.00  0.00     0.000 OA
ENDBRANCH 60 70
BRANCH 56 76
ATOM     76  O4  IDS C   5     151.390  39.094  48.7240  0.00  0.00     0.000 O
BRANCH 76 80
ATOM     77  C1  IDS C   5     150.628  36.388  45.7650  0.00  0.00     0.000 C
ATOM     78  C2  IDS C   5     149.851  36.148  47.0590  0.00  0.00     0.000 C
ATOM     79  C3  IDS C   5     149.858  37.407  47.9040  0.00  0.00     0.000 C
ATOM     80  C4  IDS C   5     151.282  37.710  48.3580  0.00  0.00     0.000 C
ATOM     81  C5  IDS C   5     152.260  37.378  47.2210  0.00  0.00     0.000 C
ATOM     82  O5  IDS C   5     151.593  37.422  45.9560  0.00  0.00     0.000 O
BRANCH 78 83
ATOM     83   O  IDS C   5     148.444  35.788  46.7660  0.00  0.00     0.000 O
ATOM     84   S  IDS C   5     147.796  34.501  47.4510  0.00  0.00     0.000 S
ATOM     85   O  IDS C   5     148.738  33.432  47.2540  0.00  0.00     0.000 OA
ATOM     86   O  IDS C   5     147.623  34.857  48.8400  0.00  0.00     0.000 OA
ATOM     87   O  IDS C   5     146.541  34.287  46.7720  0.00  0.00     0.000 OA
ENDBRANCH 78 83
BRANCH 81 88
ATOM     88   C  IDS C   5     153.453  38.313  47.1420  0.00  0.00     0.000 C
ATOM     89   O  IDS C   5     153.468  39.196  46.3260  0.00  0.00     0.000 OA
ATOM     90   O  IDS C   5     154.381  38.165  47.9020  0.00  0.00     0.000 OA
ENDBRANCH 81 88
ENDBRANCH 76 80
ENDBRANCH 56 76
ENDBRANCH 55 59
ENDBRANCH 39 55
ENDBRANCH 38 42
ENDBRANCH 18 38
ENDBRANCH 17 21
ENDBRANCH 1 17
TORSDOF 18
ENDMDL
MODEL 72
REMARK VINA RESULT:      -7.0     21.701     29.942
ROOT
ATOM      1  C1  IDS C   1     159.606  34.453  51.7390  0.00  0.00     0.000 C
ATOM      2  C2  IDS C   1     158.801  33.277  51.1790  0.00  0.00     0.000 C
ATOM      3  C3  IDS C   1     157.320  33.621  51.1070  0.00  0.00     0.000 C
ATOM      4  C4  IDS C   1     156.786  33.984  52.4860  0.00  0.00     0.000 C
ATOM      5  C5  IDS C   1     157.820  34.807  53.2480  0.00  0.00     0.000 C
ATOM      6  O5  IDS C   1     158.738  35.409  52.3350  0.00  0.00     0.000 O
ATOM      7   O  IDS C   1     156.588  32.507  50.5760  0.00  0.00     0.000 O
ATOM      9  HD  IDS C   1     157.075  32.126  49.9690  0.00  0.00     0.000 HD
ENDROOT
BRANCH 2 9
ATOM      9   O  IDS C   1     159.247  32.938  49.8080  0.00  0.00     0.000 O
ATOM     10   S  IDS C   1     159.627  31.429  49.4590  0.00  0.00     0.000 S
ATOM     11   O  IDS C   1     160.002  31.429  48.0620  0.00  0.00     0.000 OA
ATOM     12   O  IDS C   1     160.727  31.091  50.3380  0.00  0.00     0.000 OA
ATOM     13   O  IDS C   1     158.436  30.651  49.7200  0.00  0.00     0.000 OA
ENDBRANCH 2 9
BRANCH 5 14
ATOM     14   C  IDS C   1     157.179  35.905  54.0790  0.00  0.00     0.000 C
ATOM     15   O  IDS C   1     157.841  36.853  54.4230  0.00  0.00     0.000 OA
ATOM     16   O  IDS C   1     156.004  35.818  54.3940  0.00  0.00     0.000 OA
ENDBRANCH 5 14
BRANCH 1 17
ATOM     17  O4  SGN C   2     160.776  34.843  51.2260  0.00  0.00     0.000 O
BRANCH 17 21
ATOM     18  C1  SGN C   2     163.348  37.470  49.2230  0.00  0.00     0.000 C
ATOM     19  C2  SGN C   2     162.010  38.049  49.7000  0.00  0.00     0.000 C
ATOM     20  C3  SGN C   2     161.390  37.123  50.7550  0.00  0.00     0.000 C
ATOM     21  C4  SGN C   2     161.292  35.702  50.2130  0.00  0.00     0.000 C
ATOM     22  C5  SGN C   2     162.679  35.238  49.7770  0.00  0.00     0.000 C
ATOM     23  O5  SGN C   2     163.203  36.139  48.7740  0.00  0.00     0.000 O
ATOM     24   O  SGN C   2     160.114  37.611  51.1340  0.00  0.00     0.000 O
ATOM     26  HD  SGN C   2     160.900  37.267  51.2530  0.00  0.00     0.000 HD
BRANCH 19 28
ATOM     26   N  SGN C   2     162.292  39.491  49.6790  0.00  0.00     0.000 N
ATOM     28  HD  SGN C   2     162.762  39.179  49.0220  0.00  0.00     0.000 HD
ATOM     28   O  SGN C   2     161.508  41.827  50.0640  0.00  0.00     0.000 OA
ATOM     29   S  SGN C   2     161.210  40.570  49.1790  0.00  0.00     0.000 S
ATOM     30   O  SGN C   2     161.511  40.883  47.8350  0.00  0.00     0.000 OA
ATOM     31   O  SGN C   2     159.920  40.075  49.5140  0.00  0.00     0.000 OA
ENDBRANCH 19 28
BRANCH 22 32
ATOM     32   C  SGN C   2     162.685  33.857  49.1690  0.00  0.00     0.000 C
ATOM     33   S  SGN C   2     164.286  32.325  47.8530  0.00  0.00     0.000 S
ATOM     34   O  SGN C   2     164.076  33.047  46.6230  0.00  0.00     0.000 OA
ATOM     35   O  SGN C   2     165.655  31.894  48.0470  0.00  0.00     0.000 OA
ATOM     36   O  SGN C   2     163.315  31.286  48.1000  0.00  0.00     0.000 OA
ATOM     37   O  SGN C   2     164.036  33.413  48.9950  0.00  0.00     0.000 O
ENDBRANCH 22 32
BRANCH 18 38
ATOM     38  O4  IDS C   3     164.550  37.487  49.8020  0.00  0.00     0.000 O
BRANCH 38 42
ATOM     39  C1  IDS C   3     167.888  37.164  50.7410  0.00  0.00     0.000 C
ATOM     40  C2  IDS C   3     167.001  35.926  50.5310  0.00  0.00     0.000 C
ATOM     41  C3  IDS C   3     165.707  36.031  51.3370  0.00  0.00     0.000 C
ATOM     42  C4  IDS C   3     165.045  37.388  51.1420  0.00  0.00     0.000 C
ATOM     43  C5  IDS C   3     166.061  38.505  51.4090  0.00  0.00     0.000 C
ATOM     44  O5  IDS C   3     167.161  38.359  50.5130  0.00  0.00     0.000 O
ATOM     45   O  IDS C   3     165.995  35.829  52.7220  0.00  0.00     0.000 O
ATOM     47  HD  IDS C   3     166.531  36.194  53.2950  0.00  0.00     0.000 HD
BRANCH 40 47
ATOM     47   O  IDS C   3     166.626  35.791  49.1030  0.00  0.00     0.000 O
ATOM     48   S  IDS C   3     167.668  35.166  48.0630  0.00  0.00     0.000 S
ATOM     49   O  IDS C   3     168.629  36.211  47.7860  0.00  0.00     0.000 OA
ATOM     50   O  IDS C   3     166.881  34.817  46.9000  0.00  0.00     0.000 OA
ATOM     51   O  IDS C   3     168.255  34.024  48.7120  0.00  0.00     0.000 OA
ENDBRANCH 40 47
BRANCH 43 52
ATOM     52   C  IDS C   3     165.464  39.887  51.2620  0.00  0.00     0.000 C
ATOM     53   O  IDS C   3     164.397  40.141  51.7720  0.00  0.00     0.000 OA
ATOM     54   O  IDS C   3     166.056  40.729  50.6360  0.00  0.00     0.000 OA
ENDBRANCH 43 52
BRANCH 39 55
ATOM     55  O4  SGN C   4     168.804  37.261  51.7040  0.00  0.00     0.000 O
BRANCH 55 59
ATOM     56  C1  SGN C   4     170.344  36.243  55.4590  0.00  0.00     0.000 C
ATOM     57  C2  SGN C   4     169.851  35.081  54.5800  0.00  0.00     0.000 C
ATOM     58  C3  SGN C   4     169.694  35.528  53.1290  0.00  0.00     0.000 C
ATOM     59  C4  SGN C   4     168.855  36.799  53.0460  0.00  0.00     0.000 C
ATOM     60  C5  SGN C   4     169.486  37.863  53.9410  0.00  0.00     0.000 C
ATOM     61  O5  SGN C   4     169.496  37.368  55.2950  0.00  0.00     0.000 O
ATOM     62   O  SGN C   4     169.099  34.484  52.3700  0.00  0.00     0.000 O
ATOM     64  HD  SGN C   4     169.520  34.076  53.0080  0.00  0.00     0.000 HD
BRANCH 57 66
ATOM     64   N  SGN C   4     169.554  33.646  54.7140  0.00  0.00     0.000 N
ATOM     66  HD  SGN C   4     170.002  32.907  54.6600  0.00  0.00     0.000 HD
ATOM     66   S  SGN C   4     170.389  32.735  55.7240  0.00  0.00     0.000 S
ATOM     67   O  SGN C   4     169.918  31.405  55.5870  0.00  0.00     0.000 OA
ATOM     68   O  SGN C   4     171.765  33.017  55.4980  0.00  0.00     0.000 OA
ATOM     69   O  SGN C   4     169.991  33.283  57.1330  0.00  0.00     0.000 OA
ENDBRANCH 57 66
BRANCH 60 70
ATOM     70   C  SGN C   4     168.745  39.182  53.9370  0.00  0.00     0.000 C
ATOM     71   O  SGN C   4     165.185  39.773  54.9800  0.00  0.00     0.000 OA
ATOM     72   O  SGN C   4     167.190  40.237  56.2500  0.00  0.00     0.000 OA
ATOM     73   O  SGN C   4     167.344  38.975  54.2040  0.00  0.00     0.000 O
ATOM     74   S  SGN C   4     166.575  40.166  54.9440  0.00  0.00     0.000 S
ATOM     75   O  SGN C   4     166.824  41.334  54.1240  0.00  0.00     0.000 OA
ENDBRANCH 60 70
BRANCH 56 76
ATOM     76  O4  IDS C   5     171.542  36.693  55.8750  0.00  0.00     0.000 O
BRANCH 76 80
ATOM     77  C1  IDS C   5     173.951  37.079  59.1470  0.00  0.00     0.000 C
ATOM     78  C2  IDS C   5     172.660  37.894  59.2100  0.00  0.00     0.000 C
ATOM     79  C3  IDS C   5     171.664  37.359  58.2000  0.00  0.00     0.000 C
ATOM     80  C4  IDS C   5     172.196  37.587  56.7880  0.00  0.00     0.000 C
ATOM     81  C5  IDS C   5     173.714  37.354  56.7730  0.00  0.00     0.000 C
ATOM     82  O5  IDS C   5     174.101  36.497  57.8520  0.00  0.00     0.000 O
BRANCH 78 83
ATOM     83   O  IDS C   5     172.052  37.807  60.5590  0.00  0.00     0.000 O
ATOM     84   S  IDS C   5     171.913  39.121  61.4520  0.00  0.00     0.000 S
ATOM     85   O  IDS C   5     173.202  39.759  61.4200  0.00  0.00     0.000 OA
ATOM     86   O  IDS C   5     170.877  39.902  60.8180  0.00  0.00     0.000 OA
ATOM     87   O  IDS C   5     171.537  38.662  62.7670  0.00  0.00     0.000 OA
ENDBRANCH 78 83
BRANCH 81 88
ATOM     88   C  IDS C   5     174.228  36.732  55.4880  0.00  0.00     0.000 C
ATOM     89   O  IDS C   5     174.474  35.556  55.4480  0.00  0.00     0.000 OA
ATOM     90   O  IDS C   5     174.387  37.425  54.5090  0.00  0.00     0.000 OA
ENDBRANCH 81 88
ENDBRANCH 76 80
ENDBRANCH 56 76
ENDBRANCH 55 59
ENDBRANCH 39 55
ENDBRANCH 38 42
ENDBRANCH 18 38
ENDBRANCH 17 21
ENDBRANCH 1 17
TORSDOF 18
ENDMDL
MODEL 73
REMARK VINA RESULT:      -7.0     16.794     21.714
ROOT
ATOM      1  C1  IDS C   1     146.084  35.516  44.5760  0.00  0.00     0.000 C
ATOM      2  C2  IDS C   1     147.506  35.776  44.0700  0.00  0.00     0.000 C
ATOM      3  C3  IDS C   1     148.252  34.467  43.8600  0.00  0.00     0.000 C
ATOM      4  C4  IDS C   1     148.318  33.672  45.1570  0.00  0.00     0.000 C
ATOM      5  C5  IDS C   1     146.998  33.793  45.9120  0.00  0.00     0.000 C
ATOM      6  O5  IDS C   1     145.952  34.171  45.0160  0.00  0.00     0.000 O
ATOM      7   O  IDS C   1     149.578  34.735  43.3830  0.00  0.00     0.000 O
ATOM      9  HD  IDS C   1     149.542  35.417  42.8500  0.00  0.00     0.000 HD
ENDROOT
BRANCH 2 9
ATOM      9   O  IDS C   1     147.482  36.489  42.7730  0.00  0.00     0.000 O
ATOM     10   S  IDS C   1     148.111  37.951  42.6710  0.00  0.00     0.000 S
ATOM     11   O  IDS C   1     147.945  38.358  41.2940  0.00  0.00     0.000 OA
ATOM     12   O  IDS C   1     147.354  38.767  43.5970  0.00  0.00     0.000 OA
ATOM     13   O  IDS C   1     149.500  37.810  43.0500  0.00  0.00     0.000 OA
ENDBRANCH 2 9
BRANCH 5 14
ATOM     14   C  IDS C   1     146.604  32.491  46.5900  0.00  0.00     0.000 C
ATOM     15   O  IDS C   1     145.722  31.818  46.1150  0.00  0.00     0.000 OA
ATOM     16   O  IDS C   1     147.179  32.139  47.6060  0.00  0.00     0.000 OA
ENDBRANCH 5 14
BRANCH 1 17
ATOM     17  O4  SGN C   2     145.016  36.175  44.1160  0.00  0.00     0.000 O
BRANCH 17 21
ATOM     18  C1  SGN C   2     141.844  36.312  41.3880  0.00  0.00     0.000 C
ATOM     19  C2  SGN C   2     142.929  35.259  41.1280  0.00  0.00     0.000 C
ATOM     20  C3  SGN C   2     143.762  35.047  42.3980  0.00  0.00     0.000 C
ATOM     21  C4  SGN C   2     144.301  36.381  42.9010  0.00  0.00     0.000 C
ATOM     22  C5  SGN C   2     143.133  37.337  43.1260  0.00  0.00     0.000 C
ATOM     23  O5  SGN C   2     142.398  37.509  41.8930  0.00  0.00     0.000 O
ATOM     24   O  SGN C   2     144.819  34.139  42.1350  0.00  0.00     0.000 O
ATOM     26  HD  SGN C   2     144.169  34.492  42.5870  0.00  0.00     0.000 HD
BRANCH 19 28
ATOM     26   N  SGN C   2     142.234  34.344  40.2120  0.00  0.00     0.000 N
ATOM     28  HD  SGN C   2     141.926  35.125  39.9960  0.00  0.00     0.000 HD
ATOM     28   O  SGN C   2     142.259  32.250  38.8580  0.00  0.00     0.000 OA
ATOM     29   S  SGN C   2     142.979  33.635  38.9770  0.00  0.00     0.000 S
ATOM     30   O  SGN C   2     142.698  34.392  37.8180  0.00  0.00     0.000 OA
ATOM     31   O  SGN C   2     144.331  33.411  39.3590  0.00  0.00     0.000 OA
ENDBRANCH 19 28
BRANCH 22 32
ATOM     32   C  SGN C   2     143.564  38.713  43.5720  0.00  0.00     0.000 C
ATOM     33   S  SGN C   2     143.923  41.055  42.5590  0.00  0.00     0.000 S
ATOM     34   O  SGN C   2     145.177  40.678  41.9560  0.00  0.00     0.000 OA
ATOM     35   O  SGN C   2     143.120  41.929  41.7290  0.00  0.00     0.000 OA
ATOM     36   O  SGN C   2     144.038  41.506  43.9260  0.00  0.00     0.000 OA
ATOM     37   O  SGN C   2     143.097  39.691  42.6360  0.00  0.00     0.000 O
ENDBRANCH 22 32
BRANCH 18 38
ATOM     38  O4  IDS C   3     140.673  36.205  42.0200  0.00  0.00     0.000 O
BRANCH 38 42
ATOM     39  C1  IDS C   3     137.403  35.620  43.0640  0.00  0.00     0.000 C
ATOM     40  C2  IDS C   3     138.005  37.033  43.1030  0.00  0.00     0.000 C
ATOM     41  C3  IDS C   3     139.341  37.045  43.8460  0.00  0.00     0.000 C
ATOM     42  C4  IDS C   3     140.252  35.926  43.3590  0.00  0.00     0.000 C
ATOM     43  C5  IDS C   3     139.502  34.589  43.4040  0.00  0.00     0.000 C
ATOM     44  O5  IDS C   3     138.343  34.676  42.5780  0.00  0.00     0.000 O
ATOM     45   O  IDS C   3     139.103  36.898  45.2470  0.00  0.00     0.000 O
ATOM     47  HD  IDS C   3     138.689  36.320  45.7410  0.00  0.00     0.000 HD
BRANCH 40 47
ATOM     47   O  IDS C   3     138.256  37.529  41.7290  0.00  0.00     0.000 O
ATOM     48   S  IDS C   3     137.025  37.934  40.7920  0.00  0.00     0.000 S
ATOM     49   O  IDS C   3     136.461  36.689  40.3170  0.00  0.00     0.000 OA
ATOM     50   O  IDS C   3     137.603  38.722  39.7250  0.00  0.00     0.000 OA
ATOM     51   O  IDS C   3     136.114  38.681  41.6170  0.00  0.00     0.000 OA
ENDBRANCH 40 47
BRANCH 43 52
ATOM     52   C  IDS C   3     140.357  33.423  42.9590  0.00  0.00     0.000 C
ATOM     53   O  IDS C   3     141.247  33.021  43.6730  0.00  0.00     0.000 OA
ATOM     54   O  IDS C   3     140.146  32.900  41.8950  0.00  0.00     0.000 OA
ENDBRANCH 43 52
BRANCH 39 55
ATOM     55  O4  SGN C   4     136.587  35.139  44.0020  0.00  0.00     0.000 O
BRANCH 55 59
ATOM     56  C1  SGN C   4     133.559  32.504  42.8220  0.00  0.00     0.000 C
ATOM     57  C2  SGN C   4     133.341  33.991  42.4970  0.00  0.00     0.000 C
ATOM     58  C3  SGN C   4     134.650  34.768  42.6110  0.00  0.00     0.000 C
ATOM     59  C4  SGN C   4     135.322  34.494  43.9520  0.00  0.00     0.000 C
ATOM     60  C5  SGN C   4     135.499  32.986  44.1130  0.00  0.00     0.000 C
ATOM     61  O5  SGN C   4     134.196  32.371  44.0830  0.00  0.00     0.000 O
ATOM     62   O  SGN C   4     134.395  36.157  42.4530  0.00  0.00     0.000 O
ATOM     64  HD  SGN C   4     133.768  35.768  41.9980  0.00  0.00     0.000 HD
BRANCH 57 66
ATOM     64   N  SGN C   4     131.891  33.794  42.3430  0.00  0.00     0.000 N
ATOM     66  HD  SGN C   4     131.204  34.298  42.1870  0.00  0.00     0.000 HD
ATOM     66   S  SGN C   4     131.133  34.328  41.0440  0.00  0.00     0.000 S
ATOM     67   O  SGN C   4     129.753  34.047  41.2120  0.00  0.00     0.000 OA
ATOM     68   O  SGN C   4     131.553  35.671  40.8390  0.00  0.00     0.000 OA
ATOM     69   O  SGN C   4     131.705  33.442  39.8910  0.00  0.00     0.000 OA
ENDBRANCH 57 66
BRANCH 60 70
ATOM     70   C  SGN C   4     136.169  32.585  45.4100  0.00  0.00     0.000 C
ATOM     71   O  SGN C   4     139.659  31.263  45.8310  0.00  0.00     0.000 OA
ATOM     72   O  SGN C   4     138.873  33.510  46.2550  0.00  0.00     0.000 OA
ATOM     73   O  SGN C   4     137.427  31.933  45.1480  0.00  0.00     0.000 O
ATOM     74   S  SGN C   4     138.562  32.098  46.2610  0.00  0.00     0.000 S
ATOM     75   O  SGN C   4     137.942  31.650  47.4920  0.00  0.00     0.000 OA
ENDBRANCH 60 70
BRANCH 56 76
ATOM     76  O4  IDS C   5     133.829  31.393  42.1110  0.00  0.00     0.000 O
BRANCH 76 80
ATOM     77  C1  IDS C   5     137.729  30.455  41.3580  0.00  0.00     0.000 C
ATOM     78  C2  IDS C   5     137.010  31.155  40.2050  0.00  0.00     0.000 C
ATOM     79  C3  IDS C   5     135.758  31.839  40.7180  0.00  0.00     0.000 C
ATOM     80  C4  IDS C   5     134.768  30.788  41.2100  0.00  0.00     0.000 C
ATOM     81  C5  IDS C   5     135.533  29.657  41.9120  0.00  0.00     0.000 C
ATOM     82  O5  IDS C   5     136.797  30.127  42.3890  0.00  0.00     0.000 O
BRANCH 78 83
ATOM     83   O  IDS C   5     137.885  32.181  39.5880  0.00  0.00     0.000 O
ATOM     84   S  IDS C   5     138.183  32.130  38.0220  0.00  0.00     0.000 S
ATOM     85   O  IDS C   5     138.562  30.773  37.7350  0.00  0.00     0.000 OA
ATOM     86   O  IDS C   5     136.945  32.520  37.3880  0.00  0.00     0.000 OA
ATOM     87   O  IDS C   5     139.246  33.079  37.7960  0.00  0.00     0.000 OA
ENDBRANCH 78 83
BRANCH 81 88
ATOM     88   C  IDS C   5     134.794  29.054  43.0930  0.00  0.00     0.000 C
ATOM     89   O  IDS C   5     135.173  29.274  44.2120  0.00  0.00     0.000 OA
ATOM     90   O  IDS C   5     133.825  28.356  42.9000  0.00  0.00     0.000 OA
ENDBRANCH 81 88
ENDBRANCH 76 80
ENDBRANCH 56 76
ENDBRANCH 55 59
ENDBRANCH 39 55
ENDBRANCH 38 42
ENDBRANCH 18 38
ENDBRANCH 17 21
ENDBRANCH 1 17
TORSDOF 18
ENDMDL
MODEL 74
REMARK VINA RESULT:      -7.0     17.052     24.987
ROOT
ATOM      1  C1  IDS C   1     129.525  39.841  45.6580  0.00  0.00     0.000 C
ATOM      2  C2  IDS C   1     128.107  40.352  45.9290  0.00  0.00     0.000 C
ATOM      3  C3  IDS C   1     127.775  41.531  45.0250  0.00  0.00     0.000 C
ATOM      4  C4  IDS C   1     128.767  42.666  45.2370  0.00  0.00     0.000 C
ATOM      5  C5  IDS C   1     130.172  42.104  45.4290  0.00  0.00     0.000 C
ATOM      6  O5  IDS C   1     130.253  40.787  44.8850  0.00  0.00     0.000 O
ATOM      7   O  IDS C   1     126.442  41.988  45.2950  0.00  0.00     0.000 O
ATOM      9  HD  IDS C   1     125.948  41.299  45.4710  0.00  0.00     0.000 HD
ENDROOT
BRANCH 2 9
ATOM      9   O  IDS C   1     127.106  39.293  45.6680  0.00  0.00     0.000 O
ATOM     10   S  IDS C   1     126.138  38.823  46.8440  0.00  0.00     0.000 S
ATOM     11   O  IDS C   1     125.284  37.805  46.2710  0.00  0.00     0.000 OA
ATOM     12   O  IDS C   1     127.007  38.311  47.8830  0.00  0.00     0.000 OA
ATOM     13   O  IDS C   1     125.408  40.003  47.2500  0.00  0.00     0.000 OA
ENDBRANCH 2 9
BRANCH 5 14
ATOM     14   C  IDS C   1     131.230  42.966  44.7620  0.00  0.00     0.000 C
ATOM     15   O  IDS C   1     130.914  44.026  44.2780  0.00  0.00     0.000 OA
ATOM     16   O  IDS C   1     132.386  42.580  44.7180  0.00  0.00     0.000 OA
ENDBRANCH 5 14
BRANCH 1 17
ATOM     17  O4  SGN C   2     129.828  38.542  45.5810  0.00  0.00     0.000 O
BRANCH 17 21
ATOM     18  C1  SGN C   2     130.765  35.061  43.4530  0.00  0.00     0.000 C
ATOM     19  C2  SGN C   2     130.643  36.354  42.6360  0.00  0.00     0.000 C
ATOM     20  C3  SGN C   2     130.724  37.568  43.5700  0.00  0.00     0.000 C
ATOM     21  C4  SGN C   2     129.695  37.441  44.6870  0.00  0.00     0.000 C
ATOM     22  C5  SGN C   2     129.921  36.125  45.4250  0.00  0.00     0.000 C
ATOM     23  O5  SGN C   2     129.816  35.020  44.4980  0.00  0.00     0.000 O
ATOM     24   O  SGN C   2     130.525  38.760  42.8290  0.00  0.00     0.000 O
ATOM     26  HD  SGN C   2     130.893  38.246  43.4210  0.00  0.00     0.000 HD
BRANCH 19 28
ATOM     26   N  SGN C   2     131.387  36.003  41.4190  0.00  0.00     0.000 N
ATOM     28  HD  SGN C   2     131.067  35.245  41.6900  0.00  0.00     0.000 HD
ATOM     28   O  SGN C   2     132.173  36.634  39.1370  0.00  0.00     0.000 OA
ATOM     29   S  SGN C   2     130.858  36.381  39.9490  0.00  0.00     0.000 S
ATOM     30   O  SGN C   2     130.214  35.240  39.4210  0.00  0.00     0.000 OA
ATOM     31   O  SGN C   2     130.144  37.607  40.0490  0.00  0.00     0.000 OA
ENDBRANCH 19 28
BRANCH 22 32
ATOM     32   C  SGN C   2     128.913  35.872  46.5190  0.00  0.00     0.000 C
ATOM     33   S  SGN C   2     127.166  34.093  47.1730  0.00  0.00     0.000 S
ATOM     34   O  SGN C   2     126.224  34.557  46.1850  0.00  0.00     0.000 OA
ATOM     35   O  SGN C   2     127.198  32.652  47.3140  0.00  0.00     0.000 OA
ATOM     36   O  SGN C   2     127.090  34.793  48.4340  0.00  0.00     0.000 OA
ATOM     37   O  SGN C   2     128.592  34.477  46.5660  0.00  0.00     0.000 O
ENDBRANCH 22 32
BRANCH 18 38
ATOM     38  O4  IDS C   3     131.842  34.467  43.9700  0.00  0.00     0.000 O
BRANCH 38 42
ATOM     39  C1  IDS C   3     135.099  33.489  44.7200  0.00  0.00     0.000 C
ATOM     40  C2  IDS C   3     134.635  33.643  43.2630  0.00  0.00     0.000 C
ATOM     41  C3  IDS C   3     133.352  32.852  43.0060  0.00  0.00     0.000 C
ATOM     42  C4  IDS C   3     132.314  33.120  44.0870  0.00  0.00     0.000 C
ATOM     43  C5  IDS C   3     132.937  32.903  45.4710  0.00  0.00     0.000 C
ATOM     44  O5  IDS C   3     134.049  33.783  45.6260  0.00  0.00     0.000 O
ATOM     45   O  IDS C   3     133.657  31.457  42.9650  0.00  0.00     0.000 O
ATOM     47  HD  IDS C   3     134.044  30.899  43.5020  0.00  0.00     0.000 HD
BRANCH 40 47
ATOM     47   O  IDS C   3     134.350  35.065  42.9550  0.00  0.00     0.000 O
ATOM     48   S  IDS C   3     135.237  35.836  41.8700  0.00  0.00     0.000 S
ATOM     49   O  IDS C   3     136.485  36.153  42.5300  0.00  0.00     0.000 OA
ATOM     50   O  IDS C   3     134.476  37.018  41.5280  0.00  0.00     0.000 OA
ATOM     51   O  IDS C   3     135.405  34.931  40.7640  0.00  0.00     0.000 OA
ENDBRANCH 40 47
BRANCH 43 52
ATOM     52   C  IDS C   3     131.953  33.124  46.5980  0.00  0.00     0.000 C
ATOM     53   O  IDS C   3     132.119  34.038  47.3720  0.00  0.00     0.000 OA
ATOM     54   O  IDS C   3     131.007  32.388  46.7180  0.00  0.00     0.000 OA
ENDBRANCH 43 52
BRANCH 39 55
ATOM     55  O4  SGN C   4     135.921  32.525  45.1360  0.00  0.00     0.000 O
BRANCH 55 59
ATOM     56  C1  SGN C   4     140.054  33.163  45.2760  0.00  0.00     0.000 C
ATOM     57  C2  SGN C   4     139.408  33.145  43.8800  0.00  0.00     0.000 C
ATOM     58  C3  SGN C   4     137.893  33.303  43.9820  0.00  0.00     0.000 C
ATOM     59  C4  SGN C   4     137.314  32.298  44.9720  0.00  0.00     0.000 C
ATOM     60  C5  SGN C   4     138.029  32.461  46.3110  0.00  0.00     0.000 C
ATOM     61  O5  SGN C   4     139.432  32.198  46.1100  0.00  0.00     0.000 O
ATOM     62   O  SGN C   4     137.309  33.134  42.6970  0.00  0.00     0.000 O
ATOM     64  HD  SGN C   4     138.105  33.436  42.5360  0.00  0.00     0.000 HD
BRANCH 57 66
ATOM     64   N  SGN C   4     139.778  33.192  42.4560  0.00  0.00     0.000 N
ATOM     66  HD  SGN C   4     140.052  33.798  41.9010  0.00  0.00     0.000 HD
ATOM     66   S  SGN C   4     141.193  33.776  42.0050  0.00  0.00     0.000 S
ATOM     67   O  SGN C   4     141.232  33.747  40.5880  0.00  0.00     0.000 OA
ATOM     68   O  SGN C   4     141.368  35.013  42.6840  0.00  0.00     0.000 OA
ATOM     69   O  SGN C   4     142.218  32.744  42.5730  0.00  0.00     0.000 OA
ENDBRANCH 57 66
BRANCH 60 70
ATOM     70   C  SGN C   4     137.532  31.519  47.3870  0.00  0.00     0.000 C
ATOM     71   O  SGN C   4     137.180  27.788  47.1320  0.00  0.00     0.000 OA
ATOM     72   O  SGN C   4     138.947  29.031  48.2180  0.00  0.00     0.000 OA
ATOM     73   O  SGN C   4     137.342  30.196  46.8510  0.00  0.00     0.000 O
ATOM     74   S  SGN C   4     137.546  28.977  47.8660  0.00  0.00     0.000 S
ATOM     75   O  SGN C   4     136.660  29.267  48.9760  0.00  0.00     0.000 OA
ENDBRANCH 60 70
BRANCH 56 76
ATOM     76  O4  IDS C   5     140.595  34.102  46.0730  0.00  0.00     0.000 O
BRANCH 76 80
ATOM     77  C1  IDS C   5     143.900  36.474  45.7500  0.00  0.00     0.000 C
ATOM     78  C2  IDS C   5     144.195  35.025  46.1350  0.00  0.00     0.000 C
ATOM     79  C3  IDS C   5     143.001  34.151  45.8030  0.00  0.00     0.000 C
ATOM     80  C4  IDS C   5     141.817  34.551  46.6780  0.00  0.00     0.000 C
ATOM     81  C5  IDS C   5     141.802  36.077  46.8470  0.00  0.00     0.000 C
ATOM     82  O5  IDS C   5     142.492  36.710  45.7660  0.00  0.00     0.000 O
BRANCH 78 83
ATOM     83   O  IDS C   5     145.370  34.514  45.3910  0.00  0.00     0.000 O
ATOM     84   S  IDS C   5     146.444  33.600  46.1360  0.00  0.00     0.000 S
ATOM     85   O  IDS C   5     146.765  34.284  47.3600  0.00  0.00     0.000 OA
ATOM     86   O  IDS C   5     145.781  32.335  46.3500  0.00  0.00     0.000 OA
ATOM     87   O  IDS C   5     147.563  33.495  45.2320  0.00  0.00     0.000 OA
ENDBRANCH 78 83
BRANCH 81 88
ATOM     88   C  IDS C   5     140.409  36.676  46.9130  0.00  0.00     0.000 C
ATOM     89   O  IDS C   5     139.819  36.707  47.9600  0.00  0.00     0.000 OA
ATOM     90   O  IDS C   5     139.900  37.119  45.9090  0.00  0.00     0.000 OA
ENDBRANCH 81 88
ENDBRANCH 76 80
ENDBRANCH 56 76
ENDBRANCH 55 59
ENDBRANCH 39 55
ENDBRANCH 38 42
ENDBRANCH 18 38
ENDBRANCH 17 21
ENDBRANCH 1 17
TORSDOF 18
ENDMDL
MODEL 75
REMARK VINA RESULT:      -7.0     16.633     20.500
ROOT
ATOM      1  C1  IDS C   1     149.998  38.150  44.6820  0.00  0.00     0.000 C
ATOM      2  C2  IDS C   1     151.494  38.404  44.4780  0.00  0.00     0.000 C
ATOM      3  C3  IDS C   1     152.239  38.344  45.8030  0.00  0.00     0.000 C
ATOM      4  C4  IDS C   1     151.683  39.373  46.7780  0.00  0.00     0.000 C
ATOM      5  C5  IDS C   1     150.164  39.446  46.6530  0.00  0.00     0.000 C
ATOM      6  O5  IDS C   1     149.662  38.248  46.0610  0.00  0.00     0.000 O
ATOM      7   O  IDS C   1     153.637  38.582  45.5850  0.00  0.00     0.000 O
ATOM      9  HD  IDS C   1     153.861  38.215  44.8330  0.00  0.00     0.000 HD
ENDROOT
BRANCH 2 9
ATOM      9   O  IDS C   1     152.085  37.381  43.5860  0.00  0.00     0.000 O
ATOM     10   S  IDS C   1     152.834  37.840  42.2550  0.00  0.00     0.000 S
ATOM     11   O  IDS C   1     153.302  36.625  41.6250  0.00  0.00     0.000 OA
ATOM     12   O  IDS C   1     151.837  38.535  41.4670  0.00  0.00     0.000 OA
ATOM     13   O  IDS C   1     153.913  38.700  42.6850  0.00  0.00     0.000 OA
ENDBRANCH 2 9
BRANCH 5 14
ATOM     14   C  IDS C   1     149.487  39.639  47.9990  0.00  0.00     0.000 C
ATOM     15   O  IDS C   1     148.375  39.202  48.1720  0.00  0.00     0.000 OA
ATOM     16   O  IDS C   1     150.069  40.233  48.8900  0.00  0.00     0.000 OA
ENDBRANCH 5 14
BRANCH 1 17
ATOM     17  O4  SGN C   2     149.275  37.368  43.8740  0.00  0.00     0.000 O
BRANCH 17 21
ATOM     18  C1  SGN C   2     147.239  33.822  42.9790  0.00  0.00     0.000 C
ATOM     19  C2  SGN C   2     147.802  33.951  44.4000  0.00  0.00     0.000 C
ATOM     20  C3  SGN C   2     148.126  35.420  44.6990  0.00  0.00     0.000 C
ATOM     21  C4  SGN C   2     149.038  35.987  43.6180  0.00  0.00     0.000 C
ATOM     22  C5  SGN C   2     148.370  35.805  42.2580  0.00  0.00     0.000 C
ATOM     23  O5  SGN C   2     148.104  34.402  42.0270  0.00  0.00     0.000 O
ATOM     24   O  SGN C   2     148.727  35.530  45.9790  0.00  0.00     0.000 O
ATOM     26  HD  SGN C   2     148.199  35.750  45.3280  0.00  0.00     0.000 HD
BRANCH 19 28
ATOM     26   N  SGN C   2     147.648  32.799  45.3000  0.00  0.00     0.000 N
ATOM     28  HD  SGN C   2     148.491  32.794  45.1020  0.00  0.00     0.000 HD
ATOM     28   O  SGN C   2     146.500  31.750  47.2510  0.00  0.00     0.000 OA
ATOM     29   S  SGN C   2     147.409  32.970  46.8810  0.00  0.00     0.000 S
ATOM     30   O  SGN C   2     148.659  32.812  47.5190  0.00  0.00     0.000 OA
ATOM     31   O  SGN C   2     146.665  34.166  47.0780  0.00  0.00     0.000 OA
ENDBRANCH 19 28
BRANCH 22 32
ATOM     32   C  SGN C   2     149.218  36.284  41.1050  0.00  0.00     0.000 C
ATOM     33   S  SGN C   2     149.009  36.643  38.5620  0.00  0.00     0.000 S
ATOM     34   O  SGN C   2     149.132  35.234  38.2830  0.00  0.00     0.000 OA
ATOM     35   O  SGN C   2     148.050  37.321  37.7150  0.00  0.00     0.000 OA
ATOM     36   O  SGN C   2     150.272  37.335  38.6690  0.00  0.00     0.000 OA
ATOM     37   O  SGN C   2     148.374  36.700  40.0260  0.00  0.00     0.000 O
ENDBRANCH 22 32
BRANCH 18 38
ATOM     38  O4  IDS C   3     146.017  34.085  42.5100  0.00  0.00     0.000 O
BRANCH 38 42
ATOM     39  C1  IDS C   3     142.790  34.086  41.2000  0.00  0.00     0.000 C
ATOM     40  C2  IDS C   3     143.916  34.891  40.5320  0.00  0.00     0.000 C
ATOM     41  C3  IDS C   3     144.622  35.796  41.5400  0.00  0.00     0.000 C
ATOM     42  C4  IDS C   3     144.986  35.032  42.8060  0.00  0.00     0.000 C
ATOM     43  C5  IDS C   3     143.748  34.307  43.3490  0.00  0.00     0.000 C
ATOM     44  O5  IDS C   3     143.260  33.409  42.3540  0.00  0.00     0.000 O
ATOM     45   O  IDS C   3     143.769  36.894  41.8680  0.00  0.00     0.000 O
ATOM     47  HD  IDS C   3     142.961  36.973  42.1700  0.00  0.00     0.000 HD
BRANCH 40 47
ATOM     47   O  IDS C   3     144.937  33.981  39.9600  0.00  0.00     0.000 O
ATOM     48   S  IDS C   3     145.232  34.003  38.3880  0.00  0.00     0.000 S
ATOM     49   O  IDS C   3     144.140  33.284  37.7690  0.00  0.00     0.000 OA
ATOM     50   O  IDS C   3     146.501  33.326  38.2300  0.00  0.00     0.000 OA
ATOM     51   O  IDS C   3     145.278  35.388  38.0030  0.00  0.00     0.000 OA
ENDBRANCH 40 47
BRANCH 43 52
ATOM     52   C  IDS C   3     144.028  33.547  44.6260  0.00  0.00     0.000 C
ATOM     53   O  IDS C   3     144.553  32.458  44.5770  0.00  0.00     0.000 OA
ATOM     54   O  IDS C   3     143.727  34.030  45.6870  0.00  0.00     0.000 OA
ENDBRANCH 43 52
BRANCH 39 55
ATOM     55  O4  SGN C   4     141.532  34.517  41.2980  0.00  0.00     0.000 O
BRANCH 55 59
ATOM     56  C1  SGN C   4     138.472  31.726  41.8920  0.00  0.00     0.000 C
ATOM     57  C2  SGN C   4     139.118  31.752  40.4960  0.00  0.00     0.000 C
ATOM     58  C3  SGN C   4     140.445  32.505  40.5270  0.00  0.00     0.000 C
ATOM     59  C4  SGN C   4     140.273  33.871  41.1810  0.00  0.00     0.000 C
ATOM     60  C5  SGN C   4     139.655  33.678  42.5650  0.00  0.00     0.000 C
ATOM     61  O5  SGN C   4     138.371  33.045  42.4030  0.00  0.00     0.000 O
ATOM     62   O  SGN C   4     140.946  32.642  39.2040  0.00  0.00     0.000 O
ATOM     64  HD  SGN C   4     140.474  31.916  39.1830  0.00  0.00     0.000 HD
BRANCH 57 66
ATOM     64   N  SGN C   4     138.735  30.337  40.3610  0.00  0.00     0.000 N
ATOM     66  HD  SGN C   4     138.030  29.901  40.1090  0.00  0.00     0.000 HD
ATOM     66   S  SGN C   4     138.167  29.778  38.9780  0.00  0.00     0.000 S
ATOM     67   O  SGN C   4     137.834  28.415  39.1760  0.00  0.00     0.000 OA
ATOM     68   O  SGN C   4     137.164  30.687  38.5430  0.00  0.00     0.000 OA
ATOM     69   O  SGN C   4     139.388  29.878  38.0090  0.00  0.00     0.000 OA
ENDBRANCH 57 66
BRANCH 60 70
ATOM     70   C  SGN C   4     139.442  34.970  43.3240  0.00  0.00     0.000 C
ATOM     71   O  SGN C   4     141.930  36.739  45.5110  0.00  0.00     0.000 OA
ATOM     72   O  SGN C   4     141.310  37.291  43.2400  0.00  0.00     0.000 OA
ATOM     73   O  SGN C   4     140.547  35.223  44.2120  0.00  0.00     0.000 O
ATOM     74   S  SGN C   4     140.885  36.756  44.5140  0.00  0.00     0.000 S
ATOM     75   O  SGN C   4     139.640  37.323  44.9910  0.00  0.00     0.000 OA
ENDBRANCH 60 70
BRANCH 56 76
ATOM     76  O4  IDS C   5     138.481  30.883  42.9410  0.00  0.00     0.000 O
BRANCH 76 80
ATOM     77  C1  IDS C   5     138.124  28.341  46.1140  0.00  0.00     0.000 C
ATOM     78  C2  IDS C   5     136.835  29.072  45.7390  0.00  0.00     0.000 C
ATOM     79  C3  IDS C   5     136.949  29.625  44.3310  0.00  0.00     0.000 C
ATOM     80  C4  IDS C   5     138.030  30.701  44.2910  0.00  0.00     0.000 C
ATOM     81  C5  IDS C   5     139.198  30.282  45.1950  0.00  0.00     0.000 C
ATOM     82  O5  IDS C   5     139.220  28.861  45.3620  0.00  0.00     0.000 O
BRANCH 78 83
ATOM     83   O  IDS C   5     135.677  28.150  45.7870  0.00  0.00     0.000 O
ATOM     84   S  IDS C   5     134.532  28.372  46.8760  0.00  0.00     0.000 S
ATOM     85   O  IDS C   5     135.210  28.544  48.1330  0.00  0.00     0.000 OA
ATOM     86   O  IDS C   5     133.825  29.555  46.4460  0.00  0.00     0.000 OA
ATOM     87   O  IDS C   5     133.713  27.185  46.8290  0.00  0.00     0.000 OA
ENDBRANCH 78 83
BRANCH 81 88
ATOM     88   C  IDS C   5     140.561  30.703  44.6750  0.00  0.00     0.000 C
ATOM     89   O  IDS C   5     141.321  29.875  44.2500  0.00  0.00     0.000 OA
ATOM     90   O  IDS C   5     140.873  31.871  44.6910  0.00  0.00     0.000 OA
ENDBRANCH 81 88
ENDBRANCH 76 80
ENDBRANCH 56 76
ENDBRANCH 55 59
ENDBRANCH 39 55
ENDBRANCH 38 42
ENDBRANCH 18 38
ENDBRANCH 17 21
ENDBRANCH 1 17
TORSDOF 18
ENDMDL
MODEL 76
REMARK VINA RESULT:      -7.0     19.071     22.859
ROOT
ATOM      1  C1  IDS C   1     159.127  36.034  50.3390  0.00  0.00     0.000 C
ATOM      2  C2  IDS C   1     159.631  35.604  51.7200  0.00  0.00     0.000 C
ATOM      3  C3  IDS C   1     161.117  35.893  51.8660  0.00  0.00     0.000 C
ATOM      4  C4  IDS C   1     161.914  35.167  50.7920  0.00  0.00     0.000 C
ATOM      5  C5  IDS C   1     161.162  35.205  49.4660  0.00  0.00     0.000 C
ATOM      6  O5  IDS C   1     160.221  36.280  49.4660  0.00  0.00     0.000 O
ATOM      7   O  IDS C   1     161.565  35.487  53.1680  0.00  0.00     0.000 O
ATOM      9  HD  IDS C   1     160.933  35.653  53.7370  0.00  0.00     0.000 HD
ENDROOT
BRANCH 2 9
ATOM      9   O  IDS C   1     158.925  36.342  52.7920  0.00  0.00     0.000 O
ATOM     10   S  IDS C   1     158.049  35.535  53.8530  0.00  0.00     0.000 S
ATOM     11   O  IDS C   1     157.512  36.525  54.7590  0.00  0.00     0.000 OA
ATOM     12   O  IDS C   1     157.024  34.862  53.0810  0.00  0.00     0.000 OA
ATOM     13   O  IDS C   1     158.961  34.617  54.5000  0.00  0.00     0.000 OA
ENDBRANCH 2 9
BRANCH 5 14
ATOM     14   C  IDS C   1     162.096  35.384  48.2810  0.00  0.00     0.000 C
ATOM     15   O  IDS C   1     161.729  36.024  47.3270  0.00  0.00     0.000 OA
ATOM     16   O  IDS C   1     163.206  34.879  48.3040  0.00  0.00     0.000 OA
ENDBRANCH 5 14
BRANCH 1 17
ATOM     17  O4  SGN C   2     157.969  36.675  50.1540  0.00  0.00     0.000 O
BRANCH 17 21
ATOM     18  C1  SGN C   2     155.613  39.748  48.5630  0.00  0.00     0.000 C
ATOM     19  C2  SGN C   2     157.067  39.677  48.0800  0.00  0.00     0.000 C
ATOM     20  C3  SGN C   2     157.655  38.298  48.4030  0.00  0.00     0.000 C
ATOM     21  C4  SGN C   2     157.478  37.985  49.8840  0.00  0.00     0.000 C
ATOM     22  C5  SGN C   2     155.997  38.083  50.2400  0.00  0.00     0.000 C
ATOM     23  O5  SGN C   2     155.506  39.407  49.9290  0.00  0.00     0.000 O
ATOM     24   O  SGN C   2     159.024  38.259  48.0370  0.00  0.00     0.000 O
ATOM     26  HD  SGN C   2     158.214  37.962  48.1120  0.00  0.00     0.000 HD
BRANCH 19 28
ATOM     26   N  SGN C   2     156.999  40.446  46.8300  0.00  0.00     0.000 N
ATOM     28  HD  SGN C   2     156.384  40.803  47.3260  0.00  0.00     0.000 HD
ATOM     28   O  SGN C   2     158.168  41.422  44.8540  0.00  0.00     0.000 OA
ATOM     29   S  SGN C   2     158.125  41.516  46.4170  0.00  0.00     0.000 S
ATOM     30   O  SGN C   2     157.650  42.796  46.7800  0.00  0.00     0.000 OA
ATOM     31   O  SGN C   2     159.368  41.056  46.9330  0.00  0.00     0.000 OA
ENDBRANCH 19 28
BRANCH 22 32
ATOM     32   C  SGN C   2     155.717  37.847  51.7040  0.00  0.00     0.000 C
ATOM     33   S  SGN C   2     153.740  37.177  53.2160  0.00  0.00     0.000 S
ATOM     34   O  SGN C   2     153.152  38.491  53.1450  0.00  0.00     0.000 OA
ATOM     35   O  SGN C   2     152.769  36.104  53.1890  0.00  0.00     0.000 OA
ATOM     36   O  SGN C   2     154.730  37.031  54.2560  0.00  0.00     0.000 OA
ATOM     37   O  SGN C   2     154.547  37.033  51.8460  0.00  0.00     0.000 O
ENDBRANCH 22 32
BRANCH 18 38
ATOM     38  O4  IDS C   3     154.499  39.255  48.0180  0.00  0.00     0.000 O
BRANCH 38 42
ATOM     39  C1  IDS C   3     152.101  37.646  46.0710  0.00  0.00     0.000 C
ATOM     40  C2  IDS C   3     153.131  38.593  45.4360  0.00  0.00     0.000 C
ATOM     41  C3  IDS C   3     153.148  39.948  46.1440  0.00  0.00     0.000 C
ATOM     42  C4  IDS C   3     153.216  39.777  47.6560  0.00  0.00     0.000 C
ATOM     43  C5  IDS C   3     152.112  38.821  48.1210  0.00  0.00     0.000 C
ATOM     44  O5  IDS C   3     152.282  37.561  47.4750  0.00  0.00     0.000 O
ATOM     45   O  IDS C   3     151.972  40.679  45.7940  0.00  0.00     0.000 O
ATOM     47  HD  IDS C   3     151.120  40.525  45.8350  0.00  0.00     0.000 HD
BRANCH 40 47
ATOM     47   O  IDS C   3     154.495  38.022  45.5360  0.00  0.00     0.000 O
ATOM     48   S  IDS C   3     155.557  38.288  44.3700  0.00  0.00     0.000 S
ATOM     49   O  IDS C   3     155.187  37.402  43.2870  0.00  0.00     0.000 OA
ATOM     50   O  IDS C   3     156.843  37.953  44.9430  0.00  0.00     0.000 OA
ATOM     51   O  IDS C   3     155.437  39.678  44.0200  0.00  0.00     0.000 OA
ENDBRANCH 40 47
BRANCH 43 52
ATOM     52   C  IDS C   3     152.100  38.625  49.6210  0.00  0.00     0.000 C
ATOM     53   O  IDS C   3     152.098  39.587  50.3550  0.00  0.00     0.000 OA
ATOM     54   O  IDS C   3     152.092  37.510  50.0780  0.00  0.00     0.000 OA
ENDBRANCH 43 52
BRANCH 39 55
ATOM     55  O4  SGN C   4     150.828  37.571  45.6820  0.00  0.00     0.000 O
BRANCH 55 59
ATOM     56  C1  SGN C   4     147.484  35.409  44.3990  0.00  0.00     0.000 C
ATOM     57  C2  SGN C   4     148.309  34.787  45.5380  0.00  0.00     0.000 C
ATOM     58  C3  SGN C   4     149.234  35.826  46.1670  0.00  0.00     0.000 C
ATOM     59  C4  SGN C   4     150.051  36.537  45.0950  0.00  0.00     0.000 C
ATOM     60  C5  SGN C   4     149.096  37.127  44.0600  0.00  0.00     0.000 C
ATOM     61  O5  SGN C   4     148.345  36.048  43.4700  0.00  0.00     0.000 O
ATOM     62   O  SGN C   4     150.087  35.194  47.1120  0.00  0.00     0.000 O
ATOM     64  HD  SGN C   4     149.372  34.705  47.1040  0.00  0.00     0.000 HD
BRANCH 57 66
ATOM     64   N  SGN C   4     147.117  33.927  45.6030  0.00  0.00     0.000 N
ATOM     66  HD  SGN C   4     146.938  33.092  45.4570  0.00  0.00     0.000 HD
ATOM     66   S  SGN C   4     147.130  32.584  46.4650  0.00  0.00     0.000 S
ATOM     67   O  SGN C   4     145.876  31.950  46.2830  0.00  0.00     0.000 OA
ATOM     68   O  SGN C   4     148.322  31.885  46.1270  0.00  0.00     0.000 OA
ATOM     69   O  SGN C   4     147.248  33.089  47.9380  0.00  0.00     0.000 OA
ENDBRANCH 57 66
BRANCH 60 70
ATOM     70   C  SGN C   4     149.791  37.872  42.9410  0.00  0.00     0.000 C
ATOM     71   O  SGN C   4     149.873  36.924  39.3080  0.00  0.00     0.000 OA
ATOM     72   O  SGN C   4     148.496  38.610  40.3610  0.00  0.00     0.000 OA
ATOM     73   O  SGN C   4     149.774  37.094  41.7290  0.00  0.00     0.000 O
ATOM     74   S  SGN C   4     149.762  37.913  40.3560  0.00  0.00     0.000 S
ATOM     75   O  SGN C   4     150.908  38.795  40.4400  0.00  0.00     0.000 OA
ENDBRANCH 60 70
BRANCH 56 76
ATOM     76  O4  IDS C   5     146.272  35.984  44.2920  0.00  0.00     0.000 O
BRANCH 76 80
ATOM     77  C1  IDS C   5     142.638  37.841  44.2240  0.00  0.00     0.000 C
ATOM     78  C2  IDS C   5     143.744  38.582  43.4720  0.00  0.00     0.000 C
ATOM     79  C3  IDS C   5     144.892  37.636  43.1820  0.00  0.00     0.000 C
ATOM     80  C4  IDS C   5     145.540  37.202  44.4940  0.00  0.00     0.000 C
ATOM     81  C5  IDS C   5     144.451  37.003  45.5570  0.00  0.00     0.000 C
ATOM     82  O5  IDS C   5     143.188  36.735  44.9400  0.00  0.00     0.000 O
BRANCH 78 83
ATOM     83   O  IDS C   5     143.237  39.113  42.1850  0.00  0.00     0.000 O
ATOM     84   S  IDS C   5     143.750  40.526  41.6530  0.00  0.00     0.000 S
ATOM     85   O  IDS C   5     143.627  41.435  42.7610  0.00  0.00     0.000 OA
ATOM     86   O  IDS C   5     145.119  40.305  41.2500  0.00  0.00     0.000 OA
ATOM     87   O  IDS C   5     142.891  40.861  40.5430  0.00  0.00     0.000 OA
ENDBRANCH 78 83
BRANCH 81 88
ATOM     88   C  IDS C   5     144.736  35.869  46.5260  0.00  0.00     0.000 C
ATOM     89   O  IDS C   5     145.564  36.010  47.3850  0.00  0.00     0.000 OA
ATOM     90   O  IDS C   5     144.125  34.829  46.4270  0.00  0.00     0.000 OA
ENDBRANCH 81 88
ENDBRANCH 76 80
ENDBRANCH 56 76
ENDBRANCH 55 59
ENDBRANCH 39 55
ENDBRANCH 38 42
ENDBRANCH 18 38
ENDBRANCH 17 21
ENDBRANCH 1 17
TORSDOF 18
ENDMDL
MODEL 77
REMARK VINA RESULT:      -6.9     21.216     29.632
ROOT
ATOM      1  C1  IDS C   1     157.959  37.827  52.8530  0.00  0.00     0.000 C
ATOM      2  C2  IDS C   1     156.640  37.073  53.0430  0.00  0.00     0.000 C
ATOM      3  C3  IDS C   1     155.463  37.916  52.5760  0.00  0.00     0.000 C
ATOM      4  C4  IDS C   1     155.406  39.230  53.3440  0.00  0.00     0.000 C
ATOM      5  C5  IDS C   1     156.816  39.772  53.5590  0.00  0.00     0.000 C
ATOM      6  O5  IDS C   1     157.711  39.204  52.6030  0.00  0.00     0.000 O
ATOM      7   O  IDS C   1     154.241  37.188  52.7600  0.00  0.00     0.000 O
ATOM      9  HD  IDS C   1     154.394  36.352  52.5930  0.00  0.00     0.000 HD
ENDROOT
BRANCH 2 9
ATOM      9   O  IDS C   1     156.631  35.819  52.2550  0.00  0.00     0.000 O
ATOM     10   S  IDS C   1     156.381  34.430  52.9970  0.00  0.00     0.000 S
ATOM     11   O  IDS C   1     156.418  33.418  51.9640  0.00  0.00     0.000 OA
ATOM     12   O  IDS C   1     157.460  34.299  53.9540  0.00  0.00     0.000 OA
ATOM     13   O  IDS C   1     155.082  34.545  53.6230  0.00  0.00     0.000 OA
ENDBRANCH 2 9
BRANCH 5 14
ATOM     14   C  IDS C   1     156.873  41.285  53.4330  0.00  0.00     0.000 C
ATOM     15   O  IDS C   1     157.614  41.786  52.6220  0.00  0.00     0.000 OA
ATOM     16   O  IDS C   1     156.174  41.979  54.1510  0.00  0.00     0.000 OA
ENDBRANCH 5 14
BRANCH 1 17
ATOM     17  O4  SGN C   2     159.064  37.250  52.3710  0.00  0.00     0.000 O
BRANCH 17 21
ATOM     18  C1  SGN C   2     162.231  36.819  49.6680  0.00  0.00     0.000 C
ATOM     19  C2  SGN C   2     161.442  38.132  49.5970  0.00  0.00     0.000 C
ATOM     20  C3  SGN C   2     160.628  38.318  50.8830  0.00  0.00     0.000 C
ATOM     21  C4  SGN C   2     159.764  37.089  51.1400  0.00  0.00     0.000 C
ATOM     22  C5  SGN C   2     160.658  35.854  51.1940  0.00  0.00     0.000 C
ATOM     23  O5  SGN C   2     161.386  35.723  49.9510  0.00  0.00     0.000 O
ATOM     24   O  SGN C   2     159.831  39.487  50.7840  0.00  0.00     0.000 O
ATOM     26  HD  SGN C   2     160.356  38.915  51.1670  0.00  0.00     0.000 HD
BRANCH 19 28
ATOM     26   N  SGN C   2     162.392  39.006  48.8950  0.00  0.00     0.000 N
ATOM     28  HD  SGN C   2     162.562  38.219  48.5770  0.00  0.00     0.000 HD
ATOM     28   O  SGN C   2     162.912  41.234  47.9000  0.00  0.00     0.000 OA
ATOM     29   S  SGN C   2     161.928  40.026  47.7410  0.00  0.00     0.000 S
ATOM     30   O  SGN C   2     162.175  39.403  46.4980  0.00  0.00     0.000 OA
ATOM     31   O  SGN C   2     160.614  40.467  48.0570  0.00  0.00     0.000 OA
ENDBRANCH 19 28
BRANCH 22 32
ATOM     32   C  SGN C   2     159.892  34.568  51.3870  0.00  0.00     0.000 C
ATOM     33   S  SGN C   2     159.472  32.355  50.1340  0.00  0.00     0.000 S
ATOM     34   O  SGN C   2     158.537  32.969  49.2240  0.00  0.00     0.000 OA
ATOM     35   O  SGN C   2     160.330  31.371  49.5090  0.00  0.00     0.000 OA
ATOM     36   O  SGN C   2     158.878  31.899  51.3690  0.00  0.00     0.000 OA
ATOM     37   O  SGN C   2     160.450  33.545  50.5540  0.00  0.00     0.000 O
ENDBRANCH 22 32
BRANCH 18 38
ATOM     38  O4  IDS C   3     163.365  36.528  50.3110  0.00  0.00     0.000 O
BRANCH 38 42
ATOM     39  C1  IDS C   3     166.098  36.197  52.4430  0.00  0.00     0.000 C
ATOM     40  C2  IDS C   3     165.816  37.522  51.7160  0.00  0.00     0.000 C
ATOM     41  C3  IDS C   3     165.646  37.303  50.2140  0.00  0.00     0.000 C
ATOM     42  C4  IDS C   3     164.692  36.151  49.9290  0.00  0.00     0.000 C
ATOM     43  C5  IDS C   3     165.129  34.909  50.7150  0.00  0.00     0.000 C
ATOM     44  O5  IDS C   3     165.132  35.215  52.1080  0.00  0.00     0.000 O
ATOM     45   O  IDS C   3     166.921  37.029  49.6280  0.00  0.00     0.000 O
ATOM     47  HD  IDS C   3     167.548  36.450  49.7710  0.00  0.00     0.000 HD
BRANCH 40 47
ATOM     47   O  IDS C   3     164.565  38.136  52.2210  0.00  0.00     0.000 O
ATOM     48   S  IDS C   3     164.586  39.631  52.7900  0.00  0.00     0.000 S
ATOM     49   O  IDS C   3     165.163  39.543  54.1150  0.00  0.00     0.000 OA
ATOM     50   O  IDS C   3     163.201  40.047  52.8170  0.00  0.00     0.000 OA
ATOM     51   O  IDS C   3     165.391  40.401  51.8810  0.00  0.00     0.000 OA
ENDBRANCH 40 47
BRANCH 43 52
ATOM     52   C  IDS C   3     164.241  33.711  50.4600  0.00  0.00     0.000 C
ATOM     53   O  IDS C   3     164.154  33.252  49.3440  0.00  0.00     0.000 OA
ATOM     54   O  IDS C   3     163.624  33.220  51.3710  0.00  0.00     0.000 OA
ENDBRANCH 43 52
BRANCH 39 55
ATOM     55  O4  SGN C   4     167.323  35.709  52.6400  0.00  0.00     0.000 O
BRANCH 55 59
ATOM     56  C1  SGN C   4     170.247  33.823  54.9640  0.00  0.00     0.000 C
ATOM     57  C2  SGN C   4     168.924  33.061  54.7710  0.00  0.00     0.000 C
ATOM     58  C3  SGN C   4     168.123  33.651  53.6140  0.00  0.00     0.000 C
ATOM     59  C4  SGN C   4     167.978  35.160  53.7750  0.00  0.00     0.000 C
ATOM     60  C5  SGN C   4     169.369  35.773  53.9200  0.00  0.00     0.000 C
ATOM     61  O5  SGN C   4     169.991  35.212  55.0930  0.00  0.00     0.000 O
ATOM     62   O  SGN C   4     166.847  33.028  53.5530  0.00  0.00     0.000 O
ATOM     64  HD  SGN C   4     167.364  32.428  53.9030  0.00  0.00     0.000 HD
BRANCH 57 66
ATOM     64   N  SGN C   4     168.246  31.918  55.4050  0.00  0.00     0.000 N
ATOM     66  HD  SGN C   4     168.190  31.066  55.2610  0.00  0.00     0.000 HD
ATOM     66   S  SGN C   4     169.072  30.625  55.8430  0.00  0.00     0.000 S
ATOM     67   O  SGN C   4     168.146  29.684  56.3590  0.00  0.00     0.000 OA
ATOM     68   O  SGN C   4     169.895  30.264  54.7400  0.00  0.00     0.000 OA
ATOM     69   O  SGN C   4     169.985  31.143  57.0000  0.00  0.00     0.000 OA
ENDBRANCH 57 66
BRANCH 60 70
ATOM     70   C  SGN C   4     169.359  37.279  54.0780  0.00  0.00     0.000 C
ATOM     71   O  SGN C   4     169.006  39.208  57.2810  0.00  0.00     0.000 OA
ATOM     72   O  SGN C   4     171.035  38.768  56.0420  0.00  0.00     0.000 OA
ATOM     73   O  SGN C   4     168.996  37.642  55.4240  0.00  0.00     0.000 O
ATOM     74   S  SGN C   4     169.611  39.008  55.9850  0.00  0.00     0.000 S
ATOM     75   O  SGN C   4     169.234  40.012  55.0100  0.00  0.00     0.000 OA
ENDBRANCH 60 70
BRANCH 56 76
ATOM     76  O4  IDS C   5     171.511  33.681  54.5260  0.00  0.00     0.000 O
BRANCH 76 80
ATOM     77  C1  IDS C   5     175.548  33.902  55.0830  0.00  0.00     0.000 C
ATOM     78  C2  IDS C   5     174.801  35.213  55.3290  0.00  0.00     0.000 C
ATOM     79  C3  IDS C   5     173.325  34.933  55.5300  0.00  0.00     0.000 C
ATOM     80  C4  IDS C   5     172.728  34.385  54.2370  0.00  0.00     0.000 C
ATOM     81  C5  IDS C   5     173.743  33.448  53.5660  0.00  0.00     0.000 C
ATOM     82  O5  IDS C   5     174.662  32.928  54.5310  0.00  0.00     0.000 O
BRANCH 78 83
ATOM     83   O  IDS C   5     175.319  35.890  56.5410  0.00  0.00     0.000 O
ATOM     84   S  IDS C   5     175.705  37.437  56.4800  0.00  0.00     0.000 S
ATOM     85   O  IDS C   5     176.530  37.593  55.3130  0.00  0.00     0.000 OA
ATOM     86   O  IDS C   5     174.446  38.138  56.3850  0.00  0.00     0.000 OA
ATOM     87   O  IDS C   5     176.403  37.714  57.7120  0.00  0.00     0.000 OA
ENDBRANCH 78 83
BRANCH 81 88
ATOM     88   C  IDS C   5     173.112  32.266  52.8520  0.00  0.00     0.000 C
ATOM     89   O  IDS C   5     172.592  32.422  51.7810  0.00  0.00     0.000 OA
ATOM     90   O  IDS C   5     173.139  31.172  53.3680  0.00  0.00     0.000 OA
ENDBRANCH 81 88
ENDBRANCH 76 80
ENDBRANCH 56 76
ENDBRANCH 55 59
ENDBRANCH 39 55
ENDBRANCH 38 42
ENDBRANCH 18 38
ENDBRANCH 17 21
ENDBRANCH 1 17
TORSDOF 18
ENDMDL
MODEL 78
REMARK VINA RESULT:      -6.9     21.062     25.266
ROOT
ATOM      1  C1  IDS C   1     160.082  34.717  47.7460  0.00  0.00     0.000 C
ATOM      2  C2  IDS C   1     161.302  33.793  47.7960  0.00  0.00     0.000 C
ATOM      3  C3  IDS C   1     162.237  34.069  46.6270  0.00  0.00     0.000 C
ATOM      4  C4  IDS C   1     161.512  33.873  45.3030  0.00  0.00     0.000 C
ATOM      5  C5  IDS C   1     160.086  34.406  45.4020  0.00  0.00     0.000 C
ATOM      6  O5  IDS C   1     159.986  35.344  46.4740  0.00  0.00     0.000 O
ATOM      7   O  IDS C   1     163.373  33.196  46.6980  0.00  0.00     0.000 O
ATOM      9  HD  IDS C   1     163.582  33.089  47.5310  0.00  0.00     0.000 HD
ENDROOT
BRANCH 2 9
ATOM      9   O  IDS C   1     162.072  34.004  49.0430  0.00  0.00     0.000 O
ATOM     10   S  IDS C   1     162.282  32.786  50.0500  0.00  0.00     0.000 S
ATOM     11   O  IDS C   1     163.074  33.306  51.1420  0.00  0.00     0.000 OA
ATOM     12   O  IDS C   1     160.952  32.385  50.4580  0.00  0.00     0.000 OA
ATOM     13   O  IDS C   1     162.972  31.764  49.2940  0.00  0.00     0.000 OA
ENDBRANCH 2 9
BRANCH 5 14
ATOM     14   C  IDS C   1     159.639  35.089  44.1210  0.00  0.00     0.000 C
ATOM     15   O  IDS C   1     160.051  34.689  43.0600  0.00  0.00     0.000 OA
ATOM     16   O  IDS C   1     158.871  36.035  44.1760  0.00  0.00     0.000 OA
ENDBRANCH 5 14
BRANCH 1 17
ATOM     17  O4  SGN C   2     159.584  35.324  48.8280  0.00  0.00     0.000 O
BRANCH 17 21
ATOM     18  C1  SGN C   2     159.483  38.488  51.5660  0.00  0.00     0.000 C
ATOM     19  C2  SGN C   2     160.494  38.605  50.4180  0.00  0.00     0.000 C
ATOM     20  C3  SGN C   2     160.126  37.622  49.3000  0.00  0.00     0.000 C
ATOM     21  C4  SGN C   2     159.990  36.212  49.8650  0.00  0.00     0.000 C
ATOM     22  C5  SGN C   2     158.959  36.224  50.9900  0.00  0.00     0.000 C
ATOM     23  O5  SGN C   2     159.368  37.155  52.0180  0.00  0.00     0.000 O
ATOM     24   O  SGN C   2     161.107  37.666  48.2780  0.00  0.00     0.000 O
ATOM     26  HD  SGN C   2     160.308  37.630  48.6100  0.00  0.00     0.000 HD
BRANCH 19 28
ATOM     26   N  SGN C   2     160.779  40.047  50.4260  0.00  0.00     0.000 N
ATOM     28  HD  SGN C   2     160.636  39.860  51.2600  0.00  0.00     0.000 HD
ATOM     28   O  SGN C   2     162.007  41.987  49.4520  0.00  0.00     0.000 OA
ATOM     29   S  SGN C   2     162.259  40.631  50.1920  0.00  0.00     0.000 S
ATOM     30   O  SGN C   2     162.814  40.905  51.4620  0.00  0.00     0.000 OA
ATOM     31   O  SGN C   2     162.936  39.749  49.3050  0.00  0.00     0.000 OA
ENDBRANCH 19 28
BRANCH 22 32
ATOM     32   C  SGN C   2     158.789  34.883  51.6600  0.00  0.00     0.000 C
ATOM     33   S  SGN C   2     157.243  33.763  53.3920  0.00  0.00     0.000 S
ATOM     34   O  SGN C   2     157.895  34.419  54.4990  0.00  0.00     0.000 OA
ATOM     35   O  SGN C   2     155.807  33.659  53.5440  0.00  0.00     0.000 OA
ATOM     36   O  SGN C   2     157.870  32.527  52.9870  0.00  0.00     0.000 OA
ATOM     37   O  SGN C   2     157.453  34.762  52.1650  0.00  0.00     0.000 O
ENDBRANCH 22 32
BRANCH 18 38
ATOM     38  O4  IDS C   3     158.246  38.977  51.6780  0.00  0.00     0.000 O
BRANCH 38 42
ATOM     39  C1  IDS C   3     155.439  40.950  51.0790  0.00  0.00     0.000 C
ATOM     40  C2  IDS C   3     156.854  41.549  51.0310  0.00  0.00     0.000 C
ATOM     41  C3  IDS C   3     157.636  41.225  52.3030  0.00  0.00     0.000 C
ATOM     42  C4  IDS C   3     157.532  39.746  52.6520  0.00  0.00     0.000 C
ATOM     43  C5  IDS C   3     156.058  39.321  52.6760  0.00  0.00     0.000 C
ATOM     44  O5  IDS C   3     155.480  39.568  51.3950  0.00  0.00     0.000 O
ATOM     45   O  IDS C   3     157.130  42.011  53.3830  0.00  0.00     0.000 O
ATOM     47  HD  IDS C   3     156.350  42.131  53.7400  0.00  0.00     0.000 HD
BRANCH 40 47
ATOM     47   O  IDS C   3     157.615  40.994  49.8870  0.00  0.00     0.000 O
ATOM     48   S  IDS C   3     158.158  41.972  48.7430  0.00  0.00     0.000 S
ATOM     49   O  IDS C   3     157.013  42.293  47.9190  0.00  0.00     0.000 OA
ATOM     50   O  IDS C   3     159.156  41.205  48.0290  0.00  0.00     0.000 OA
ATOM     51   O  IDS C   3     158.702  43.121  49.4150  0.00  0.00     0.000 OA
ENDBRANCH 40 47
BRANCH 43 52
ATOM     52   C  IDS C   3     155.875  37.865  53.0440  0.00  0.00     0.000 C
ATOM     53   O  IDS C   3     156.525  37.384  53.9430  0.00  0.00     0.000 OA
ATOM     54   O  IDS C   3     155.080  37.192  52.4380  0.00  0.00     0.000 OA
ENDBRANCH 43 52
BRANCH 39 55
ATOM     55  O4  SGN C   4     154.382  41.590  51.5790  0.00  0.00     0.000 O
BRANCH 55 59
ATOM     56  C1  SGN C   4     150.917  43.896  51.1560  0.00  0.00     0.000 C
ATOM     57  C2  SGN C   4     150.734  42.369  51.1330  0.00  0.00     0.000 C
ATOM     58  C3  SGN C   4     151.973  41.666  51.6830  0.00  0.00     0.000 C
ATOM     59  C4  SGN C   4     153.231  42.174  50.9870  0.00  0.00     0.000 C
ATOM     60  C5  SGN C   4     153.288  43.694  51.1240  0.00  0.00     0.000 C
ATOM     61  O5  SGN C   4     152.119  44.250  50.4910  0.00  0.00     0.000 O
ATOM     62   O  SGN C   4     151.838  40.262  51.5130  0.00  0.00     0.000 O
ATOM     64  HD  SGN C   4     151.024  40.551  51.5810  0.00  0.00     0.000 HD
BRANCH 57 66
ATOM     64   N  SGN C   4     149.565  41.761  51.7900  0.00  0.00     0.000 N
ATOM     66  HD  SGN C   4     148.758  42.009  51.9840  0.00  0.00     0.000 HD
ATOM     66   S  SGN C   4     148.148  41.728  51.0560  0.00  0.00     0.000 S
ATOM     67   O  SGN C   4     147.219  41.144  51.9530  0.00  0.00     0.000 OA
ATOM     68   O  SGN C   4     147.908  43.038  50.5560  0.00  0.00     0.000 OA
ATOM     69   O  SGN C   4     148.379  40.765  49.8470  0.00  0.00     0.000 OA
ENDBRANCH 57 66
BRANCH 60 70
ATOM     70   C  SGN C   4     154.505  44.319  50.4780  0.00  0.00     0.000 C
ATOM     71   O  SGN C   4     156.574  47.148  51.8300  0.00  0.00     0.000 OA
ATOM     72   O  SGN C   4     157.093  44.787  51.8810  0.00  0.00     0.000 OA
ATOM     73   O  SGN C   4     154.900  45.508  51.1900  0.00  0.00     0.000 O
ATOM     74   S  SGN C   4     156.457  45.870  51.1660  0.00  0.00     0.000 S
ATOM     75   O  SGN C   4     156.805  45.916  49.7600  0.00  0.00     0.000 OA
ENDBRANCH 60 70
BRANCH 56 76
ATOM     76  O4  IDS C   5     150.621  44.887  52.0160  0.00  0.00     0.000 O
BRANCH 76 80
ATOM     77  C1  IDS C   5     152.982  45.812  55.2150  0.00  0.00     0.000 C
ATOM     78  C2  IDS C   5     151.878  44.798  55.5130  0.00  0.00     0.000 C
ATOM     79  C3  IDS C   5     151.362  44.203  54.2180  0.00  0.00     0.000 C
ATOM     80  C4  IDS C   5     150.678  45.289  53.3930  0.00  0.00     0.000 C
ATOM     81  C5  IDS C   5     151.457  46.604  53.5370  0.00  0.00     0.000 C
ATOM     82  O5  IDS C   5     152.817  46.345  53.9010  0.00  0.00     0.000 O
BRANCH 78 83
ATOM     83   O  IDS C   5     152.392  43.698  56.3620  0.00  0.00     0.000 O
ATOM     84   S  IDS C   5     151.843  43.521  57.8490  0.00  0.00     0.000 S
ATOM     85   O  IDS C   5     151.914  44.824  58.4550  0.00  0.00     0.000 OA
ATOM     86   O  IDS C   5     150.491  43.038  57.6980  0.00  0.00     0.000 OA
ATOM     87   O  IDS C   5     152.713  42.555  58.4740  0.00  0.00     0.000 OA
ENDBRANCH 78 83
BRANCH 81 88
ATOM     88   C  IDS C   5     151.474  47.451  52.2770  0.00  0.00     0.000 C
ATOM     89   O  IDS C   5     150.498  48.078  51.9650  0.00  0.00     0.000 OA
ATOM     90   O  IDS C   5     152.472  47.489  51.5950  0.00  0.00     0.000 OA
ENDBRANCH 81 88
ENDBRANCH 76 80
ENDBRANCH 56 76
ENDBRANCH 55 59
ENDBRANCH 39 55
ENDBRANCH 38 42
ENDBRANCH 18 38
ENDBRANCH 17 21
ENDBRANCH 1 17
TORSDOF 18
ENDMDL
MODEL 79
REMARK VINA RESULT:      -6.9     27.664     33.147
ROOT
ATOM      1  C1  IDS C   1     166.195  20.700  78.7360  0.00  0.00     0.000 C
ATOM      2  C2  IDS C   1     165.345  21.165  79.9230  0.00  0.00     0.000 C
ATOM      3  C3  IDS C   1     164.355  22.237  79.4920  0.00  0.00     0.000 C
ATOM      4  C4  IDS C   1     165.084  23.434  78.8980  0.00  0.00     0.000 C
ATOM      5  C5  IDS C   1     166.258  22.961  78.0460  0.00  0.00     0.000 C
ATOM      6  O5  IDS C   1     166.061  21.605  77.6470  0.00  0.00     0.000 O
ATOM      7   O  IDS C   1     163.569  22.652  80.6180  0.00  0.00     0.000 O
ATOM      9  HD  IDS C   1     163.418  21.959  81.1150  0.00  0.00     0.000 HD
ENDROOT
BRANCH 2 9
ATOM      9   O  IDS C   1     164.567  20.038  80.4860  0.00  0.00     0.000 O
ATOM     10   S  IDS C   1     164.611  19.763  82.0560  0.00  0.00     0.000 S
ATOM     11   O  IDS C   1     163.749  18.624  82.2830  0.00  0.00     0.000 OA
ATOM     12   O  IDS C   1     166.000  19.489  82.3640  0.00  0.00     0.000 OA
ATOM     13   O  IDS C   1     164.122  20.970  82.6830  0.00  0.00     0.000 OA
ENDBRANCH 2 9
BRANCH 5 14
ATOM     14   C  IDS C   1     166.439  23.808  76.7980  0.00  0.00     0.000 C
ATOM     15   O  IDS C   1     165.941  23.449  75.7590  0.00  0.00     0.000 OA
ATOM     16   O  IDS C   1     167.085  24.841  76.8550  0.00  0.00     0.000 OA
ENDBRANCH 5 14
BRANCH 1 17
ATOM     17  O4  SGN C   2     166.482  19.416  78.5060  0.00  0.00     0.000 O
BRANCH 17 21
ATOM     18  C1  SGN C   2     166.311  15.933  76.1900  0.00  0.00     0.000 C
ATOM     19  C2  SGN C   2     165.677  17.192  75.5850  0.00  0.00     0.000 C
ATOM     20  C3  SGN C   2     166.181  18.436  76.3270  0.00  0.00     0.000 C
ATOM     21  C4  SGN C   2     165.949  18.283  77.8260  0.00  0.00     0.000 C
ATOM     22  C5  SGN C   2     166.628  17.004  78.3070  0.00  0.00     0.000 C
ATOM     23  O5  SGN C   2     166.100  15.868  77.5850  0.00  0.00     0.000 O
ATOM     24   O  SGN C   2     165.531  19.592  75.8280  0.00  0.00     0.000 O
ATOM     26  HD  SGN C   2     166.196  19.117  76.1140  0.00  0.00     0.000 HD
BRANCH 19 28
ATOM     26   N  SGN C   2     165.556  16.812  74.1710  0.00  0.00     0.000 N
ATOM     28  HD  SGN C   2     165.346  16.088  74.5970  0.00  0.00     0.000 HD
ATOM     28   O  SGN C   2     165.003  17.455  71.8250  0.00  0.00     0.000 OA
ATOM     29   S  SGN C   2     164.349  17.328  73.2420  0.00  0.00     0.000 S
ATOM     30   O  SGN C   2     163.376  16.305  73.2010  0.00  0.00     0.000 OA
ATOM     31   O  SGN C   2     163.985  18.627  73.6920  0.00  0.00     0.000 OA
ENDBRANCH 19 28
BRANCH 22 32
ATOM     32   C  SGN C   2     166.409  16.727  79.7750  0.00  0.00     0.000 C
ATOM     33   S  SGN C   2     167.808  16.386  81.9130  0.00  0.00     0.000 S
ATOM     34   O  SGN C   2     168.171  15.042  81.5430  0.00  0.00     0.000 OA
ATOM     35   O  SGN C   2     168.881  17.126  82.5440  0.00  0.00     0.000 OA
ATOM     36   O  SGN C   2     166.551  16.484  82.6160  0.00  0.00     0.000 OA
ATOM     37   O  SGN C   2     167.567  17.126  80.5180  0.00  0.00     0.000 O
ENDBRANCH 22 32
BRANCH 18 38
ATOM     38  O4  IDS C   3     167.531  15.417  76.0220  0.00  0.00     0.000 O
BRANCH 38 42
ATOM     39  C1  IDS C   3     170.021  13.118  75.2230  0.00  0.00     0.000 C
ATOM     40  C2  IDS C   3     170.216  14.133  76.3600  0.00  0.00     0.000 C
ATOM     41  C3  IDS C   3     169.934  15.557  75.8840  0.00  0.00     0.000 C
ATOM     42  C4  IDS C   3     168.620  15.632  75.1180  0.00  0.00     0.000 C
ATOM     43  C5  IDS C   3     168.601  14.569  74.0130  0.00  0.00     0.000 C
ATOM     44  O5  IDS C   3     168.756  13.280  74.6040  0.00  0.00     0.000 O
ATOM     45   O  IDS C   3     171.005  15.997  75.0470  0.00  0.00     0.000 O
ATOM     47  HD  IDS C   3     171.384  15.696  74.3290  0.00  0.00     0.000 HD
BRANCH 40 47
ATOM     47   O  IDS C   3     169.288  13.846  77.4790  0.00  0.00     0.000 O
ATOM     48   S  IDS C   3     169.379  12.448  78.2500  0.00  0.00     0.000 S
ATOM     49   O  IDS C   3     168.752  11.474  77.3830  0.00  0.00     0.000 OA
ATOM     50   O  IDS C   3     168.647  12.645  79.4820  0.00  0.00     0.000 OA
ATOM     51   O  IDS C   3     170.779  12.189  78.4590  0.00  0.00     0.000 OA
ENDBRANCH 40 47
BRANCH 43 52
ATOM     52   C  IDS C   3     167.333  14.602  73.1900  0.00  0.00     0.000 C
ATOM     53   O  IDS C   3     166.397  13.899  73.4960  0.00  0.00     0.000 OA
ATOM     54   O  IDS C   3     167.261  15.329  72.2330  0.00  0.00     0.000 OA
ENDBRANCH 43 52
BRANCH 39 55
ATOM     55  O4  SGN C   4     170.992  12.750  74.3860  0.00  0.00     0.000 O
BRANCH 55 59
ATOM     56  C1  SGN C   4     171.388   8.608  73.9500  0.00  0.00     0.000 C
ATOM     57  C2  SGN C   4     172.345   9.290  74.9420  0.00  0.00     0.000 C
ATOM     58  C3  SGN C   4     171.849  10.688  75.3000  0.00  0.00     0.000 C
ATOM     59  C4  SGN C   4     171.551  11.491  74.0390  0.00  0.00     0.000 C
ATOM     60  C5  SGN C   4     170.566  10.704  73.1770  0.00  0.00     0.000 C
ATOM     61  O5  SGN C   4     171.178   9.447  72.8250  0.00  0.00     0.000 O
ATOM     62   O  SGN C   4     172.822  11.349  76.0970  0.00  0.00     0.000 O
ATOM     64  HD  SGN C   4     172.938  10.508  76.2670  0.00  0.00     0.000 HD
BRANCH 57 66
ATOM     64   N  SGN C   4     172.432   8.240  75.9700  0.00  0.00     0.000 N
ATOM     66  HD  SGN C   4     172.691   7.414  76.0000  0.00  0.00     0.000 HD
ATOM     66   S  SGN C   4     173.809   7.479  76.2380  0.00  0.00     0.000 S
ATOM     67   O  SGN C   4     173.565   6.495  77.2280  0.00  0.00     0.000 OA
ATOM     68   O  SGN C   4     174.320   7.084  74.9710  0.00  0.00     0.000 OA
ATOM     69   O  SGN C   4     174.738   8.589  76.8280  0.00  0.00     0.000 OA
ENDBRANCH 57 66
BRANCH 60 70
ATOM     70   C  SGN C   4     170.183  11.406  71.8920  0.00  0.00     0.000 C
ATOM     71   O  SGN C   4     167.746  10.198  69.3020  0.00  0.00     0.000 OA
ATOM     72   O  SGN C   4     167.373  11.868  71.0110  0.00  0.00     0.000 OA
ATOM     73   O  SGN C   4     169.383  10.541  71.0630  0.00  0.00     0.000 O
ATOM     74   S  SGN C   4     168.318  11.253  70.1070  0.00  0.00     0.000 S
ATOM     75   O  SGN C   4     169.090  12.210  69.3400  0.00  0.00     0.000 OA
ENDBRANCH 60 70
BRANCH 56 76
ATOM     76  O4  IDS C   5     170.328   7.785  74.0470  0.00  0.00     0.000 O
BRANCH 76 80
ATOM     77  C1  IDS C   5     166.819   5.726  73.7160  0.00  0.00     0.000 C
ATOM     78  C2  IDS C   5     166.710   7.219  73.4090  0.00  0.00     0.000 C
ATOM     79  C3  IDS C   5     168.086   7.789  73.1290  0.00  0.00     0.000 C
ATOM     80  C4  IDS C   5     168.936   7.715  74.3940  0.00  0.00     0.000 C
ATOM     81  C5  IDS C   5     168.634   6.405  75.1340  0.00  0.00     0.000 C
ATOM     82  O5  IDS C   5     168.116   5.424  74.2300  0.00  0.00     0.000 O
BRANCH 78 83
ATOM     83   O  IDS C   5     165.857   7.448  72.2180  0.00  0.00     0.000 O
ATOM     84   S  IDS C   5     164.639   8.475  72.3010  0.00  0.00     0.000 S
ATOM     85   O  IDS C   5     163.915   8.134  73.4960  0.00  0.00     0.000 OA
ATOM     86   O  IDS C   5     165.250   9.782  72.3610  0.00  0.00     0.000 OA
ATOM     87   O  IDS C   5     163.875   8.273  71.0950  0.00  0.00     0.000 OA
ENDBRANCH 78 83
BRANCH 81 88
ATOM     88   C  IDS C   5     169.839   5.796  75.8280  0.00  0.00     0.000 C
ATOM     89   O  IDS C   5     170.374   4.828  75.3580  0.00  0.00     0.000 OA
ATOM     90   O  IDS C   5     170.255   6.292  76.8500  0.00  0.00     0.000 OA
ENDBRANCH 81 88
ENDBRANCH 76 80
ENDBRANCH 56 76
ENDBRANCH 55 59
ENDBRANCH 39 55
ENDBRANCH 38 42
ENDBRANCH 18 38
ENDBRANCH 17 21
ENDBRANCH 1 17
TORSDOF 18
ENDMDL
MODEL 80
REMARK VINA RESULT:      -6.9     21.018     25.780
ROOT
ATOM      1  C1  IDS C   1     143.111  45.194  44.2220  0.00  0.00     0.000 C
ATOM      2  C2  IDS C   1     143.022  46.680  43.8640  0.00  0.00     0.000 C
ATOM      3  C3  IDS C   1     142.101  47.414  44.8270  0.00  0.00     0.000 C
ATOM      4  C4  IDS C   1     140.705  46.807  44.8030  0.00  0.00     0.000 C
ATOM      5  C5  IDS C   1     140.797  45.288  44.6960  0.00  0.00     0.000 C
ATOM      6  O5  IDS C   1     142.080  44.841  45.1350  0.00  0.00     0.000 O
ATOM      7   O  IDS C   1     142.037  48.803  44.4740  0.00  0.00     0.000 O
ATOM      9  HD  IDS C   1     142.820  49.050  44.1960  0.00  0.00     0.000 HD
ENDROOT
BRANCH 2 9
ATOM      9   O  IDS C   1     144.354  47.322  43.9430  0.00  0.00     0.000 O
ATOM     10   S  IDS C   1     144.942  48.067  42.6620  0.00  0.00     0.000 S
ATOM     11   O  IDS C   1     146.229  48.590  43.0640  0.00  0.00     0.000 OA
ATOM     12   O  IDS C   1     145.042  47.052  41.6330  0.00  0.00     0.000 OA
ATOM     13   O  IDS C   1     143.991  49.106  42.3370  0.00  0.00     0.000 OA
ENDBRANCH 2 9
BRANCH 5 14
ATOM     14   C  IDS C   1     139.734  44.590  45.5270  0.00  0.00     0.000 C
ATOM     15   O  IDS C   1     138.711  44.227  45.0000  0.00  0.00     0.000 OA
ATOM     16   O  IDS C   1     139.922  44.404  46.7180  0.00  0.00     0.000 OA
ENDBRANCH 5 14
BRANCH 1 17
ATOM     17  O4  SGN C   2     144.260  44.512  44.2180  0.00  0.00     0.000 O
BRANCH 17 21
ATOM     18  C1  SGN C   2     147.659  42.915  46.0680  0.00  0.00     0.000 C
ATOM     19  C2  SGN C   2     146.611  43.551  46.9890  0.00  0.00     0.000 C
ATOM     20  C3  SGN C   2     145.280  43.694  46.2410  0.00  0.00     0.000 C
ATOM     21  C4  SGN C   2     145.492  44.446  44.9320  0.00  0.00     0.000 C
ATOM     22  C5  SGN C   2     146.548  43.717  44.1050  0.00  0.00     0.000 C
ATOM     23  O5  SGN C   2     147.781  43.628  44.8550  0.00  0.00     0.000 O
ATOM     24   O  SGN C   2     144.335  44.361  47.0610  0.00  0.00     0.000 O
ATOM     26  HD  SGN C   2     144.618  43.765  46.5000  0.00  0.00     0.000 HD
BRANCH 19 28
ATOM     26   N  SGN C   2     146.970  42.965  48.2880  0.00  0.00     0.000 N
ATOM     28  HD  SGN C   2     147.730  43.046  47.8820  0.00  0.00     0.000 HD
ATOM     28   O  SGN C   2     146.525  42.755  50.7340  0.00  0.00     0.000 OA
ATOM     29   S  SGN C   2     146.931  43.813  49.6540  0.00  0.00     0.000 S
ATOM     30   O  SGN C   2     148.247  44.250  49.9210  0.00  0.00     0.000 OA
ATOM     31   O  SGN C   2     145.883  44.768  49.5390  0.00  0.00     0.000 OA
ENDBRANCH 19 28
BRANCH 22 32
ATOM     32   C  SGN C   2     146.877  44.413  42.8070  0.00  0.00     0.000 C
ATOM     33   S  SGN C   2     147.132  43.836  40.3080  0.00  0.00     0.000 S
ATOM     34   O  SGN C   2     148.428  43.238  40.5080  0.00  0.00     0.000 OA
ATOM     35   O  SGN C   2     146.309  43.132  39.3470  0.00  0.00     0.000 OA
ATOM     36   O  SGN C   2     147.168  45.264  40.0970  0.00  0.00     0.000 OA
ATOM     37   O  SGN C   2     146.388  43.638  41.7060  0.00  0.00     0.000 O
ENDBRANCH 22 32
BRANCH 18 38
ATOM     38  O4  IDS C   3     147.835  41.640  45.7140  0.00  0.00     0.000 O
BRANCH 38 42
ATOM     39  C1  IDS C   3     148.308  38.572  44.1350  0.00  0.00     0.000 C
ATOM     40  C2  IDS C   3     147.113  38.804  45.0730  0.00  0.00     0.000 C
ATOM     41  C3  IDS C   3     147.569  39.351  46.4250  0.00  0.00     0.000 C
ATOM     42  C4  IDS C   3     148.537  40.514  46.2500  0.00  0.00     0.000 C
ATOM     43  C5  IDS C   3     149.673  40.106  45.3040  0.00  0.00     0.000 C
ATOM     44  O5  IDS C   3     149.119  39.731  44.0440  0.00  0.00     0.000 O
ATOM     45   O  IDS C   3     148.199  38.307  47.1700  0.00  0.00     0.000 O
ATOM     47  HD  IDS C   3     148.857  37.763  47.0240  0.00  0.00     0.000 HD
BRANCH 40 47
ATOM     47   O  IDS C   3     146.175  39.791  44.4870  0.00  0.00     0.000 O
ATOM     48   S  IDS C   3     144.833  39.289  43.7760  0.00  0.00     0.000 S
ATOM     49   O  IDS C   3     145.235  38.791  42.4780  0.00  0.00     0.000 OA
ATOM     50   O  IDS C   3     143.991  40.461  43.6820  0.00  0.00     0.000 OA
ATOM     51   O  IDS C   3     144.284  38.263  44.6210  0.00  0.00     0.000 OA
ENDBRANCH 40 47
BRANCH 43 52
ATOM     52   C  IDS C   3     150.692  41.206  45.1040  0.00  0.00     0.000 C
ATOM     53   O  IDS C   3     151.036  41.887  46.0430  0.00  0.00     0.000 OA
ATOM     54   O  IDS C   3     151.156  41.398  44.0090  0.00  0.00     0.000 OA
ENDBRANCH 43 52
BRANCH 39 55
ATOM     55  O4  SGN C   4     148.988  37.427  44.0740  0.00  0.00     0.000 O
BRANCH 55 59
ATOM     56  C1  SGN C   4     146.568  34.046  43.6090  0.00  0.00     0.000 C
ATOM     57  C2  SGN C   4     147.536  34.040  44.8050  0.00  0.00     0.000 C
ATOM     58  C3  SGN C   4     148.054  35.447  45.0890  0.00  0.00     0.000 C
ATOM     59  C4  SGN C   4     148.606  36.083  43.8190  0.00  0.00     0.000 C
ATOM     60  C5  SGN C   4     147.525  36.044  42.7410  0.00  0.00     0.000 C
ATOM     61  O5  SGN C   4     147.183  34.666  42.4920  0.00  0.00     0.000 O
ATOM     62   O  SGN C   4     149.054  35.391  46.0980  0.00  0.00     0.000 O
ATOM     64  HD  SGN C   4     148.542  34.713  46.2630  0.00  0.00     0.000 HD
BRANCH 57 66
ATOM     64   N  SGN C   4     147.950  33.212  45.9490  0.00  0.00     0.000 N
ATOM     66  HD  SGN C   4     147.573  32.898  46.6630  0.00  0.00     0.000 HD
ATOM     66   S  SGN C   4     147.139  31.892  46.3320  0.00  0.00     0.000 S
ATOM     67   O  SGN C   4     147.733  31.351  47.4990  0.00  0.00     0.000 OA
ATOM     68   O  SGN C   4     145.760  32.241  46.3470  0.00  0.00     0.000 OA
ATOM     69   O  SGN C   4     147.399  30.934  45.1250  0.00  0.00     0.000 OA
ENDBRANCH 57 66
BRANCH 60 70
ATOM     70   C  SGN C   4     147.952  36.659  41.4250  0.00  0.00     0.000 C
ATOM     71   O  SGN C   4     149.059  34.834  38.3360  0.00  0.00     0.000 OA
ATOM     72   O  SGN C   4     146.896  35.826  38.7660  0.00  0.00     0.000 OA
ATOM     73   O  SGN C   4     148.503  35.654  40.5530  0.00  0.00     0.000 O
ATOM     74   S  SGN C   4     148.324  35.895  38.9830  0.00  0.00     0.000 S
ATOM     75   O  SGN C   4     148.880  37.212  38.7440  0.00  0.00     0.000 OA
ENDBRANCH 60 70
BRANCH 56 76
ATOM     76  O4  IDS C   5     145.236  34.149  43.4500  0.00  0.00     0.000 O
BRANCH 76 80
ATOM     77  C1  IDS C   5     141.421  35.412  44.1640  0.00  0.00     0.000 C
ATOM     78  C2  IDS C   5     142.168  34.919  45.4030  0.00  0.00     0.000 C
ATOM     79  C3  IDS C   5     143.659  34.897  45.1290  0.00  0.00     0.000 C
ATOM     80  C4  IDS C   5     143.966  33.860  44.0540  0.00  0.00     0.000 C
ATOM     81  C5  IDS C   5     142.853  33.878  42.9960  0.00  0.00     0.000 C
ATOM     82  O5  IDS C   5     142.188  35.145  42.9900  0.00  0.00     0.000 O
BRANCH 78 83
ATOM     83   O  IDS C   5     141.917  35.814  46.5570  0.00  0.00     0.000 O
ATOM     84   S  IDS C   5     140.458  35.889  47.1990  0.00  0.00     0.000 S
ATOM     85   O  IDS C   5     139.550  36.068  46.0970  0.00  0.00     0.000 OA
ATOM     86   O  IDS C   5     140.281  34.630  47.8830  0.00  0.00     0.000 OA
ATOM     87   O  IDS C   5     140.486  37.014  48.1020  0.00  0.00     0.000 OA
ENDBRANCH 78 83
BRANCH 81 88
ATOM     88   C  IDS C   5     143.340  33.610  41.5840  0.00  0.00     0.000 C
ATOM     89   O  IDS C   5     143.509  32.479  41.2140  0.00  0.00     0.000 OA
ATOM     90   O  IDS C   5     143.556  34.538  40.8390  0.00  0.00     0.000 OA
ENDBRANCH 81 88
ENDBRANCH 76 80
ENDBRANCH 56 76
ENDBRANCH 55 59
ENDBRANCH 39 55
ENDBRANCH 38 42
ENDBRANCH 18 38
ENDBRANCH 17 21
ENDBRANCH 1 17
TORSDOF 18
ENDMDL
MODEL 81
REMARK VINA RESULT:      -6.9     16.894     23.131
ROOT
ATOM      1  C1  IDS C   1     137.316  31.187  45.2940  0.00  0.00     0.000 C
ATOM      2  C2  IDS C   1     136.076  30.562  45.9400  0.00  0.00     0.000 C
ATOM      3  C3  IDS C   1     136.427  29.927  47.2780  0.00  0.00     0.000 C
ATOM      4  C4  IDS C   1     137.495  28.857  47.1010  0.00  0.00     0.000 C
ATOM      5  C5  IDS C   1     138.527  29.312  46.0740  0.00  0.00     0.000 C
ATOM      6  O5  IDS C   1     138.496  30.733  45.9440  0.00  0.00     0.000 O
ATOM      7   O  IDS C   1     135.251  29.352  47.8650  0.00  0.00     0.000 O
ATOM      9  HD  IDS C   1     134.577  29.864  47.6810  0.00  0.00     0.000 HD
ENDROOT
BRANCH 2 9
ATOM      9   O  IDS C   1     135.038  31.587  46.1910  0.00  0.00     0.000 O
ATOM     10   S  IDS C   1     133.636  31.483  45.4390  0.00  0.00     0.000 S
ATOM     11   O  IDS C   1     132.853  32.606  45.9030  0.00  0.00     0.000 OA
ATOM     12   O  IDS C   1     133.946  31.557  44.0250  0.00  0.00     0.000 OA
ATOM     13   O  IDS C   1     133.074  30.208  45.8260  0.00  0.00     0.000 OA
ENDBRANCH 2 9
BRANCH 5 14
ATOM     14   C  IDS C   1     139.937  28.894  46.4530  0.00  0.00     0.000 C
ATOM     15   O  IDS C   1     140.144  28.430  47.5480  0.00  0.00     0.000 OA
ATOM     16   O  IDS C   1     140.846  29.032  45.6520  0.00  0.00     0.000 OA
ENDBRANCH 5 14
BRANCH 1 17
ATOM     17  O4  SGN C   2     137.300  32.383  44.6970  0.00  0.00     0.000 O
BRANCH 17 21
ATOM     18  C1  SGN C   2     138.953  36.189  44.1430  0.00  0.00     0.000 C
ATOM     19  C2  SGN C   2     139.601  35.309  45.2190  0.00  0.00     0.000 C
ATOM     20  C3  SGN C   2     139.186  33.847  45.0140  0.00  0.00     0.000 C
ATOM     21  C4  SGN C   2     137.667  33.736  44.9540  0.00  0.00     0.000 C
ATOM     22  C5  SGN C   2     137.143  34.648  43.8490  0.00  0.00     0.000 C
ATOM     23  O5  SGN C   2     137.552  36.012  44.1060  0.00  0.00     0.000 O
ATOM     24   O  SGN C   2     139.713  33.045  46.0570  0.00  0.00     0.000 O
ATOM     26  HD  SGN C   2     139.501  33.248  45.2430  0.00  0.00     0.000 HD
BRANCH 19 28
ATOM     26   N  SGN C   2     140.903  35.968  45.3900  0.00  0.00     0.000 N
ATOM     28  HD  SGN C   2     140.363  36.622  45.2160  0.00  0.00     0.000 HD
ATOM     28   O  SGN C   2     143.130  36.042  46.5120  0.00  0.00     0.000 OA
ATOM     29   S  SGN C   2     141.599  36.136  46.8290  0.00  0.00     0.000 S
ATOM     30   O  SGN C   2     141.312  37.440  47.2910  0.00  0.00     0.000 OA
ATOM     31   O  SGN C   2     141.230  35.014  47.6210  0.00  0.00     0.000 OA
ENDBRANCH 19 28
BRANCH 22 32
ATOM     32   C  SGN C   2     135.638  34.658  43.7430  0.00  0.00     0.000 C
ATOM     33   S  SGN C   2     133.824  34.919  41.9310  0.00  0.00     0.000 S
ATOM     34   O  SGN C   2     134.003  36.348  41.8620  0.00  0.00     0.000 OA
ATOM     35   O  SGN C   2     133.588  34.300  40.6440  0.00  0.00     0.000 OA
ATOM     36   O  SGN C   2     132.899  34.491  42.9540  0.00  0.00     0.000 OA
ATOM     37   O  SGN C   2     135.248  34.367  42.3960  0.00  0.00     0.000 O
ENDBRANCH 22 32
BRANCH 18 38
ATOM     38  O4  IDS C   3     139.289  36.376  42.8650  0.00  0.00     0.000 O
BRANCH 38 42
ATOM     39  C1  IDS C   3     141.460  35.961  40.1740  0.00  0.00     0.000 C
ATOM     40  C2  IDS C   3     141.995  36.108  41.6070  0.00  0.00     0.000 C
ATOM     41  C3  IDS C   3     141.419  37.349  42.2880  0.00  0.00     0.000 C
ATOM     42  C4  IDS C   3     139.909  37.424  42.1110  0.00  0.00     0.000 C
ATOM     43  C5  IDS C   3     139.552  37.280  40.6260  0.00  0.00     0.000 C
ATOM     44  O5  IDS C   3     140.044  36.030  40.1470  0.00  0.00     0.000 O
ATOM     45   O  IDS C   3     142.028  38.517  41.7350  0.00  0.00     0.000 O
ATOM     47  HD  IDS C   3     142.118  38.841  40.9360  0.00  0.00     0.000 HD
BRANCH 40 47
ATOM     47   O  IDS C   3     141.614  34.934  42.4280  0.00  0.00     0.000 O
ATOM     48   S  IDS C   3     142.747  33.953  42.9880  0.00  0.00     0.000 S
ATOM     49   O  IDS C   3     143.150  33.131  41.8680  0.00  0.00     0.000 OA
ATOM     50   O  IDS C   3     142.103  33.187  44.0330  0.00  0.00     0.000 OA
ATOM     51   O  IDS C   3     143.808  34.794  43.4740  0.00  0.00     0.000 OA
ENDBRANCH 40 47
BRANCH 43 52
ATOM     52   C  IDS C   3     138.065  37.373  40.3690  0.00  0.00     0.000 C
ATOM     53   O  IDS C   3     137.408  38.221  40.9270  0.00  0.00     0.000 OA
ATOM     54   O  IDS C   3     137.541  36.600  39.6080  0.00  0.00     0.000 OA
ENDBRANCH 43 52
BRANCH 39 55
ATOM     55  O4  SGN C   4     142.050  36.499  39.1070  0.00  0.00     0.000 O
BRANCH 55 59
ATOM     56  C1  SGN C   4     142.954  33.739  36.0950  0.00  0.00     0.000 C
ATOM     57  C2  SGN C   4     144.104  34.125  37.0420  0.00  0.00     0.000 C
ATOM     58  C3  SGN C   4     143.566  34.804  38.2980  0.00  0.00     0.000 C
ATOM     59  C4  SGN C   4     142.624  35.945  37.9310  0.00  0.00     0.000 C
ATOM     60  C5  SGN C   4     141.524  35.401  37.0220  0.00  0.00     0.000 C
ATOM     61  O5  SGN C   4     142.142  34.872  35.8320  0.00  0.00     0.000 O
ATOM     62   O  SGN C   4     144.651  35.282  39.0830  0.00  0.00     0.000 O
ATOM     64  HD  SGN C   4     144.975  34.602  38.6550  0.00  0.00     0.000 HD
BRANCH 57 66
ATOM     64   N  SGN C   4     144.801  32.831  37.1230  0.00  0.00     0.000 N
ATOM     66  HD  SGN C   4     145.192  32.295  36.5660  0.00  0.00     0.000 HD
ATOM     66   S  SGN C   4     146.275  32.666  36.5360  0.00  0.00     0.000 S
ATOM     67   O  SGN C   4     146.650  31.309  36.7040  0.00  0.00     0.000 OA
ATOM     68   O  SGN C   4     146.270  33.232  35.2310  0.00  0.00     0.000 OA
ATOM     69   O  SGN C   4     147.149  33.564  37.4680  0.00  0.00     0.000 OA
ENDBRANCH 57 66
BRANCH 60 70
ATOM     70   C  SGN C   4     140.514  36.443  36.5930  0.00  0.00     0.000 C
ATOM     71   O  SGN C   4     137.958  36.118  33.8610  0.00  0.00     0.000 OA
ATOM     72   O  SGN C   4     137.603  35.911  36.2440  0.00  0.00     0.000 OA
ATOM     73   O  SGN C   4     139.849  36.034  35.3820  0.00  0.00     0.000 O
ATOM     74   S  SGN C   4     138.349  36.549  35.1840  0.00  0.00     0.000 S
ATOM     75   O  SGN C   4     138.430  37.990  35.3210  0.00  0.00     0.000 OA
ENDBRANCH 60 70
BRANCH 56 76
ATOM     76  O4  IDS C   5     142.200  32.642  35.8950  0.00  0.00     0.000 O
BRANCH 76 80
ATOM     77  C1  IDS C   5     138.640  30.913  36.8930  0.00  0.00     0.000 C
ATOM     78  C2  IDS C   5     139.618  31.069  38.0570  0.00  0.00     0.000 C
ATOM     79  C3  IDS C   5     140.684  32.086  37.7000  0.00  0.00     0.000 C
ATOM     80  C4  IDS C   5     141.534  31.553  36.5510  0.00  0.00     0.000 C
ATOM     81  C5  IDS C   5     140.634  30.800  35.5600  0.00  0.00     0.000 C
ATOM     82  O5  IDS C   5     139.282  31.254  35.6640  0.00  0.00     0.000 O
BRANCH 78 83
ATOM     83   O  IDS C   5     138.913  31.537  39.2740  0.00  0.00     0.000 O
ATOM     84   S  IDS C   5     139.121  30.768  40.6560  0.00  0.00     0.000 S
ATOM     85   O  IDS C   5     138.941  29.372  40.3630  0.00  0.00     0.000 OA
ATOM     86   O  IDS C   5     140.466  31.092  41.0700  0.00  0.00     0.000 OA
ATOM     87   O  IDS C   5     138.121  31.297  41.5510  0.00  0.00     0.000 OA
ENDBRANCH 78 83
BRANCH 81 88
ATOM     88   C  IDS C   5     141.056  30.949  34.1100  0.00  0.00     0.000 C
ATOM     89   O  IDS C   5     140.453  31.692  33.3840  0.00  0.00     0.000 OA
ATOM     90   O  IDS C   5     142.000  30.317  33.6930  0.00  0.00     0.000 OA
ENDBRANCH 81 88
ENDBRANCH 76 80
ENDBRANCH 56 76
ENDBRANCH 55 59
ENDBRANCH 39 55
ENDBRANCH 38 42
ENDBRANCH 18 38
ENDBRANCH 17 21
ENDBRANCH 1 17
TORSDOF 18
ENDMDL
MODEL 82
REMARK VINA RESULT:      -6.9     17.347     21.283
ROOT
ATOM      1  C1  IDS C   1     150.120  37.994  43.2620  0.00  0.00     0.000 C
ATOM      2  C2  IDS C   1     151.048  38.402  42.1150  0.00  0.00     0.000 C
ATOM      3  C3  IDS C   1     152.506  38.314  42.5420  0.00  0.00     0.000 C
ATOM      4  C4  IDS C   1     152.769  39.210  43.7440  0.00  0.00     0.000 C
ATOM      5  C5  IDS C   1     151.589  39.150  44.7100  0.00  0.00     0.000 C
ATOM      6  O5  IDS C   1     150.836  37.957  44.4900  0.00  0.00     0.000 O
ATOM      7   O  IDS C   1     153.355  38.697  41.4510  0.00  0.00     0.000 O
ATOM      9  HD  IDS C   1     153.000  38.410  40.7150  0.00  0.00     0.000 HD
ENDROOT
BRANCH 2 9
ATOM      9   O  IDS C   1     150.870  37.509  40.9480  0.00  0.00     0.000 O
ATOM     10   S  IDS C   1     150.478  38.134  39.5350  0.00  0.00     0.000 S
ATOM     11   O  IDS C   1     150.395  37.019  38.6180  0.00  0.00     0.000 OA
ATOM     12   O  IDS C   1     149.204  38.792  39.7400  0.00  0.00     0.000 OA
ATOM     13   O  IDS C   1     151.542  39.056  39.2020  0.00  0.00     0.000 OA
ENDBRANCH 2 9
BRANCH 5 14
ATOM     14   C  IDS C   1     152.035  39.177  46.1620  0.00  0.00     0.000 C
ATOM     15   O  IDS C   1     152.816  40.021  46.5280  0.00  0.00     0.000 OA
ATOM     16   O  IDS C   1     151.603  38.346  46.9430  0.00  0.00     0.000 OA
ENDBRANCH 5 14
BRANCH 1 17
ATOM     17  O4  SGN C   2     149.051  37.210  43.0890  0.00  0.00     0.000 O
BRANCH 17 21
ATOM     18  C1  SGN C   2     146.735  33.789  43.7640  0.00  0.00     0.000 C
ATOM     19  C2  SGN C   2     147.915  34.018  44.7160  0.00  0.00     0.000 C
ATOM     20  C3  SGN C   2     148.385  35.475  44.6200  0.00  0.00     0.000 C
ATOM     21  C4  SGN C   2     148.680  35.837  43.1690  0.00  0.00     0.000 C
ATOM     22  C5  SGN C   2     147.436  35.571  42.3270  0.00  0.00     0.000 C
ATOM     23  O5  SGN C   2     147.053  34.181  42.4450  0.00  0.00     0.000 O
ATOM     24   O  SGN C   2     149.530  35.668  45.4340  0.00  0.00     0.000 O
ATOM     26  HD  SGN C   2     148.761  35.863  45.0870  0.00  0.00     0.000 HD
BRANCH 19 28
ATOM     26   N  SGN C   2     147.637  33.697  46.1230  0.00  0.00     0.000 N
ATOM     28  HD  SGN C   2     146.877  33.986  45.8230  0.00  0.00     0.000 HD
ATOM     28   O  SGN C   2     148.082  32.266  48.1170  0.00  0.00     0.000 OA
ATOM     29   S  SGN C   2     147.530  32.183  46.6540  0.00  0.00     0.000 S
ATOM     30   O  SGN C   2     146.159  31.846  46.7060  0.00  0.00     0.000 OA
ATOM     31   O  SGN C   2     148.420  31.390  45.8780  0.00  0.00     0.000 OA
ENDBRANCH 19 28
BRANCH 22 32
ATOM     32   C  SGN C   2     147.640  35.843  40.8560  0.00  0.00     0.000 C
ATOM     33   S  SGN C   2     146.266  35.840  38.6760  0.00  0.00     0.000 S
ATOM     34   O  SGN C   2     146.289  34.401  38.5820  0.00  0.00     0.000 OA
ATOM     35   O  SGN C   2     145.003  36.427  38.2780  0.00  0.00     0.000 OA
ATOM     36   O  SGN C   2     147.413  36.487  38.0840  0.00  0.00     0.000 OA
ATOM     37   O  SGN C   2     146.380  36.134  40.2410  0.00  0.00     0.000 O
ENDBRANCH 22 32
BRANCH 18 38
ATOM     38  O4  IDS C   3     145.446  34.109  43.8960  0.00  0.00     0.000 O
BRANCH 38 42
ATOM     39  C1  IDS C   3     142.340  35.674  44.0670  0.00  0.00     0.000 C
ATOM     40  C2  IDS C   3     143.533  36.191  44.8870  0.00  0.00     0.000 C
ATOM     41  C3  IDS C   3     144.171  35.068  45.7040  0.00  0.00     0.000 C
ATOM     42  C4  IDS C   3     144.413  33.833  44.8480  0.00  0.00     0.000 C
ATOM     43  C5  IDS C   3     143.121  33.444  44.1180  0.00  0.00     0.000 C
ATOM     44  O5  IDS C   3     142.699  34.536  43.3030  0.00  0.00     0.000 O
ATOM     45   O  IDS C   3     143.315  34.735  46.7990  0.00  0.00     0.000 O
ATOM     47  HD  IDS C   3     142.487  34.495  46.8770  0.00  0.00     0.000 HD
BRANCH 40 47
ATOM     47   O  IDS C   3     144.580  36.740  43.9920  0.00  0.00     0.000 O
ATOM     48   S  IDS C   3     144.323  38.114  43.2150  0.00  0.00     0.000 S
ATOM     49   O  IDS C   3     143.447  37.787  42.1110  0.00  0.00     0.000 OA
ATOM     50   O  IDS C   3     145.629  38.552  42.7750  0.00  0.00     0.000 OA
ATOM     51   O  IDS C   3     143.716  39.009  44.1630  0.00  0.00     0.000 OA
ENDBRANCH 40 47
BRANCH 43 52
ATOM     52   C  IDS C   3     143.279  32.205  43.2670  0.00  0.00     0.000 C
ATOM     53   O  IDS C   3     142.946  32.225  42.1040  0.00  0.00     0.000 OA
ATOM     54   O  IDS C   3     143.736  31.201  43.7510  0.00  0.00     0.000 OA
ENDBRANCH 43 52
BRANCH 39 55
ATOM     55  O4  SGN C   4     141.087  35.649  44.5220  0.00  0.00     0.000 O
BRANCH 55 59
ATOM     56  C1  SGN C   4     138.053  34.889  41.7440  0.00  0.00     0.000 C
ATOM     57  C2  SGN C   4     138.621  36.318  41.7680  0.00  0.00     0.000 C
ATOM     58  C3  SGN C   4     139.951  36.360  42.5160  0.00  0.00     0.000 C
ATOM     59  C4  SGN C   4     139.820  35.697  43.8820  0.00  0.00     0.000 C
ATOM     60  C5  SGN C   4     139.279  34.281  43.6910  0.00  0.00     0.000 C
ATOM     61  O5  SGN C   4     137.985  34.372  43.0640  0.00  0.00     0.000 O
ATOM     62   O  SGN C   4     140.379  37.708  42.6510  0.00  0.00     0.000 O
ATOM     64  HD  SGN C   4     139.903  37.703  41.9270  0.00  0.00     0.000 HD
BRANCH 57 66
ATOM     64   N  SGN C   4     138.344  37.644  41.1930  0.00  0.00     0.000 N
ATOM     66  HD  SGN C   4     138.494  38.043  40.4390  0.00  0.00     0.000 HD
ATOM     66   S  SGN C   4     137.580  37.782  39.7990  0.00  0.00     0.000 S
ATOM     67   O  SGN C   4     137.519  39.162  39.4820  0.00  0.00     0.000 OA
ATOM     68   O  SGN C   4     138.206  36.883  38.8910  0.00  0.00     0.000 OA
ATOM     69   O  SGN C   4     136.142  37.257  40.1110  0.00  0.00     0.000 OA
ENDBRANCH 57 66
BRANCH 60 70
ATOM     70   C  SGN C   4     139.113  33.512  44.9840  0.00  0.00     0.000 C
ATOM     71   O  SGN C   4     137.804  30.013  45.3730  0.00  0.00     0.000 OA
ATOM     72   O  SGN C   4     140.110  30.738  45.4210  0.00  0.00     0.000 OA
ATOM     73   O  SGN C   4     138.391  32.287  44.7520  0.00  0.00     0.000 O
ATOM     74   S  SGN C   4     138.734  31.062  45.7210  0.00  0.00     0.000 S
ATOM     75   O  SGN C   4     138.542  31.583  47.0600  0.00  0.00     0.000 OA
ENDBRANCH 60 70
BRANCH 56 76
ATOM     76  O4  IDS C   5     138.116  33.842  40.9000  0.00  0.00     0.000 O
BRANCH 76 80
ATOM     77  C1  IDS C   5     138.392  30.563  38.4860  0.00  0.00     0.000 C
ATOM     78  C2  IDS C   5     137.833  30.279  39.8800  0.00  0.00     0.000 C
ATOM     79  C3  IDS C   5     137.365  31.571  40.5200  0.00  0.00     0.000 C
ATOM     80  C4  IDS C   5     138.563  32.485  40.7610  0.00  0.00     0.000 C
ATOM     81  C5  IDS C   5     139.542  32.361  39.5850  0.00  0.00     0.000 C
ATOM     82  O5  IDS C   5     138.862  31.909  38.4100  0.00  0.00     0.000 O
BRANCH 78 83
ATOM     83   O  IDS C   5     136.682  29.350  39.8040  0.00  0.00     0.000 O
ATOM     84   S  IDS C   5     136.596  28.110  40.8040  0.00  0.00     0.000 S
ATOM     85   O  IDS C   5     137.883  27.470  40.7510  0.00  0.00     0.000 OA
ATOM     86   O  IDS C   5     136.301  28.685  42.0960  0.00  0.00     0.000 OA
ATOM     87   O  IDS C   5     135.526  27.280  40.3070  0.00  0.00     0.000 OA
ENDBRANCH 78 83
BRANCH 81 88
ATOM     88   C  IDS C   5     140.249  33.658  39.2330  0.00  0.00     0.000 C
ATOM     89   O  IDS C   5     139.965  34.239  38.2210  0.00  0.00     0.000 OA
ATOM     90   O  IDS C   5     141.095  34.099  39.9770  0.00  0.00     0.000 OA
ENDBRANCH 81 88
ENDBRANCH 76 80
ENDBRANCH 56 76
ENDBRANCH 55 59
ENDBRANCH 39 55
ENDBRANCH 38 42
ENDBRANCH 18 38
ENDBRANCH 17 21
ENDBRANCH 1 17
TORSDOF 18
ENDMDL
MODEL 83
REMARK VINA RESULT:      -6.9     20.622     28.222
ROOT
ATOM      1  C1  IDS C   1     157.299  38.890  52.2960  0.00  0.00     0.000 C
ATOM      2  C2  IDS C   1     155.882  38.880  52.8740  0.00  0.00     0.000 C
ATOM      3  C3  IDS C   1     155.081  40.069  52.3640  0.00  0.00     0.000 C
ATOM      4  C4  IDS C   1     155.766  41.377  52.7360  0.00  0.00     0.000 C
ATOM      5  C5  IDS C   1     157.278  41.237  52.5890  0.00  0.00     0.000 C
ATOM      6  O5  IDS C   1     157.587  40.154  51.7110  0.00  0.00     0.000 O
ATOM      7   O  IDS C   1     153.757  40.035  52.9160  0.00  0.00     0.000 O
ATOM      9  HD  IDS C   1     153.505  39.208  52.9670  0.00  0.00     0.000 HD
ENDROOT
BRANCH 2 9
ATOM      9   O  IDS C   1     155.159  37.651  52.4760  0.00  0.00     0.000 O
ATOM     10   S  IDS C   1     154.574  36.686  53.6020  0.00  0.00     0.000 S
ATOM     11   O  IDS C   1     153.924  35.603  52.8980  0.00  0.00     0.000 OA
ATOM     12   O  IDS C   1     155.719  36.250  54.3750  0.00  0.00     0.000 OA
ATOM     13   O  IDS C   1     153.649  37.490  54.3700  0.00  0.00     0.000 OA
ENDBRANCH 2 9
BRANCH 5 14
ATOM     14   C  IDS C   1     157.920  42.500  52.0400  0.00  0.00     0.000 C
ATOM     15   O  IDS C   1     158.650  42.426  51.0820  0.00  0.00     0.000 OA
ATOM     16   O  IDS C   1     157.695  43.573  52.5720  0.00  0.00     0.000 OA
ENDBRANCH 5 14
BRANCH 1 17
ATOM     17  O4  SGN C   2     157.908  37.791  51.8410  0.00  0.00     0.000 O
BRANCH 17 21
ATOM     18  C1  SGN C   2     159.819  35.576  48.8470  0.00  0.00     0.000 C
ATOM     19  C2  SGN C   2     159.443  37.021  48.4980  0.00  0.00     0.000 C
ATOM     20  C3  SGN C   2     159.157  37.808  49.7820  0.00  0.00     0.000 C
ATOM     21  C4  SGN C   2     158.113  37.082  50.6220  0.00  0.00     0.000 C
ATOM     22  C5  SGN C   2     158.601  35.664  50.9070  0.00  0.00     0.000 C
ATOM     23  O5  SGN C   2     158.837  34.969  49.6610  0.00  0.00     0.000 O
ATOM     24   O  SGN C   2     158.725  39.119  49.4590  0.00  0.00     0.000 O
ATOM     26  HD  SGN C   2     159.164  38.514  49.8950  0.00  0.00     0.000 HD
BRANCH 19 28
ATOM     26   N  SGN C   2     160.321  37.282  47.3490  0.00  0.00     0.000 N
ATOM     28  HD  SGN C   2     160.148  36.435  47.2880  0.00  0.00     0.000 HD
ATOM     28   O  SGN C   2     161.103  38.844  45.5680  0.00  0.00     0.000 OA
ATOM     29   S  SGN C   2     159.820  38.086  46.0500  0.00  0.00     0.000 S
ATOM     30   O  SGN C   2     159.464  37.133  45.0700  0.00  0.00     0.000 OA
ATOM     31   O  SGN C   2     158.861  39.045  46.4790  0.00  0.00     0.000 OA
ENDBRANCH 19 28
BRANCH 22 32
ATOM     32   C  SGN C   2     157.611  34.835  51.6870  0.00  0.00     0.000 C
ATOM     33   S  SGN C   2     157.595  33.203  53.6820  0.00  0.00     0.000 S
ATOM     34   O  SGN C   2     158.127  32.123  52.8900  0.00  0.00     0.000 OA
ATOM     35   O  SGN C   2     158.125  33.252  55.0290  0.00  0.00     0.000 OA
ATOM     36   O  SGN C   2     156.157  33.324  53.6250  0.00  0.00     0.000 OA
ATOM     37   O  SGN C   2     158.154  34.521  52.9750  0.00  0.00     0.000 O
ENDBRANCH 22 32
BRANCH 18 38
ATOM     38  O4  IDS C   3     160.970  35.069  49.2960  0.00  0.00     0.000 O
BRANCH 38 42
ATOM     39  C1  IDS C   3     164.016  34.469  50.8720  0.00  0.00     0.000 C
ATOM     40  C2  IDS C   3     163.778  35.761  50.0760  0.00  0.00     0.000 C
ATOM     41  C3  IDS C   3     163.266  35.457  48.6680  0.00  0.00     0.000 C
ATOM     42  C4  IDS C   3     162.120  34.455  48.7040  0.00  0.00     0.000 C
ATOM     43  C5  IDS C   3     162.532  33.223  49.5190  0.00  0.00     0.000 C
ATOM     44  O5  IDS C   3     162.872  33.632  50.8430  0.00  0.00     0.000 O
ATOM     45   O  IDS C   3     164.336  34.938  47.8770  0.00  0.00     0.000 O
ATOM     47  HD  IDS C   3     164.891  34.277  47.9560  0.00  0.00     0.000 HD
BRANCH 40 47
ATOM     47   O  IDS C   3     162.761  36.606  50.7460  0.00  0.00     0.000 O
ATOM     48   S  IDS C   3     163.219  37.897  51.5720  0.00  0.00     0.000 S
ATOM     49   O  IDS C   3     163.741  37.402  52.8270  0.00  0.00     0.000 OA
ATOM     50   O  IDS C   3     162.017  38.684  51.7450  0.00  0.00     0.000 OA
ATOM     51   O  IDS C   3     164.217  38.557  50.7740  0.00  0.00     0.000 OA
ENDBRANCH 40 47
BRANCH 43 52
ATOM     52   C  IDS C   3     161.450  32.168  49.5750  0.00  0.00     0.000 C
ATOM     53   O  IDS C   3     161.188  31.628  50.6250  0.00  0.00     0.000 OA
ATOM     54   O  IDS C   3     160.852  31.872  48.5710  0.00  0.00     0.000 OA
ENDBRANCH 43 52
BRANCH 39 55
ATOM     55  O4  SGN C   4     165.173  33.806  50.8770  0.00  0.00     0.000 O
BRANCH 55 59
ATOM     56  C1  SGN C   4     169.204  33.348  51.9010  0.00  0.00     0.000 C
ATOM     57  C2  SGN C   4     168.194  33.333  53.0610  0.00  0.00     0.000 C
ATOM     58  C3  SGN C   4     166.776  33.111  52.5420  0.00  0.00     0.000 C
ATOM     59  C4  SGN C   4     166.454  34.092  51.4210  0.00  0.00     0.000 C
ATOM     60  C5  SGN C   4     167.521  33.965  50.3350  0.00  0.00     0.000 C
ATOM     61  O5  SGN C   4     168.799  34.287  50.9180  0.00  0.00     0.000 O
ATOM     62   O  SGN C   4     165.850  33.250  53.6110  0.00  0.00     0.000 O
ATOM     64  HD  SGN C   4     166.581  32.982  53.9910  0.00  0.00     0.000 HD
BRANCH 57 66
ATOM     64   N  SGN C   4     168.556  33.743  54.4280  0.00  0.00     0.000 N
ATOM     66  HD  SGN C   4     168.469  33.412  55.2230  0.00  0.00     0.000 HD
ATOM     66   S  SGN C   4     169.409  32.773  55.3660  0.00  0.00     0.000 S
ATOM     67   O  SGN C   4     169.543  33.411  56.6250  0.00  0.00     0.000 OA
ATOM     68   O  SGN C   4     168.806  31.487  55.2940  0.00  0.00     0.000 OA
ATOM     69   O  SGN C   4     170.804  32.712  54.6640  0.00  0.00     0.000 OA
ENDBRANCH 57 66
BRANCH 60 70
ATOM     70   C  SGN C   4     167.305  34.888  49.1560  0.00  0.00     0.000 C
ATOM     71   O  SGN C   4     168.900  34.626  45.7650  0.00  0.00     0.000 OA
ATOM     72   O  SGN C   4     166.663  33.959  46.3980  0.00  0.00     0.000 OA
ATOM     73   O  SGN C   4     168.243  34.591  48.1040  0.00  0.00     0.000 O
ATOM     74   S  SGN C   4     167.756  34.882  46.6090  0.00  0.00     0.000 S
ATOM     75   O  SGN C   4     167.344  36.272  46.6180  0.00  0.00     0.000 OA
ENDBRANCH 60 70
BRANCH 56 76
ATOM     76  O4  IDS C   5     169.986  32.435  51.2950  0.00  0.00     0.000 O
BRANCH 76 80
ATOM     77  C1  IDS C   5     172.197  30.250  48.6510  0.00  0.00     0.000 C
ATOM     78  C2  IDS C   5     170.894  30.809  48.0790  0.00  0.00     0.000 C
ATOM     79  C3  IDS C   5     170.386  31.933  48.9600  0.00  0.00     0.000 C
ATOM     80  C4  IDS C   5     170.001  31.375  50.3270  0.00  0.00     0.000 C
ATOM     81  C5  IDS C   5     171.007  30.290  50.7360  0.00  0.00     0.000 C
ATOM     82  O5  IDS C   5     172.253  30.480  50.0580  0.00  0.00     0.000 O
BRANCH 78 83
ATOM     83   O  IDS C   5     171.108  31.344  46.7140  0.00  0.00     0.000 O
ATOM     84   S  IDS C   5     170.251  30.774  45.4950  0.00  0.00     0.000 S
ATOM     85   O  IDS C   5     170.330  29.341  45.5920  0.00  0.00     0.000 OA
ATOM     86   O  IDS C   5     168.916  31.284  45.7000  0.00  0.00     0.000 OA
ATOM     87   O  IDS C   5     170.870  31.299  44.3030  0.00  0.00     0.000 OA
ENDBRANCH 78 83
BRANCH 81 88
ATOM     88   C  IDS C   5     171.298  30.250  52.2250  0.00  0.00     0.000 C
ATOM     89   O  IDS C   5     170.473  29.819  52.9850  0.00  0.00     0.000 OA
ATOM     90   O  IDS C   5     172.362  30.652  52.6390  0.00  0.00     0.000 OA
ENDBRANCH 81 88
ENDBRANCH 76 80
ENDBRANCH 56 76
ENDBRANCH 55 59
ENDBRANCH 39 55
ENDBRANCH 38 42
ENDBRANCH 18 38
ENDBRANCH 17 21
ENDBRANCH 1 17
TORSDOF 18
ENDMDL
MODEL 84
REMARK VINA RESULT:      -6.9     27.803     34.485
ROOT
ATOM      1  C1  IDS C   1     166.193  20.671  78.7270  0.00  0.00     0.000 C
ATOM      2  C2  IDS C   1     165.340  21.145  79.9070  0.00  0.00     0.000 C
ATOM      3  C3  IDS C   1     164.336  22.198  79.4600  0.00  0.00     0.000 C
ATOM      4  C4  IDS C   1     165.050  23.393  78.8450  0.00  0.00     0.000 C
ATOM      5  C5  IDS C   1     166.228  22.921  77.9990  0.00  0.00     0.000 C
ATOM      6  O5  IDS C   1     166.046  21.556  77.6230  0.00  0.00     0.000 O
ATOM      7   O  IDS C   1     163.547  22.622  80.5810  0.00  0.00     0.000 O
ATOM      9  HD  IDS C   1     163.405  21.935  81.0890  0.00  0.00     0.000 HD
ENDROOT
BRANCH 2 9
ATOM      9   O  IDS C   1     164.576  20.019  80.4900  0.00  0.00     0.000 O
ATOM     10   S  IDS C   1     164.613  19.779  82.0660  0.00  0.00     0.000 S
ATOM     11   O  IDS C   1     163.768  18.632  82.3130  0.00  0.00     0.000 OA
ATOM     12   O  IDS C   1     166.003  19.537  82.3910  0.00  0.00     0.000 OA
ATOM     13   O  IDS C   1     164.098  20.993  82.6620  0.00  0.00     0.000 OA
ENDBRANCH 2 9
BRANCH 5 14
ATOM     14   C  IDS C   1     166.396  23.750  76.7370  0.00  0.00     0.000 C
ATOM     15   O  IDS C   1     167.062  24.755  76.7710  0.00  0.00     0.000 OA
ATOM     16   O  IDS C   1     165.856  23.394  75.7030  0.00  0.00     0.000 OA
ENDBRANCH 5 14
BRANCH 1 17
ATOM     17  O4  SGN C   2     166.495  19.387  78.5170  0.00  0.00     0.000 O
BRANCH 17 21
ATOM     18  C1  SGN C   2     166.312  15.782  76.3960  0.00  0.00     0.000 C
ATOM     19  C2  SGN C   2     165.716  17.016  75.7060  0.00  0.00     0.000 C
ATOM     20  C3  SGN C   2     166.227  18.290  76.3890  0.00  0.00     0.000 C
ATOM     21  C4  SGN C   2     165.956  18.227  77.8880  0.00  0.00     0.000 C
ATOM     22  C5  SGN C   2     166.599  16.966  78.4570  0.00  0.00     0.000 C
ATOM     23  O5  SGN C   2     166.067  15.800  77.7860  0.00  0.00     0.000 O
ATOM     24   O  SGN C   2     165.611  19.428  75.8100  0.00  0.00     0.000 O
ATOM     26  HD  SGN C   2     166.260  18.959  76.1390  0.00  0.00     0.000 HD
BRANCH 19 28
ATOM     26   N  SGN C   2     165.569  16.549  74.3200  0.00  0.00     0.000 N
ATOM     28  HD  SGN C   2     165.262  15.892  74.7930  0.00  0.00     0.000 HD
ATOM     28   O  SGN C   2     165.136  17.079  71.9220  0.00  0.00     0.000 OA
ATOM     29   S  SGN C   2     164.451  17.142  73.3280  0.00  0.00     0.000 S
ATOM     30   O  SGN C   2     163.357  16.249  73.3380  0.00  0.00     0.000 OA
ATOM     31   O  SGN C   2     164.248  18.506  73.6730  0.00  0.00     0.000 OA
ENDBRANCH 19 28
BRANCH 22 32
ATOM     32   C  SGN C   2     166.341  16.775  79.9320  0.00  0.00     0.000 C
ATOM     33   S  SGN C   2     167.677  16.363  82.0970  0.00  0.00     0.000 S
ATOM     34   O  SGN C   2     167.885  14.971  81.7850  0.00  0.00     0.000 OA
ATOM     35   O  SGN C   2     168.824  16.999  82.7100  0.00  0.00     0.000 OA
ATOM     36   O  SGN C   2     166.435  16.634  82.7820  0.00  0.00     0.000 OA
ATOM     37   O  SGN C   2     167.532  17.068  80.6720  0.00  0.00     0.000 O
ENDBRANCH 22 32
BRANCH 18 38
ATOM     38  O4  IDS C   3     167.525  15.236  76.2870  0.00  0.00     0.000 O
BRANCH 38 42
ATOM     39  C1  IDS C   3     169.798  12.666  75.6890  0.00  0.00     0.000 C
ATOM     40  C2  IDS C   3     170.131  13.808  76.6630  0.00  0.00     0.000 C
ATOM     41  C3  IDS C   3     169.919  15.173  76.0080  0.00  0.00     0.000 C
ATOM     42  C4  IDS C   3     168.569  15.243  75.3080  0.00  0.00     0.000 C
ATOM     43  C5  IDS C   3     168.410  14.045  74.3640  0.00  0.00     0.000 C
ATOM     44  O5  IDS C   3     168.512  12.839  75.1190  0.00  0.00     0.000 O
ATOM     45   O  IDS C   3     170.965  15.413  75.0650  0.00  0.00     0.000 O
ATOM     47  HD  IDS C   3     171.278  14.989  74.3770  0.00  0.00     0.000 HD
BRANCH 40 47
ATOM     47   O  IDS C   3     169.255  13.746  77.8570  0.00  0.00     0.000 O
ATOM     48   S  IDS C   3     169.202  12.412  78.7370  0.00  0.00     0.000 S
ATOM     49   O  IDS C   3     168.381  11.480  77.9950  0.00  0.00     0.000 OA
ATOM     50   O  IDS C   3     168.597  12.807  79.9900  0.00  0.00     0.000 OA
ATOM     51   O  IDS C   3     170.562  11.966  78.8800  0.00  0.00     0.000 OA
ENDBRANCH 40 47
BRANCH 43 52
ATOM     52   C  IDS C   3     167.099  14.063  73.6100  0.00  0.00     0.000 C
ATOM     53   O  IDS C   3     166.142  13.468  74.0490  0.00  0.00     0.000 OA
ATOM     54   O  IDS C   3     167.015  14.672  72.5730  0.00  0.00     0.000 OA
ENDBRANCH 43 52
BRANCH 39 55
ATOM     55  O4  SGN C   4     170.688  12.117  74.8630  0.00  0.00     0.000 O
BRANCH 55 59
ATOM     56  C1  SGN C   4     172.328   8.896  72.7540  0.00  0.00     0.000 C
ATOM     57  C2  SGN C   4     170.961   9.411  72.2700  0.00  0.00     0.000 C
ATOM     58  C3  SGN C   4     170.670  10.795  72.8440  0.00  0.00     0.000 C
ATOM     59  C4  SGN C   4     170.860  10.801  74.3560  0.00  0.00     0.000 C
ATOM     60  C5  SGN C   4     172.267  10.299  74.6760  0.00  0.00     0.000 C
ATOM     61  O5  SGN C   4     172.394   8.956  74.1700  0.00  0.00     0.000 O
ATOM     62   O  SGN C   4     169.345  11.182  72.5040  0.00  0.00     0.000 O
ATOM     64  HD  SGN C   4     169.586  10.650  71.8650  0.00  0.00     0.000 HD
BRANCH 57 66
ATOM     64   N  SGN C   4     171.334   8.655  71.0640  0.00  0.00     0.000 N
ATOM     66  HD  SGN C   4     171.110   7.899  70.7050  0.00  0.00     0.000 HD
ATOM     66   S  SGN C   4     170.216   8.159  70.0390  0.00  0.00     0.000 S
ATOM     67   O  SGN C   4     170.870   7.416  69.0240  0.00  0.00     0.000 OA
ATOM     68   O  SGN C   4     169.191   7.542  70.8070  0.00  0.00     0.000 OA
ATOM     69   O  SGN C   4     169.656   9.485  69.4310  0.00  0.00     0.000 OA
ENDBRANCH 57 66
BRANCH 60 70
ATOM     70   C  SGN C   4     172.583  10.268  76.1560  0.00  0.00     0.000 C
ATOM     71   O  SGN C   4     175.722  11.488  77.8190  0.00  0.00     0.000 OA
ATOM     72   O  SGN C   4     173.582  12.609  77.7050  0.00  0.00     0.000 OA
ATOM     73   O  SGN C   4     173.959  10.629  76.3860  0.00  0.00     0.000 O
ATOM     74   S  SGN C   4     174.285  11.348  77.7760  0.00  0.00     0.000 S
ATOM     75   O  SGN C   4     173.761  10.452  78.7880  0.00  0.00     0.000 OA
ENDBRANCH 60 70
BRANCH 56 76
ATOM     76  O4  IDS C   5     173.589   8.930  72.2860  0.00  0.00     0.000 O
BRANCH 76 80
ATOM     77  C1  IDS C   5     177.604   9.140  71.5870  0.00  0.00     0.000 C
ATOM     78  C2  IDS C   5     177.114  10.019  72.7380  0.00  0.00     0.000 C
ATOM     79  C3  IDS C   5     175.746   9.551  73.1940  0.00  0.00     0.000 C
ATOM     80  C4  IDS C   5     174.731   9.774  72.0780  0.00  0.00     0.000 C
ATOM     81  C5  IDS C   5     175.387   9.464  70.7240  0.00  0.00     0.000 C
ATOM     82  O5  IDS C   5     176.493   8.572  70.8940  0.00  0.00     0.000 O
BRANCH 78 83
ATOM     83   O  IDS C   5     178.044   9.941  73.8880  0.00  0.00     0.000 O
ATOM     84   S  IDS C   5     178.741  11.268  74.4350  0.00  0.00     0.000 S
ATOM     85   O  IDS C   5     179.277  11.938  73.2800  0.00  0.00     0.000 OA
ATOM     86   O  IDS C   5     177.686  12.010  75.0840  0.00  0.00     0.000 OA
ATOM     87   O  IDS C   5     179.757  10.824  75.3580  0.00  0.00     0.000 OA
ENDBRANCH 78 83
BRANCH 81 88
ATOM     88   C  IDS C   5     174.445   8.838  69.7120  0.00  0.00     0.000 C
ATOM     89   O  IDS C   5     174.524   7.664  69.4690  0.00  0.00     0.000 OA
ATOM     90   O  IDS C   5     173.619   9.525  69.1570  0.00  0.00     0.000 OA
ENDBRANCH 81 88
ENDBRANCH 76 80
ENDBRANCH 56 76
ENDBRANCH 55 59
ENDBRANCH 39 55
ENDBRANCH 38 42
ENDBRANCH 18 38
ENDBRANCH 17 21
ENDBRANCH 1 17
TORSDOF 18
ENDMDL
MODEL 85
REMARK VINA RESULT:      -6.8     21.986     24.908
ROOT
ATOM      1  C1  IDS C   1     148.752  34.313  72.3860  0.00  0.00     0.000 C
ATOM      2  C2  IDS C   1     150.152  33.696  72.4460  0.00  0.00     0.000 C
ATOM      3  C3  IDS C   1     151.216  34.738  72.1310  0.00  0.00     0.000 C
ATOM      4  C4  IDS C   1     150.989  35.337  70.7500  0.00  0.00     0.000 C
ATOM      5  C5  IDS C   1     149.497  35.536  70.5050  0.00  0.00     0.000 C
ATOM      6  O5  IDS C   1     148.797  35.583  71.7480  0.00  0.00     0.000 O
ATOM      7   O  IDS C   1     152.517  34.138  72.1970  0.00  0.00     0.000 O
ATOM      9  HD  IDS C   1     152.517  33.557  72.8400  0.00  0.00     0.000 HD
ENDROOT
BRANCH 2 9
ATOM      9   O  IDS C   1     150.436  33.162  73.7970  0.00  0.00     0.000 O
ATOM     10   S  IDS C   1     150.759  31.610  73.9740  0.00  0.00     0.000 S
ATOM     11   O  IDS C   1     151.000  31.415  75.3870  0.00  0.00     0.000 OA
ATOM     12   O  IDS C   1     149.583  30.910  73.5010  0.00  0.00     0.000 OA
ATOM     13   O  IDS C   1     151.930  31.356  73.1650  0.00  0.00     0.000 OA
ENDBRANCH 2 9
BRANCH 5 14
ATOM     14   C  IDS C   1     149.208  36.818  69.7420  0.00  0.00     0.000 C
ATOM     15   O  IDS C   1     148.328  37.551  70.1240  0.00  0.00     0.000 OA
ATOM     16   O  IDS C   1     149.863  37.094  68.7510  0.00  0.00     0.000 OA
ENDBRANCH 5 14
BRANCH 1 17
ATOM     17  O4  SGN C   2     147.804  34.054  73.2910  0.00  0.00     0.000 O
BRANCH 17 21
ATOM     18  C1  SGN C   2     144.943  35.146  76.1460  0.00  0.00     0.000 C
ATOM     19  C2  SGN C   2     145.553  36.282  75.3160  0.00  0.00     0.000 C
ATOM     20  C3  SGN C   2     146.233  35.706  74.0670  0.00  0.00     0.000 C
ATOM     21  C4  SGN C   2     147.230  34.624  74.4650  0.00  0.00     0.000 C
ATOM     22  C5  SGN C   2     146.506  33.554  75.2780  0.00  0.00     0.000 C
ATOM     23  O5  SGN C   2     145.902  34.154  76.4460  0.00  0.00     0.000 O
ATOM     24   O  SGN C   2     146.872  36.744  73.3440  0.00  0.00     0.000 O
ATOM     26  HD  SGN C   2     146.399  36.027  73.4510  0.00  0.00     0.000 HD
BRANCH 19 28
ATOM     26   N  SGN C   2     144.550  37.342  75.4880  0.00  0.00     0.000 N
ATOM     28  HD  SGN C   2     144.502  36.891  76.2260  0.00  0.00     0.000 HD
ATOM     28   O  SGN C   2     143.820  39.686  75.0460  0.00  0.00     0.000 OA
ATOM     29   S  SGN C   2     144.957  38.875  75.7540  0.00  0.00     0.000 S
ATOM     30   O  SGN C   2     144.874  39.102  77.1460  0.00  0.00     0.000 OA
ATOM     31   O  SGN C   2     146.181  39.121  75.0740  0.00  0.00     0.000 OA
ENDBRANCH 19 28
BRANCH 22 32
ATOM     32   C  SGN C   2     147.419  32.459  75.7730  0.00  0.00     0.000 C
ATOM     33   S  SGN C   2     147.239  30.108  76.8130  0.00  0.00     0.000 S
ATOM     34   O  SGN C   2     146.894  30.634  78.1100  0.00  0.00     0.000 OA
ATOM     35   O  SGN C   2     146.517  28.903  76.4640  0.00  0.00     0.000 OA
ATOM     36   O  SGN C   2     148.660  30.016  76.5750  0.00  0.00     0.000 OA
ATOM     37   O  SGN C   2     146.713  31.213  75.7880  0.00  0.00     0.000 O
ENDBRANCH 22 32
BRANCH 18 38
ATOM     38  O4  IDS C   3     143.811  34.460  75.9670  0.00  0.00     0.000 O
BRANCH 38 42
ATOM     39  C1  IDS C   3     141.154  32.215  76.1240  0.00  0.00     0.000 C
ATOM     40  C2  IDS C   3     142.606  31.718  76.0290  0.00  0.00     0.000 C
ATOM     41  C3  IDS C   3     143.338  32.372  74.8580  0.00  0.00     0.000 C
ATOM     42  C4  IDS C   3     143.129  33.880  74.8500  0.00  0.00     0.000 C
ATOM     43  C5  IDS C   3     141.631  34.197  74.9300  0.00  0.00     0.000 C
ATOM     44  O5  IDS C   3     141.097  33.631  76.1260  0.00  0.00     0.000 O
ATOM     45   O  IDS C   3     142.863  31.813  73.6320  0.00  0.00     0.000 O
ATOM     47  HD  IDS C   3     142.085  31.723  73.2610  0.00  0.00     0.000 HD
BRANCH 40 47
ATOM     47   O  IDS C   3     143.353  32.055  77.2650  0.00  0.00     0.000 O
ATOM     48   S  IDS C   3     142.955  31.360  78.6490  0.00  0.00     0.000 S
ATOM     49   O  IDS C   3     141.758  32.034  79.1020  0.00  0.00     0.000 OA
ATOM     50   O  IDS C   3     144.083  31.587  79.5260  0.00  0.00     0.000 OA
ATOM     51   O  IDS C   3     142.736  29.969  78.3580  0.00  0.00     0.000 OA
ENDBRANCH 40 47
BRANCH 43 52
ATOM     52   C  IDS C   3     141.344  35.682  74.8990  0.00  0.00     0.000 C
ATOM     53   O  IDS C   3     140.955  36.200  73.8770  0.00  0.00     0.000 OA
ATOM     54   O  IDS C   3     141.504  36.343  75.8930  0.00  0.00     0.000 OA
ENDBRANCH 43 52
BRANCH 39 55
ATOM     55  O4  SGN C   4     140.132  31.631  75.4990  0.00  0.00     0.000 O
BRANCH 55 59
ATOM     56  C1  SGN C   4     137.704  29.269  77.9560  0.00  0.00     0.000 C
ATOM     57  C2  SGN C   4     138.856  28.551  77.2320  0.00  0.00     0.000 C
ATOM     58  C3  SGN C   4     139.876  29.557  76.7060  0.00  0.00     0.000 C
ATOM     59  C4  SGN C   4     139.186  30.647  75.8930  0.00  0.00     0.000 C
ATOM     60  C5  SGN C   4     138.097  31.285  76.7530  0.00  0.00     0.000 C
ATOM     61  O5  SGN C   4     137.146  30.263  77.1110  0.00  0.00     0.000 O
ATOM     62   O  SGN C   4     140.847  28.882  75.9170  0.00  0.00     0.000 O
ATOM     64  HD  SGN C   4     140.577  28.286  76.4850  0.00  0.00     0.000 HD
BRANCH 57 66
ATOM     64   N  SGN C   4     138.202  27.250  77.4440  0.00  0.00     0.000 N
ATOM     66  HD  SGN C   4     138.343  26.431  77.2000  0.00  0.00     0.000 HD
ATOM     66   S  SGN C   4     139.027  26.010  78.0170  0.00  0.00     0.000 S
ATOM     67   O  SGN C   4     138.151  24.896  78.0510  0.00  0.00     0.000 OA
ATOM     68   O  SGN C   4     140.232  25.929  77.2660  0.00  0.00     0.000 OA
ATOM     69   O  SGN C   4     139.376  26.440  79.4780  0.00  0.00     0.000 OA
ENDBRANCH 57 66
BRANCH 60 70
ATOM     70   C  SGN C   4     137.342  32.395  76.0560  0.00  0.00     0.000 C
ATOM     71   O  SGN C   4     134.367  32.025  73.7920  0.00  0.00     0.000 OA
ATOM     72   O  SGN C   4     134.378  32.698  76.1150  0.00  0.00     0.000 OA
ATOM     73   O  SGN C   4     136.398  31.850  75.1140  0.00  0.00     0.000 O
ATOM     74   S  SGN C   4     135.076  32.709  74.8500  0.00  0.00     0.000 S
ATOM     75   O  SGN C   4     135.557  34.022  74.4670  0.00  0.00     0.000 OA
ENDBRANCH 60 70
BRANCH 56 76
ATOM     76  O4  IDS C   5     137.436  29.619  79.2270  0.00  0.00     0.000 O
BRANCH 76 80
ATOM     77  C1  IDS C   5     136.918  31.754  82.6670  0.00  0.00     0.000 C
ATOM     78  C2  IDS C   5     138.181  32.110  81.8830  0.00  0.00     0.000 C
ATOM     79  C3  IDS C   5     138.060  31.609  80.4570  0.00  0.00     0.000 C
ATOM     80  C4  IDS C   5     138.020  30.084  80.4530  0.00  0.00     0.000 C
ATOM     81  C5  IDS C   5     137.201  29.594  81.6570  0.00  0.00     0.000 C
ATOM     82  O5  IDS C   5     136.290  30.608  82.0910  0.00  0.00     0.000 O
BRANCH 78 83
ATOM     83   O  IDS C   5     138.379  33.578  81.8490  0.00  0.00     0.000 O
ATOM     84   S  IDS C   5     139.701  34.215  82.4740  0.00  0.00     0.000 S
ATOM     85   O  IDS C   5     139.846  33.625  83.7770  0.00  0.00     0.000 OA
ATOM     86   O  IDS C   5     140.763  33.851  81.5650  0.00  0.00     0.000 OA
ATOM     87   O  IDS C   5     139.468  35.638  82.5150  0.00  0.00     0.000 OA
ENDBRANCH 78 83
BRANCH 81 88
ATOM     88   C  IDS C   5     136.392  28.340  81.3810  0.00  0.00     0.000 C
ATOM     89   O  IDS C   5     136.916  27.261  81.4550  0.00  0.00     0.000 OA
ATOM     90   O  IDS C   5     135.222  28.434  81.0890  0.00  0.00     0.000 OA
ENDBRANCH 81 88
ENDBRANCH 76 80
ENDBRANCH 56 76
ENDBRANCH 55 59
ENDBRANCH 39 55
ENDBRANCH 38 42
ENDBRANCH 18 38
ENDBRANCH 17 21
ENDBRANCH 1 17
TORSDOF 18
ENDMDL
MODEL 86
REMARK VINA RESULT:      -6.8     27.335     33.226
ROOT
ATOM      1  C1  IDS C   1     178.486  28.225  57.6700  0.00  0.00     0.000 C
ATOM      2  C2  IDS C   1     179.492  28.475  58.7970  0.00  0.00     0.000 C
ATOM      3  C3  IDS C   1     180.364  27.249  59.0250  0.00  0.00     0.000 C
ATOM      4  C4  IDS C   1     179.509  26.039  59.3740  0.00  0.00     0.000 C
ATOM      5  C5  IDS C   1     178.235  26.039  58.5350  0.00  0.00     0.000 C
ATOM      6  O5  IDS C   1     178.416  26.838  57.3660  0.00  0.00     0.000 O
ATOM      7   O  IDS C   1     181.300  27.509  60.0800  0.00  0.00     0.000 O
ATOM      9  HD  IDS C   1     181.551  28.336  60.0240  0.00  0.00     0.000 HD
ENDROOT
BRANCH 2 9
ATOM      9   O  IDS C   1     180.388  29.605  58.4620  0.00  0.00     0.000 O
ATOM     10   S  IDS C   1     180.388  30.905  59.3860  0.00  0.00     0.000 S
ATOM     11   O  IDS C   1     181.365  31.801  58.8080  0.00  0.00     0.000 OA
ATOM     12   O  IDS C   1     179.038  31.427  59.3240  0.00  0.00     0.000 OA
ATOM     13   O  IDS C   1     180.757  30.450  60.7080  0.00  0.00     0.000 OA
ENDBRANCH 2 9
BRANCH 5 14
ATOM     14   C  IDS C   1     177.833  24.639  58.1040  0.00  0.00     0.000 C
ATOM     15   O  IDS C   1     178.376  23.684  58.6040  0.00  0.00     0.000 OA
ATOM     16   O  IDS C   1     176.969  24.491  57.2560  0.00  0.00     0.000 OA
ENDBRANCH 5 14
BRANCH 1 17
ATOM     17  O4  SGN C   2     178.212  29.129  56.7250  0.00  0.00     0.000 O
BRANCH 17 21
ATOM     18  C1  SGN C   2     177.667  30.277  52.7360  0.00  0.00     0.000 C
ATOM     19  C2  SGN C   2     177.932  28.788  52.9930  0.00  0.00     0.000 C
ATOM     20  C3  SGN C   2     177.686  28.464  54.4710  0.00  0.00     0.000 C
ATOM     21  C4  SGN C   2     178.501  29.400  55.3560  0.00  0.00     0.000 C
ATOM     22  C5  SGN C   2     178.148  30.844  55.0120  0.00  0.00     0.000 C
ATOM     23  O5  SGN C   2     178.415  31.093  53.6130  0.00  0.00     0.000 O
ATOM     24   O  SGN C   2     178.014  27.109  54.7290  0.00  0.00     0.000 O
ATOM     26  HD  SGN C   2     177.547  27.836  54.7820  0.00  0.00     0.000 HD
BRANCH 19 28
ATOM     26   N  SGN C   2     177.462  28.187  51.7360  0.00  0.00     0.000 N
ATOM     28  HD  SGN C   2     177.804  28.943  51.4880  0.00  0.00     0.000 HD
ATOM     28   O  SGN C   2     177.046  26.142  50.3700  0.00  0.00     0.000 OA
ATOM     29   S  SGN C   2     178.210  26.941  51.0480  0.00  0.00     0.000 S
ATOM     30   O  SGN C   2     179.053  27.455  50.0390  0.00  0.00     0.000 OA
ATOM     31   O  SGN C   2     178.763  26.143  52.0870  0.00  0.00     0.000 OA
ENDBRANCH 19 28
BRANCH 22 32
ATOM     32   C  SGN C   2     178.946  31.858  55.7950  0.00  0.00     0.000 C
ATOM     33   S  SGN C   2     181.007  33.370  55.4720  0.00  0.00     0.000 S
ATOM     34   O  SGN C   2     181.925  32.271  55.6430  0.00  0.00     0.000 OA
ATOM     35   O  SGN C   2     181.416  34.315  54.4540  0.00  0.00     0.000 OA
ATOM     36   O  SGN C   2     180.602  33.996  56.7090  0.00  0.00     0.000 OA
ATOM     37   O  SGN C   2     179.684  32.690  54.8930  0.00  0.00     0.000 O
ENDBRANCH 22 32
BRANCH 18 38
ATOM     38  O4  IDS C   3     176.514  30.934  52.5870  0.00  0.00     0.000 O
BRANCH 38 42
ATOM     39  C1  IDS C   3     173.832  33.154  52.5320  0.00  0.00     0.000 C
ATOM     40  C2  IDS C   3     174.386  32.615  53.8610  0.00  0.00     0.000 C
ATOM     41  C3  IDS C   3     174.465  31.088  53.8480  0.00  0.00     0.000 C
ATOM     42  C4  IDS C   3     175.127  30.581  52.5740  0.00  0.00     0.000 C
ATOM     43  C5  IDS C   3     174.441  31.200  51.3500  0.00  0.00     0.000 C
ATOM     44  O5  IDS C   3     174.542  32.621  51.4270  0.00  0.00     0.000 O
ATOM     45   O  IDS C   3     173.147  30.546  53.9560  0.00  0.00     0.000 O
ATOM     47  HD  IDS C   3     172.409  30.639  53.5120  0.00  0.00     0.000 HD
BRANCH 40 47
ATOM     47   O  IDS C   3     175.756  33.129  54.0990  0.00  0.00     0.000 O
ATOM     48   S  IDS C   3     175.970  34.652  54.5350  0.00  0.00     0.000 S
ATOM     49   O  IDS C   3     175.807  35.437  53.3300  0.00  0.00     0.000 OA
ATOM     50   O  IDS C   3     177.317  34.713  55.0570  0.00  0.00     0.000 OA
ATOM     51   O  IDS C   3     174.966  34.936  55.5260  0.00  0.00     0.000 OA
ENDBRANCH 40 47
BRANCH 43 52
ATOM     52   C  IDS C   3     175.029  30.719  50.0430  0.00  0.00     0.000 C
ATOM     53   O  IDS C   3     175.374  29.565  49.9250  0.00  0.00     0.000 OA
ATOM     54   O  IDS C   3     175.152  31.488  49.1240  0.00  0.00     0.000 OA
ENDBRANCH 43 52
BRANCH 39 55
ATOM     55  O4  SGN C   4     172.534  33.350  52.2990  0.00  0.00     0.000 O
BRANCH 55 59
ATOM     56  C1  SGN C   4     168.835  34.914  53.4720  0.00  0.00     0.000 C
ATOM     57  C2  SGN C   4     170.085  35.647  53.9870  0.00  0.00     0.000 C
ATOM     58  C3  SGN C   4     171.320  35.237  53.1880  0.00  0.00     0.000 C
ATOM     59  C4  SGN C   4     171.442  33.718  53.1310  0.00  0.00     0.000 C
ATOM     60  C5  SGN C   4     170.143  33.142  52.5720  0.00  0.00     0.000 C
ATOM     61  O5  SGN C   4     169.066  33.515  53.4540  0.00  0.00     0.000 O
ATOM     62   O  SGN C   4     172.479  35.811  53.7770  0.00  0.00     0.000 O
ATOM     64  HD  SGN C   4     171.840  36.361  53.9760  0.00  0.00     0.000 HD
BRANCH 57 66
ATOM     64   N  SGN C   4     169.136  36.754  54.1880  0.00  0.00     0.000 N
ATOM     66  HD  SGN C   4     168.695  37.086  54.8550  0.00  0.00     0.000 HD
ATOM     66   S  SGN C   4     169.408  37.864  55.3010  0.00  0.00     0.000 S
ATOM     67   O  SGN C   4     168.301  38.750  55.2970  0.00  0.00     0.000 OA
ATOM     68   O  SGN C   4     169.749  37.177  56.4990  0.00  0.00     0.000 OA
ATOM     69   O  SGN C   4     170.674  38.614  54.7760  0.00  0.00     0.000 OA
ENDBRANCH 57 66
BRANCH 60 70
ATOM     70   C  SGN C   4     170.145  31.633  52.4560  0.00  0.00     0.000 C
ATOM     71   O  SGN C   4     169.368  29.605  49.3910  0.00  0.00     0.000 OA
ATOM     72   O  SGN C   4     171.547  30.119  50.3060  0.00  0.00     0.000 OA
ATOM     73   O  SGN C   4     169.596  31.223  51.1880  0.00  0.00     0.000 O
ATOM     74   S  SGN C   4     170.153  29.854  50.5790  0.00  0.00     0.000 S
ATOM     75   O  SGN C   4     169.946  28.872  51.6240  0.00  0.00     0.000 OA
ENDBRANCH 60 70
BRANCH 56 76
ATOM     76  O4  IDS C   5     167.865  35.178  52.5770  0.00  0.00     0.000 O
BRANCH 76 80
ATOM     77  C1  IDS C   5     165.001  35.083  49.6700  0.00  0.00     0.000 C
ATOM     78  C2  IDS C   5     166.212  34.191  49.3970  0.00  0.00     0.000 C
ATOM     79  C3  IDS C   5     166.977  33.955  50.6840  0.00  0.00     0.000 C
ATOM     80  C4  IDS C   5     167.570  35.272  51.1750  0.00  0.00     0.000 C
ATOM     81  C5  IDS C   5     166.572  36.409  50.9120  0.00  0.00     0.000 C
ATOM     82  O5  IDS C   5     165.240  35.895  50.8200  0.00  0.00     0.000 O
BRANCH 78 83
ATOM     83   O  IDS C   5     165.784  32.879  48.8590  0.00  0.00     0.000 O
ATOM     84   S  IDS C   5     166.415  32.337  47.4970  0.00  0.00     0.000 S
ATOM     85   O  IDS C   5     166.324  33.424  46.5590  0.00  0.00     0.000 OA
ATOM     86   O  IDS C   5     167.776  31.982  47.8250  0.00  0.00     0.000 OA
ATOM     87   O  IDS C   5     165.617  31.194  47.1240  0.00  0.00     0.000 OA
ENDBRANCH 78 83
BRANCH 81 88
ATOM     88   C  IDS C   5     166.573  37.488  51.9790  0.00  0.00     0.000 C
ATOM     89   O  IDS C   5     165.659  37.564  52.7560  0.00  0.00     0.000 OA
ATOM     90   O  IDS C   5     167.497  38.267  52.0420  0.00  0.00     0.000 OA
ENDBRANCH 81 88
ENDBRANCH 76 80
ENDBRANCH 56 76
ENDBRANCH 55 59
ENDBRANCH 39 55
ENDBRANCH 38 42
ENDBRANCH 18 38
ENDBRANCH 17 21
ENDBRANCH 1 17
TORSDOF 18
ENDMDL
MODEL 87
REMARK VINA RESULT:      -6.8     20.630     27.006
ROOT
ATOM      1  C1  IDS C   1     168.928  33.608  54.6730  0.00  0.00     0.000 C
ATOM      2  C2  IDS C   1     170.073  34.343  55.3750  0.00  0.00     0.000 C
ATOM      3  C3  IDS C   1     171.211  33.385  55.7000  0.00  0.00     0.000 C
ATOM      4  C4  IDS C   1     170.721  32.252  56.5900  0.00  0.00     0.000 C
ATOM      5  C5  IDS C   1     169.328  31.809  56.1550  0.00  0.00     0.000 C
ATOM      6  O5  IDS C   1     169.088  32.201  54.8030  0.00  0.00     0.000 O
ATOM      7   O  IDS C   1     172.272  34.097  56.3520  0.00  0.00     0.000 O
ATOM      9  HD  IDS C   1     172.327  34.886  56.0000  0.00  0.00     0.000 HD
ENDROOT
BRANCH 2 9
ATOM      9   O  IDS C   1     170.622  35.411  54.5100  0.00  0.00     0.000 O
ATOM     10   S  IDS C   1     170.563  36.926  55.0030  0.00  0.00     0.000 S
ATOM     11   O  IDS C   1     171.182  37.708  53.9560  0.00  0.00     0.000 OA
ATOM     12   O  IDS C   1     169.156  37.226  55.1740  0.00  0.00     0.000 OA
ATOM     13   O  IDS C   1     171.302  36.967  56.2460  0.00  0.00     0.000 OA
ENDBRANCH 2 9
BRANCH 5 14
ATOM     14   C  IDS C   1     169.146  30.304  56.2590  0.00  0.00     0.000 C
ATOM     15   O  IDS C   1     168.033  29.839  56.2580  0.00  0.00     0.000 OA
ATOM     16   O  IDS C   1     170.124  29.581  56.3440  0.00  0.00     0.000 OA
ENDBRANCH 5 14
BRANCH 1 17
ATOM     17  O4  SGN C   2     168.278  34.111  53.6200  0.00  0.00     0.000 O
BRANCH 17 21
ATOM     18  C1  SGN C   2     167.657  34.203  49.4810  0.00  0.00     0.000 C
ATOM     19  C2  SGN C   2     168.834  33.355  49.9800  0.00  0.00     0.000 C
ATOM     20  C3  SGN C   2     168.676  33.079  51.4800  0.00  0.00     0.000 C
ATOM     21  C4  SGN C   2     168.489  34.389  52.2380  0.00  0.00     0.000 C
ATOM     22  C5  SGN C   2     167.292  35.135  51.6560  0.00  0.00     0.000 C
ATOM     23  O5  SGN C   2     167.507  35.380  50.2470  0.00  0.00     0.000 O
ATOM     24   O  SGN C   2     169.806  32.371  51.9620  0.00  0.00     0.000 O
ATOM     26  HD  SGN C   2     168.965  32.564  51.8800  0.00  0.00     0.000 HD
BRANCH 19 28
ATOM     26   N  SGN C   2     169.048  32.451  48.8410  0.00  0.00     0.000 N
ATOM     28  HD  SGN C   2     168.719  33.165  48.4780  0.00  0.00     0.000 HD
ATOM     28   O  SGN C   2     170.389  30.638  47.7760  0.00  0.00     0.000 OA
ATOM     29   S  SGN C   2     170.515  32.117  48.2750  0.00  0.00     0.000 S
ATOM     30   O  SGN C   2     170.741  32.952  47.1580  0.00  0.00     0.000 OA
ATOM     31   O  SGN C   2     171.420  32.150  49.3710  0.00  0.00     0.000 OA
ENDBRANCH 19 28
BRANCH 22 32
ATOM     32   C  SGN C   2     167.054  36.478  52.3000  0.00  0.00     0.000 C
ATOM     33   S  SGN C   2     167.523  38.967  51.8230  0.00  0.00     0.000 S
ATOM     34   O  SGN C   2     168.910  38.848  52.1990  0.00  0.00     0.000 OA
ATOM     35   O  SGN C   2     167.303  39.836  50.6850  0.00  0.00     0.000 OA
ATOM     36   O  SGN C   2     166.634  39.232  52.9290  0.00  0.00     0.000 OA
ATOM     37   O  SGN C   2     167.129  37.509  51.3080  0.00  0.00     0.000 O
ENDBRANCH 22 32
BRANCH 18 38
ATOM     38  O4  IDS C   3     166.405  33.848  49.1830  0.00  0.00     0.000 O
BRANCH 38 42
ATOM     39  C1  IDS C   3     162.953  33.655  48.7680  0.00  0.00     0.000 C
ATOM     40  C2  IDS C   3     163.569  33.969  50.1400  0.00  0.00     0.000 C
ATOM     41  C3  IDS C   3     164.623  32.931  50.5240  0.00  0.00     0.000 C
ATOM     42  C4  IDS C   3     165.595  32.684  49.3780  0.00  0.00     0.000 C
ATOM     43  C5  IDS C   3     164.816  32.367  48.0960  0.00  0.00     0.000 C
ATOM     44  O5  IDS C   3     163.959  33.464  47.7870  0.00  0.00     0.000 O
ATOM     45   O  IDS C   3     163.975  31.708  50.8790  0.00  0.00     0.000 O
ATOM     47  HD  IDS C   3     163.411  31.178  50.4890  0.00  0.00     0.000 HD
BRANCH 40 47
ATOM     47   O  IDS C   3     164.235  35.293  50.1210  0.00  0.00     0.000 O
ATOM     48   S  IDS C   3     163.362  36.625  50.2660  0.00  0.00     0.000 S
ATOM     49   O  IDS C   3     162.743  36.837  48.9750  0.00  0.00     0.000 OA
ATOM     50   O  IDS C   3     164.309  37.666  50.6020  0.00  0.00     0.000 OA
ATOM     51   O  IDS C   3     162.404  36.373  51.3090  0.00  0.00     0.000 OA
ENDBRANCH 40 47
BRANCH 43 52
ATOM     52   C  IDS C   3     165.720  32.081  46.9170  0.00  0.00     0.000 C
ATOM     53   O  IDS C   3     165.898  32.931  46.0740  0.00  0.00     0.000 OA
ATOM     54   O  IDS C   3     166.259  31.008  46.8240  0.00  0.00     0.000 OA
ENDBRANCH 43 52
BRANCH 39 55
ATOM     55  O4  SGN C   4     161.877  32.885  48.5990  0.00  0.00     0.000 O
BRANCH 55 59
ATOM     56  C1  SGN C   4     158.339  34.646  49.9710  0.00  0.00     0.000 C
ATOM     57  C2  SGN C   4     158.940  33.536  50.8500  0.00  0.00     0.000 C
ATOM     58  C3  SGN C   4     160.391  33.264  50.4620  0.00  0.00     0.000 C
ATOM     59  C4  SGN C   4     160.511  33.032  48.9610  0.00  0.00     0.000 C
ATOM     60  C5  SGN C   4     159.905  34.227  48.2280  0.00  0.00     0.000 C
ATOM     61  O5  SGN C   4     158.516  34.327  48.6000  0.00  0.00     0.000 O
ATOM     62   O  SGN C   4     160.874  32.140  51.1840  0.00  0.00     0.000 O
ATOM     64  HD  SGN C   4     160.267  32.482  51.6980  0.00  0.00     0.000 HD
BRANCH 57 66
ATOM     64   N  SGN C   4     158.521  32.697  51.9850  0.00  0.00     0.000 N
ATOM     66  HD  SGN C   4     158.549  32.754  52.8480  0.00  0.00     0.000 HD
ATOM     66   S  SGN C   4     157.575  33.289  53.1260  0.00  0.00     0.000 S
ATOM     67   O  SGN C   4     157.400  32.275  54.1010  0.00  0.00     0.000 OA
ATOM     68   O  SGN C   4     158.124  34.543  53.5120  0.00  0.00     0.000 OA
ATOM     69   O  SGN C   4     156.220  33.541  52.3900  0.00  0.00     0.000 OA
ENDBRANCH 57 66
BRANCH 60 70
ATOM     70   C  SGN C   4     159.973  34.118  46.7210  0.00  0.00     0.000 C
ATOM     71   O  SGN C   4     162.838  35.132  44.5130  0.00  0.00     0.000 OA
ATOM     72   O  SGN C   4     162.247  32.899  45.2300  0.00  0.00     0.000 OA
ATOM     73   O  SGN C   4     161.140  34.797  46.2180  0.00  0.00     0.000 O
ATOM     74   S  SGN C   4     161.777  34.218  44.8710  0.00  0.00     0.000 S
ATOM     75   O  SGN C   4     160.684  34.201  43.9200  0.00  0.00     0.000 OA
ENDBRANCH 60 70
BRANCH 56 76
ATOM     76  O4  IDS C   5     158.206  35.982  50.0650  0.00  0.00     0.000 O
BRANCH 76 80
ATOM     77  C1  IDS C   5     158.601  40.042  50.1760  0.00  0.00     0.000 C
ATOM     78  C2  IDS C   5     159.821  39.273  50.6810  0.00  0.00     0.000 C
ATOM     79  C3  IDS C   5     159.758  37.836  50.2000  0.00  0.00     0.000 C
ATOM     80  C4  IDS C   5     158.564  37.135  50.8410  0.00  0.00     0.000 C
ATOM     81  C5  IDS C   5     157.384  38.113  50.9250  0.00  0.00     0.000 C
ATOM     82  O5  IDS C   5     157.516  39.144  49.9430  0.00  0.00     0.000 O
BRANCH 78 83
ATOM     83   O  IDS C   5     161.072  39.882  50.1740  0.00  0.00     0.000 O
ATOM     84   S  IDS C   5     161.938  40.825  51.1260  0.00  0.00     0.000 S
ATOM     85   O  IDS C   5     161.011  41.760  51.7050  0.00  0.00     0.000 OA
ATOM     86   O  IDS C   5     162.531  39.937  52.0990  0.00  0.00     0.000 OA
ATOM     87   O  IDS C   5     162.918  41.449  50.2720  0.00  0.00     0.000 OA
ENDBRANCH 78 83
BRANCH 81 88
ATOM     88   C  IDS C   5     156.028  37.460  50.7240  0.00  0.00     0.000 C
ATOM     89   O  IDS C   5     155.565  36.763  51.5860  0.00  0.00     0.000 OA
ATOM     90   O  IDS C   5     155.421  37.647  49.6940  0.00  0.00     0.000 OA
ENDBRANCH 81 88
ENDBRANCH 76 80
ENDBRANCH 56 76
ENDBRANCH 55 59
ENDBRANCH 39 55
ENDBRANCH 38 42
ENDBRANCH 18 38
ENDBRANCH 17 21
ENDBRANCH 1 17
TORSDOF 18
ENDMDL
MODEL 88
REMARK VINA RESULT:      -6.8     20.620     26.362
ROOT
ATOM      1  C1  IDS C   1     168.710  34.184  54.6660  0.00  0.00     0.000 C
ATOM      2  C2  IDS C   1     170.037  34.759  55.1690  0.00  0.00     0.000 C
ATOM      3  C3  IDS C   1     171.156  33.736  55.0330  0.00  0.00     0.000 C
ATOM      4  C4  IDS C   1     170.826  32.473  55.8170  0.00  0.00     0.000 C
ATOM      5  C5  IDS C   1     169.343  32.143  55.6780  0.00  0.00     0.000 C
ATOM      6  O5  IDS C   1     168.807  32.773  54.5150  0.00  0.00     0.000 O
ATOM      7   O  IDS C   1     172.388  34.298  55.5060  0.00  0.00     0.000 O
ATOM      9  HD  IDS C   1     172.406  35.136  55.2880  0.00  0.00     0.000 HD
ENDROOT
BRANCH 2 9
ATOM      9   O  IDS C   1     170.426  35.952  54.3840  0.00  0.00     0.000 O
ATOM     10   S  IDS C   1     170.707  37.329  55.1380  0.00  0.00     0.000 S
ATOM     11   O  IDS C   1     171.072  38.277  54.1090  0.00  0.00     0.000 OA
ATOM     12   O  IDS C   1     169.466  37.668  55.8030  0.00  0.00     0.000 OA
ATOM     13   O  IDS C   1     171.787  37.060  56.0610  0.00  0.00     0.000 OA
ENDBRANCH 2 9
BRANCH 5 14
ATOM     14   C  IDS C   1     169.096  30.647  55.5730  0.00  0.00     0.000 C
ATOM     15   O  IDS C   1     168.251  30.237  54.8150  0.00  0.00     0.000 OA
ATOM     16   O  IDS C   1     169.751  29.876  56.2540  0.00  0.00     0.000 OA
ENDBRANCH 5 14
BRANCH 1 17
ATOM     17  O4  SGN C   2     167.857  34.878  53.9080  0.00  0.00     0.000 O
BRANCH 17 21
ATOM     18  C1  SGN C   2     165.856  35.824  50.3550  0.00  0.00     0.000 C
ATOM     19  C2  SGN C   2     166.581  34.473  50.3960  0.00  0.00     0.000 C
ATOM     20  C3  SGN C   2     166.886  34.091  51.8490  0.00  0.00     0.000 C
ATOM     21  C4  SGN C   2     167.640  35.221  52.5420  0.00  0.00     0.000 C
ATOM     22  C5  SGN C   2     166.819  36.503  52.4380  0.00  0.00     0.000 C
ATOM     23  O5  SGN C   2     166.579  36.819  51.0480  0.00  0.00     0.000 O
ATOM     24   O  SGN C   2     167.633  32.887  51.8850  0.00  0.00     0.000 O
ATOM     26  HD  SGN C   2     167.023  33.450  52.1320  0.00  0.00     0.000 HD
BRANCH 19 28
ATOM     26   N  SGN C   2     165.799  33.473  49.6560  0.00  0.00     0.000 N
ATOM     28  HD  SGN C   2     165.231  34.109  49.8060  0.00  0.00     0.000 HD
ATOM     28   O  SGN C   2     165.713  31.685  47.9180  0.00  0.00     0.000 OA
ATOM     29   S  SGN C   2     166.003  33.215  48.0820  0.00  0.00     0.000 S
ATOM     30   O  SGN C   2     165.001  33.941  47.3990  0.00  0.00     0.000 OA
ATOM     31   O  SGN C   2     167.372  33.453  47.7800  0.00  0.00     0.000 OA
ENDBRANCH 19 28
BRANCH 22 32
ATOM     32   C  SGN C   2     167.505  37.703  53.0450  0.00  0.00     0.000 C
ATOM     33   S  SGN C   2     168.259  40.065  52.3430  0.00  0.00     0.000 S
ATOM     34   O  SGN C   2     169.407  39.562  51.6310  0.00  0.00     0.000 OA
ATOM     35   O  SGN C   2     167.608  41.177  51.6820  0.00  0.00     0.000 OA
ATOM     36   O  SGN C   2     168.490  40.288  53.7500  0.00  0.00     0.000 OA
ATOM     37   O  SGN C   2     167.200  38.872  52.2760  0.00  0.00     0.000 O
ENDBRANCH 22 32
BRANCH 18 38
ATOM     38  O4  IDS C   3     164.578  36.123  50.5970  0.00  0.00     0.000 O
BRANCH 38 42
ATOM     39  C1  IDS C   3     161.148  36.104  51.2000  0.00  0.00     0.000 C
ATOM     40  C2  IDS C   3     161.742  35.375  49.9850  0.00  0.00     0.000 C
ATOM     41  C3  IDS C   3     162.643  36.303  49.1700  0.00  0.00     0.000 C
ATOM     42  C4  IDS C   3     163.622  37.048  50.0660  0.00  0.00     0.000 C
ATOM     43  C5  IDS C   3     162.863  37.730  51.2110  0.00  0.00     0.000 C
ATOM     44  O5  IDS C   3     162.161  36.741  51.9610  0.00  0.00     0.000 O
ATOM     45   O  IDS C   3     161.834  37.240  48.4560  0.00  0.00     0.000 O
ATOM     47  HD  IDS C   3     161.225  37.815  48.6760  0.00  0.00     0.000 HD
BRANCH 40 47
ATOM     47   O  IDS C   3     162.568  34.224  50.4210  0.00  0.00     0.000 O
ATOM     48   S  IDS C   3     162.237  32.756  49.8790  0.00  0.00     0.000 S
ATOM     49   O  IDS C   3     161.083  32.307  50.6290  0.00  0.00     0.000 OA
ATOM     50   O  IDS C   3     163.419  31.972  50.1590  0.00  0.00     0.000 OA
ATOM     51   O  IDS C   3     161.968  32.893  48.4720  0.00  0.00     0.000 OA
ENDBRANCH 40 47
BRANCH 43 52
ATOM     52   C  IDS C   3     163.771  38.516  52.1300  0.00  0.00     0.000 C
ATOM     53   O  IDS C   3     164.274  39.546  51.7450  0.00  0.00     0.000 OA
ATOM     54   O  IDS C   3     163.989  38.110  53.2430  0.00  0.00     0.000 OA
ENDBRANCH 43 52
BRANCH 39 55
ATOM     55  O4  SGN C   4     159.993  36.770  51.1710  0.00  0.00     0.000 O
BRANCH 55 59
ATOM     56  C1  SGN C   4     157.249  39.530  52.7070  0.00  0.00     0.000 C
ATOM     57  C2  SGN C   4     158.432  40.107  51.9100  0.00  0.00     0.000 C
ATOM     58  C3  SGN C   4     159.115  39.016  51.0890  0.00  0.00     0.000 C
ATOM     59  C4  SGN C   4     159.454  37.817  51.9660  0.00  0.00     0.000 C
ATOM     60  C5  SGN C   4     158.181  37.340  52.6610  0.00  0.00     0.000 C
ATOM     61  O5  SGN C   4     157.679  38.418  53.4760  0.00  0.00     0.000 O
ATOM     62   O  SGN C   4     160.287  39.542  50.4820  0.00  0.00     0.000 O
ATOM     64  HD  SGN C   4     159.762  40.225  50.5660  0.00  0.00     0.000 HD
BRANCH 57 66
ATOM     64   N  SGN C   4     158.681  41.312  51.1030  0.00  0.00     0.000 N
ATOM     66  HD  SGN C   4     158.201  41.950  50.7670  0.00  0.00     0.000 HD
ATOM     66   S  SGN C   4     158.165  42.740  51.5960  0.00  0.00     0.000 S
ATOM     67   O  SGN C   4     158.497  43.682  50.5900  0.00  0.00     0.000 OA
ATOM     68   O  SGN C   4     156.805  42.580  51.9820  0.00  0.00     0.000 OA
ATOM     69   O  SGN C   4     159.018  43.022  52.8740  0.00  0.00     0.000 OA
ENDBRANCH 57 66
BRANCH 60 70
ATOM     70   C  SGN C   4     158.387  36.140  53.5590  0.00  0.00     0.000 C
ATOM     71   O  SGN C   4     156.338  32.992  53.6240  0.00  0.00     0.000 OA
ATOM     72   O  SGN C   4     158.499  33.323  52.5900  0.00  0.00     0.000 OA
ATOM     73   O  SGN C   4     157.283  35.222  53.4380  0.00  0.00     0.000 O
ATOM     74   S  SGN C   4     157.611  33.675  53.6740  0.00  0.00     0.000 S
ATOM     75   O  SGN C   4     158.242  33.626  54.9780  0.00  0.00     0.000 OA
ENDBRANCH 60 70
BRANCH 56 76
ATOM     76  O4  IDS C   5     155.926  39.396  52.5030  0.00  0.00     0.000 O
BRANCH 76 80
ATOM     77  C1  IDS C   5     151.942  39.639  51.6480  0.00  0.00     0.000 C
ATOM     78  C2  IDS C   5     152.588  40.966  52.0460  0.00  0.00     0.000 C
ATOM     79  C3  IDS C   5     154.094  40.866  51.9110  0.00  0.00     0.000 C
ATOM     80  C4  IDS C   5     154.632  39.856  52.9210  0.00  0.00     0.000 C
ATOM     81  C5  IDS C   5     153.653  38.677  53.0310  0.00  0.00     0.000 C
ATOM     82  O5  IDS C   5     152.864  38.566  51.8430  0.00  0.00     0.000 O
BRANCH 78 83
ATOM     83   O  IDS C   5     152.111  42.063  51.1720  0.00  0.00     0.000 O
ATOM     84   S  IDS C   5     151.141  43.183  51.7640  0.00  0.00     0.000 S
ATOM     85   O  IDS C   5     150.097  42.477  52.4570  0.00  0.00     0.000 OA
ATOM     86   O  IDS C   5     151.971  43.976  52.6410  0.00  0.00     0.000 OA
ATOM     87   O  IDS C   5     150.666  43.930  50.6250  0.00  0.00     0.000 OA
ENDBRANCH 78 83
BRANCH 81 88
ATOM     88   C  IDS C   5     154.328  37.337  53.2590  0.00  0.00     0.000 C
ATOM     89   O  IDS C   5     154.612  36.992  54.3750  0.00  0.00     0.000 OA
ATOM     90   O  IDS C   5     154.574  36.622  52.3150  0.00  0.00     0.000 OA
ENDBRANCH 81 88
ENDBRANCH 76 80
ENDBRANCH 56 76
ENDBRANCH 55 59
ENDBRANCH 39 55
ENDBRANCH 38 42
ENDBRANCH 18 38
ENDBRANCH 17 21
ENDBRANCH 1 17
TORSDOF 18
ENDMDL
MODEL 89
REMARK VINA RESULT:      -6.8     21.314     24.212
ROOT
ATOM      1  C1  IDS C   1     148.367  35.108  72.9340  0.00  0.00     0.000 C
ATOM      2  C2  IDS C   1     149.825  34.753  72.6270  0.00  0.00     0.000 C
ATOM      3  C3  IDS C   1     150.742  35.928  72.9310  0.00  0.00     0.000 C
ATOM      4  C4  IDS C   1     150.340  37.149  72.1150  0.00  0.00     0.000 C
ATOM      5  C5  IDS C   1     148.820  37.248  72.0370  0.00  0.00     0.000 C
ATOM      6  O5  IDS C   1     148.224  36.512  73.1050  0.00  0.00     0.000 O
ATOM      7   O  IDS C   1     152.101  35.571  72.6410  0.00  0.00     0.000 O
ATOM      9  HD  IDS C   1     152.215  34.739  72.8540  0.00  0.00     0.000 HD
ENDROOT
BRANCH 2 9
ATOM      9   O  IDS C   1     150.274  33.610  73.4540  0.00  0.00     0.000 O
ATOM     10   S  IDS C   1     150.830  32.297  72.7410  0.00  0.00     0.000 S
ATOM     11   O  IDS C   1     151.193  31.390  73.8070  0.00  0.00     0.000 OA
ATOM     12   O  IDS C   1     149.738  31.804  71.9270  0.00  0.00     0.000 OA
ATOM     13   O  IDS C   1     151.968  32.725  71.9570  0.00  0.00     0.000 OA
ENDBRANCH 2 9
BRANCH 5 14
ATOM     14   C  IDS C   1     148.335  38.686  72.1130  0.00  0.00     0.000 C
ATOM     15   O  IDS C   1     148.700  39.388  73.0240  0.00  0.00     0.000 OA
ATOM     16   O  IDS C   1     147.581  39.117  71.2570  0.00  0.00     0.000 OA
ENDBRANCH 5 14
BRANCH 1 17
ATOM     17  O4  SGN C   2     147.530  34.272  73.5540  0.00  0.00     0.000 O
BRANCH 17 21
ATOM     18  C1  SGN C   2     144.847  33.224  76.5930  0.00  0.00     0.000 C
ATOM     19  C2  SGN C   2     145.292  34.691  76.5450  0.00  0.00     0.000 C
ATOM     20  C3  SGN C   2     145.906  35.004  75.1750  0.00  0.00     0.000 C
ATOM     21  C4  SGN C   2     147.016  34.008  74.8570  0.00  0.00     0.000 C
ATOM     22  C5  SGN C   2     146.452  32.593  74.9310  0.00  0.00     0.000 C
ATOM     23  O5  SGN C   2     145.904  32.353  76.2480  0.00  0.00     0.000 O
ATOM     24   O  SGN C   2     146.396  36.334  75.1580  0.00  0.00     0.000 O
ATOM     26  HD  SGN C   2     145.992  35.633  74.8480  0.00  0.00     0.000 HD
BRANCH 19 28
ATOM     26   N  SGN C   2     144.249  35.339  77.3520  0.00  0.00     0.000 N
ATOM     28  HD  SGN C   2     144.352  34.567  77.7310  0.00  0.00     0.000 HD
ATOM     28   O  SGN C   2     143.278  37.427  78.3120  0.00  0.00     0.000 OA
ATOM     29   S  SGN C   2     144.572  36.546  78.3650  0.00  0.00     0.000 S
ATOM     30   O  SGN C   2     144.691  35.994  79.6600  0.00  0.00     0.000 OA
ATOM     31   O  SGN C   2     145.651  37.292  77.8170  0.00  0.00     0.000 OA
ENDBRANCH 19 28
BRANCH 22 32
ATOM     32   C  SGN C   2     147.488  31.522  74.6890  0.00  0.00     0.000 C
ATOM     33   S  SGN C   2     148.800  29.755  76.0300  0.00  0.00     0.000 S
ATOM     34   O  SGN C   2     149.703  30.739  76.5740  0.00  0.00     0.000 OA
ATOM     35   O  SGN C   2     148.426  28.725  76.9760  0.00  0.00     0.000 OA
ATOM     36   O  SGN C   2     149.199  29.237  74.7430  0.00  0.00     0.000 OA
ATOM     37   O  SGN C   2     147.453  30.567  75.7560  0.00  0.00     0.000 O
ENDBRANCH 22 32
BRANCH 18 38
ATOM     38  O4  IDS C   3     143.763  32.635  76.0840  0.00  0.00     0.000 O
BRANCH 38 42
ATOM     39  C1  IDS C   3     140.715  31.127  75.3360  0.00  0.00     0.000 C
ATOM     40  C2  IDS C   3     142.027  30.329  75.2820  0.00  0.00     0.000 C
ATOM     41  C3  IDS C   3     143.069  31.036  74.4170  0.00  0.00     0.000 C
ATOM     42  C4  IDS C   3     143.179  32.510  74.7820  0.00  0.00     0.000 C
ATOM     43  C5  IDS C   3     141.788  33.154  74.7690  0.00  0.00     0.000 C
ATOM     44  O5  IDS C   3     140.951  32.475  75.7030  0.00  0.00     0.000 O
ATOM     45   O  IDS C   3     142.708  30.906  73.0410  0.00  0.00     0.000 O
ATOM     47  HD  IDS C   3     142.005  31.095  72.5720  0.00  0.00     0.000 HD
BRANCH 40 47
ATOM     47   O  IDS C   3     142.603  30.182  76.6410  0.00  0.00     0.000 O
ATOM     48   S  IDS C   3     141.752  29.468  77.7920  0.00  0.00     0.000 S
ATOM     49   O  IDS C   3     140.779  30.446  78.2310  0.00  0.00     0.000 OA
ATOM     50   O  IDS C   3     142.710  29.140  78.8240  0.00  0.00     0.000 OA
ATOM     51   O  IDS C   3     141.147  28.310  77.1920  0.00  0.00     0.000 OA
ENDBRANCH 40 47
BRANCH 43 52
ATOM     52   C  IDS C   3     141.822  34.631  75.0960  0.00  0.00     0.000 C
ATOM     53   O  IDS C   3     141.524  35.009  76.2060  0.00  0.00     0.000 OA
ATOM     54   O  IDS C   3     142.147  35.423  74.2490  0.00  0.00     0.000 OA
ENDBRANCH 43 52
BRANCH 39 55
ATOM     55  O4  SGN C   4     139.718  30.968  74.4650  0.00  0.00     0.000 O
BRANCH 55 59
ATOM     56  C1  SGN C   4     136.045  30.130  76.2850  0.00  0.00     0.000 C
ATOM     57  C2  SGN C   4     136.743  28.958  75.5750  0.00  0.00     0.000 C
ATOM     58  C3  SGN C   4     138.211  29.282  75.3100  0.00  0.00     0.000 C
ATOM     59  C4  SGN C   4     138.345  30.630  74.6110  0.00  0.00     0.000 C
ATOM     60  C5  SGN C   4     137.634  31.691  75.4490  0.00  0.00     0.000 C
ATOM     61  O5  SGN C   4     136.243  31.328  75.5530  0.00  0.00     0.000 O
ATOM     62   O  SGN C   4     138.792  28.250  74.5250  0.00  0.00     0.000 O
ATOM     64  HD  SGN C   4     138.160  27.857  74.9660  0.00  0.00     0.000 HD
BRANCH 57 66
ATOM     64   N  SGN C   4     136.061  27.781  75.0140  0.00  0.00     0.000 N
ATOM     66  HD  SGN C   4     136.119  26.922  75.1050  0.00  0.00     0.000 HD
ATOM     66   S  SGN C   4     135.414  26.683  75.9750  0.00  0.00     0.000 S
ATOM     67   O  SGN C   4     134.891  25.653  75.1520  0.00  0.00     0.000 OA
ATOM     68   O  SGN C   4     136.390  26.364  76.9590  0.00  0.00     0.000 OA
ATOM     69   O  SGN C   4     134.236  27.443  76.6660  0.00  0.00     0.000 OA
ENDBRANCH 57 66
BRANCH 60 70
ATOM     70   C  SGN C   4     137.706  33.083  74.8610  0.00  0.00     0.000 C
ATOM     71   O  SGN C   4     134.827  35.180  73.6690  0.00  0.00     0.000 OA
ATOM     72   O  SGN C   4     136.023  35.372  75.7620  0.00  0.00     0.000 OA
ATOM     73   O  SGN C   4     136.424  33.475  74.3320  0.00  0.00     0.000 O
ATOM     74   S  SGN C   4     136.089  35.038  74.3570  0.00  0.00     0.000 S
ATOM     75   O  SGN C   4     137.197  35.666  73.6660  0.00  0.00     0.000 OA
ENDBRANCH 60 70
BRANCH 56 76
ATOM     76  O4  IDS C   5     135.797  30.471  77.5640  0.00  0.00     0.000 O
BRANCH 76 80
ATOM     77  C1  IDS C   5     138.275  30.311  80.8030  0.00  0.00     0.000 C
ATOM     78  C2  IDS C   5     137.611  28.982  80.4460  0.00  0.00     0.000 C
ATOM     79  C3  IDS C   5     137.088  29.033  79.0240  0.00  0.00     0.000 C
ATOM     80  C4  IDS C   5     135.967  30.064  78.9300  0.00  0.00     0.000 C
ATOM     81  C5  IDS C   5     136.312  31.273  79.8110  0.00  0.00     0.000 C
ATOM     82  O5  IDS C   5     137.725  31.363  80.0090  0.00  0.00     0.000 O
BRANCH 78 83
ATOM     83   O  IDS C   5     138.582  27.867  80.5480  0.00  0.00     0.000 O
ATOM     84   S  IDS C   5     138.236  26.593  81.4440  0.00  0.00     0.000 S
ATOM     85   O  IDS C   5     137.787  27.110  82.7090  0.00  0.00     0.000 OA
ATOM     86   O  IDS C   5     137.204  25.890  80.7200  0.00  0.00     0.000 OA
ATOM     87   O  IDS C   5     139.461  25.838  81.5390  0.00  0.00     0.000 OA
ENDBRANCH 78 83
BRANCH 81 88
ATOM     88   C  IDS C   5     135.844  32.601  79.2440  0.00  0.00     0.000 C
ATOM     89   O  IDS C   5     134.734  32.996  79.4820  0.00  0.00     0.000 OA
ATOM     90   O  IDS C   5     136.593  33.256  78.5560  0.00  0.00     0.000 OA
ENDBRANCH 81 88
ENDBRANCH 76 80
ENDBRANCH 56 76
ENDBRANCH 55 59
ENDBRANCH 39 55
ENDBRANCH 38 42
ENDBRANCH 18 38
ENDBRANCH 17 21
ENDBRANCH 1 17
TORSDOF 18
ENDMDL
MODEL 90
REMARK VINA RESULT:      -6.8      2.986      7.526
ROOT
ATOM      1  C1  IDS C   1     153.664  15.748  56.1330  0.00  0.00     0.000 C
ATOM      2  C2  IDS C   1     154.764  16.808  56.2330  0.00  0.00     0.000 C
ATOM      3  C3  IDS C   1     156.079  16.276  55.6800  0.00  0.00     0.000 C
ATOM      4  C4  IDS C   1     156.513  15.029  56.4360  0.00  0.00     0.000 C
ATOM      5  C5  IDS C   1     155.301  14.157  56.7480  0.00  0.00     0.000 C
ATOM      6  O5  IDS C   1     154.228  14.472  55.8610  0.00  0.00     0.000 O
ATOM      7   O  IDS C   1     157.092  17.288  55.7800  0.00  0.00     0.000 O
ATOM      9  HD  IDS C   1     156.724  18.057  55.6280  0.00  0.00     0.000 HD
ENDROOT
BRANCH 2 9
ATOM      9   O  IDS C   1     154.407  18.014  55.4520  0.00  0.00     0.000 O
ATOM     10   S  IDS C   1     154.518  19.451  56.1340  0.00  0.00     0.000 S
ATOM     11   O  IDS C   1     154.119  20.403  55.1210  0.00  0.00     0.000 OA
ATOM     12   O  IDS C   1     153.612  19.417  57.2640  0.00  0.00     0.000 OA
ATOM     13   O  IDS C   1     155.902  19.596  56.5260  0.00  0.00     0.000 OA
ENDBRANCH 2 9
BRANCH 5 14
ATOM     14   C  IDS C   1     155.612  12.675  56.6210  0.00  0.00     0.000 C
ATOM     15   O  IDS C   1     154.771  11.927  56.1860  0.00  0.00     0.000 OA
ATOM     16   O  IDS C   1     156.706  12.255  56.9590  0.00  0.00     0.000 OA
ENDBRANCH 5 14
BRANCH 1 17
ATOM     17  O4  SGN C   2     152.420  16.026  55.7340  0.00  0.00     0.000 O
BRANCH 17 21
ATOM     18  C1  SGN C   2     149.346  16.535  52.9370  0.00  0.00     0.000 C
ATOM     19  C2  SGN C   2     150.577  15.749  52.4690  0.00  0.00     0.000 C
ATOM     20  C3  SGN C   2     151.392  15.289  53.6840  0.00  0.00     0.000 C
ATOM     21  C4  SGN C   2     151.720  16.480  54.5780  0.00  0.00     0.000 C
ATOM     22  C5  SGN C   2     150.422  17.174  54.9790  0.00  0.00     0.000 C
ATOM     23  O5  SGN C   2     149.708  17.598  53.7950  0.00  0.00     0.000 O
ATOM     24   O  SGN C   2     152.575  14.638  53.2520  0.00  0.00     0.000 O
ATOM     26  HD  SGN C   2     151.868  14.760  53.7380  0.00  0.00     0.000 HD
BRANCH 19 28
ATOM     26   N  SGN C   2     150.031  15.001  51.3290  0.00  0.00     0.000 N
ATOM     28  HD  SGN C   2     149.540  15.713  51.3610  0.00  0.00     0.000 HD
ATOM     28   O  SGN C   2     150.413  13.459  49.4050  0.00  0.00     0.000 OA
ATOM     29   S  SGN C   2     150.812  14.880  49.9280  0.00  0.00     0.000 S
ATOM     30   O  SGN C   2     150.273  15.850  49.0550  0.00  0.00     0.000 OA
ATOM     31   O  SGN C   2     152.206  14.884  50.2090  0.00  0.00     0.000 OA
ENDBRANCH 19 28
BRANCH 22 32
ATOM     32   C  SGN C   2     150.638  18.407  55.8220  0.00  0.00     0.000 C
ATOM     33   S  SGN C   2     149.495  19.648  57.7700  0.00  0.00     0.000 S
ATOM     34   O  SGN C   2     148.486  20.212  56.9100  0.00  0.00     0.000 OA
ATOM     35   O  SGN C   2     148.993  19.244  59.0670  0.00  0.00     0.000 OA
ATOM     36   O  SGN C   2     150.710  20.425  57.8410  0.00  0.00     0.000 OA
ATOM     37   O  SGN C   2     149.910  18.285  57.0500  0.00  0.00     0.000 O
ENDBRANCH 22 32
BRANCH 18 38
ATOM     38  O4  IDS C   3     148.183  16.103  53.4300  0.00  0.00     0.000 O
BRANCH 38 42
ATOM     39  C1  IDS C   3     144.818  15.862  54.2950  0.00  0.00     0.000 C
ATOM     40  C2  IDS C   3     145.578  17.191  54.4340  0.00  0.00     0.000 C
ATOM     41  C3  IDS C   3     146.867  17.009  55.2360  0.00  0.00     0.000 C
ATOM     42  C4  IDS C   3     147.665  15.814  54.7330  0.00  0.00     0.000 C
ATOM     43  C5  IDS C   3     146.763  14.575  54.6740  0.00  0.00     0.000 C
ATOM     44  O5  IDS C   3     145.665  14.837  53.8030  0.00  0.00     0.000 O
ATOM     45   O  IDS C   3     146.543  16.827  56.6150  0.00  0.00     0.000 O
ATOM     47  HD  IDS C   3     146.039  16.280  57.0590  0.00  0.00     0.000 HD
BRANCH 40 47
ATOM     47   O  IDS C   3     145.955  17.717  53.1000  0.00  0.00     0.000 O
ATOM     48   S  IDS C   3     145.689  19.254  52.7470  0.00  0.00     0.000 S
ATOM     49   O  IDS C   3     144.273  19.358  52.4690  0.00  0.00     0.000 OA
ATOM     50   O  IDS C   3     146.503  19.523  51.5820  0.00  0.00     0.000 OA
ATOM     51   O  IDS C   3     146.088  20.011  53.9030  0.00  0.00     0.000 OA
ENDBRANCH 40 47
BRANCH 43 52
ATOM     52   C  IDS C   3     147.498  13.337  54.2080  0.00  0.00     0.000 C
ATOM     53   O  IDS C   3     146.988  12.605  53.3920  0.00  0.00     0.000 OA
ATOM     54   O  IDS C   3     148.589  13.088  54.6530  0.00  0.00     0.000 OA
ENDBRANCH 43 52
BRANCH 39 55
ATOM     55  O4  SGN C   4     143.905  15.438  55.1690  0.00  0.00     0.000 O
BRANCH 55 59
ATOM     56  C1  SGN C   4     141.096  18.326  56.2970  0.00  0.00     0.000 C
ATOM     57  C2  SGN C   4     141.755  17.527  57.4340  0.00  0.00     0.000 C
ATOM     58  C3  SGN C   4     143.010  16.814  56.9380  0.00  0.00     0.000 C
ATOM     59  C4  SGN C   4     142.709  16.011  55.6780  0.00  0.00     0.000 C
ATOM     60  C5  SGN C   4     142.094  16.943  54.6370  0.00  0.00     0.000 C
ATOM     61  O5  SGN C   4     140.872  17.483  55.1790  0.00  0.00     0.000 O
ATOM     62   O  SGN C   4     143.513  15.968  57.9640  0.00  0.00     0.000 O
ATOM     64  HD  SGN C   4     143.107  16.605  58.3880  0.00  0.00     0.000 HD
BRANCH 57 66
ATOM     64   N  SGN C   4     141.805  18.602  58.4390  0.00  0.00     0.000 N
ATOM     66  HD  SGN C   4     141.228  19.081  58.8700  0.00  0.00     0.000 HD
ATOM     66   S  SGN C   4     141.001  18.468  59.8110  0.00  0.00     0.000 S
ATOM     67   O  SGN C   4     141.193  19.672  60.5340  0.00  0.00     0.000 OA
ATOM     68   O  SGN C   4     139.681  18.053  59.4810  0.00  0.00     0.000 OA
ATOM     69   O  SGN C   4     141.723  17.297  60.5510  0.00  0.00     0.000 OA
ENDBRANCH 57 66
BRANCH 60 70
ATOM     70   C  SGN C   4     141.757  16.261  53.3280  0.00  0.00     0.000 C
ATOM     71   O  SGN C   4     142.259  17.640  49.8710  0.00  0.00     0.000 OA
ATOM     72   O  SGN C   4     143.639  16.027  51.0290  0.00  0.00     0.000 OA
ATOM     73   O  SGN C   4     141.897  17.181  52.2290  0.00  0.00     0.000 O
ATOM     74   S  SGN C   4     142.308  16.550  50.8180  0.00  0.00     0.000 S
ATOM     75   O  SGN C   4     141.316  15.523  50.5690  0.00  0.00     0.000 OA
ENDBRANCH 60 70
BRANCH 56 76
ATOM     76  O4  IDS C   5     141.166  19.592  55.8450  0.00  0.00     0.000 O
BRANCH 76 80
ATOM     77  C1  IDS C   5     142.618  23.299  54.9470  0.00  0.00     0.000 C
ATOM     78  C2  IDS C   5     142.941  22.816  56.3610  0.00  0.00     0.000 C
ATOM     79  C3  IDS C   5     142.760  21.314  56.4450  0.00  0.00     0.000 C
ATOM     80  C4  IDS C   5     141.288  20.965  56.2450  0.00  0.00     0.000 C
ATOM     81  C5  IDS C   5     140.687  21.890  55.1760  0.00  0.00     0.000 C
ATOM     82  O5  IDS C   5     141.712  22.395  54.3150  0.00  0.00     0.000 O
BRANCH 78 83
ATOM     83   O  IDS C   5     144.343  23.139  56.7160  0.00  0.00     0.000 O
ATOM     84   S  IDS C   5     144.825  23.016  58.2320  0.00  0.00     0.000 S
ATOM     85   O  IDS C   5     143.837  23.705  59.0180  0.00  0.00     0.000 OA
ATOM     86   O  IDS C   5     144.875  21.598  58.4990  0.00  0.00     0.000 OA
ATOM     87   O  IDS C   5     146.126  23.638  58.2800  0.00  0.00     0.000 OA
ENDBRANCH 78 83
BRANCH 81 88
ATOM     88   C  IDS C   5     139.642  21.223  54.3010  0.00  0.00     0.000 C
ATOM     89   O  IDS C   5     138.535  21.033  54.7300  0.00  0.00     0.000 OA
ATOM     90   O  IDS C   5     139.929  20.887  53.1750  0.00  0.00     0.000 OA
ENDBRANCH 81 88
ENDBRANCH 76 80
ENDBRANCH 56 76
ENDBRANCH 55 59
ENDBRANCH 39 55
ENDBRANCH 38 42
ENDBRANCH 18 38
ENDBRANCH 17 21
ENDBRANCH 1 17
TORSDOF 18
ENDMDL
MODEL 91
REMARK VINA RESULT:      -6.8     20.188     24.779
ROOT
ATOM      1  C1  IDS C   1     158.910  35.392  43.4940  0.00  0.00     0.000 C
ATOM      2  C2  IDS C   1     159.835  35.124  42.3030  0.00  0.00     0.000 C
ATOM      3  C3  IDS C   1     159.467  36.012  41.1230  0.00  0.00     0.000 C
ATOM      4  C4  IDS C   1     158.024  35.775  40.7020  0.00  0.00     0.000 C
ATOM      5  C5  IDS C   1     157.144  35.581  41.9330  0.00  0.00     0.000 C
ATOM      6  O5  IDS C   1     157.776  36.144  43.0820  0.00  0.00     0.000 O
ATOM      7   O  IDS C   1     160.349  35.747  40.0230  0.00  0.00     0.000 O
ATOM      9  HD  IDS C   1     161.138  35.585  40.3400  0.00  0.00     0.000 HD
ENDROOT
BRANCH 2 9
ATOM      9   O  IDS C   1     161.244  35.410  42.6550  0.00  0.00     0.000 O
ATOM     10   S  IDS C   1     162.320  34.235  42.5950  0.00  0.00     0.000 S
ATOM     11   O  IDS C   1     163.581  34.833  42.9760  0.00  0.00     0.000 OA
ATOM     12   O  IDS C   1     161.861  33.237  43.5390  0.00  0.00     0.000 OA
ATOM     13   O  IDS C   1     162.314  33.763  41.2280  0.00  0.00     0.000 OA
ENDBRANCH 2 9
BRANCH 5 14
ATOM     14   C  IDS C   1     155.778  36.226  41.7690  0.00  0.00     0.000 C
ATOM     15   O  IDS C   1     155.319  36.371  40.6630  0.00  0.00     0.000 OA
ATOM     16   O  IDS C   1     155.161  36.593  42.7550  0.00  0.00     0.000 OA
ENDBRANCH 5 14
BRANCH 1 17
ATOM     17  O4  SGN C   2     159.352  35.485  44.7510  0.00  0.00     0.000 O
BRANCH 17 21
ATOM     18  C1  SGN C   2     160.962  37.672  47.9370  0.00  0.00     0.000 C
ATOM     19  C2  SGN C   2     160.697  38.444  46.6380  0.00  0.00     0.000 C
ATOM     20  C3  SGN C   2     159.743  37.644  45.7440  0.00  0.00     0.000 C
ATOM     21  C4  SGN C   2     160.282  36.235  45.5280  0.00  0.00     0.000 C
ATOM     22  C5  SGN C   2     160.498  35.572  46.8860  0.00  0.00     0.000 C
ATOM     23  O5  SGN C   2     161.417  36.362  47.6750  0.00  0.00     0.000 O
ATOM     24   O  SGN C   2     159.566  38.314  44.5070  0.00  0.00     0.000 O
ATOM     26  HD  SGN C   2     159.325  37.868  45.2090  0.00  0.00     0.000 HD
BRANCH 19 28
ATOM     26   N  SGN C   2     160.675  39.831  47.1220  0.00  0.00     0.000 N
ATOM     28  HD  SGN C   2     161.239  39.438  47.6490  0.00  0.00     0.000 HD
ATOM     28   O  SGN C   2     160.444  42.265  46.6250  0.00  0.00     0.000 OA
ATOM     29   S  SGN C   2     161.362  41.036  46.3090  0.00  0.00     0.000 S
ATOM     30   O  SGN C   2     162.634  41.264  46.8790  0.00  0.00     0.000 OA
ATOM     31   O  SGN C   2     161.256  40.736  44.9230  0.00  0.00     0.000 OA
ENDBRANCH 19 28
BRANCH 22 32
ATOM     32   C  SGN C   2     161.088  34.186  46.7880  0.00  0.00     0.000 C
ATOM     33   S  SGN C   2     160.745  31.855  47.8320  0.00  0.00     0.000 S
ATOM     34   O  SGN C   2     161.408  32.230  49.0550  0.00  0.00     0.000 OA
ATOM     35   O  SGN C   2     159.594  31.000  48.0330  0.00  0.00     0.000 OA
ATOM     36   O  SGN C   2     161.637  31.384  46.7990  0.00  0.00     0.000 OA
ATOM     37   O  SGN C   2     160.144  33.225  47.2740  0.00  0.00     0.000 O
ENDBRANCH 22 32
BRANCH 18 38
ATOM     38  O4  IDS C   3     160.206  37.540  49.0300  0.00  0.00     0.000 O
BRANCH 38 42
ATOM     39  C1  IDS C   3     157.663  37.882  51.3840  0.00  0.00     0.000 C
ATOM     40  C2  IDS C   3     158.255  39.110  50.6750  0.00  0.00     0.000 C
ATOM     41  C3  IDS C   3     159.779  39.133  50.7900  0.00  0.00     0.000 C
ATOM     42  C4  IDS C   3     160.379  37.780  50.4310  0.00  0.00     0.000 C
ATOM     43  C5  IDS C   3     159.689  36.675  51.2400  0.00  0.00     0.000 C
ATOM     44  O5  IDS C   3     158.292  36.687  50.9510  0.00  0.00     0.000 O
ATOM     45   O  IDS C   3     160.147  39.484  52.1250  0.00  0.00     0.000 O
ATOM     47  HD  IDS C   3     159.965  39.173  52.9120  0.00  0.00     0.000 HD
BRANCH 40 47
ATOM     47   O  IDS C   3     157.919  39.090  49.2310  0.00  0.00     0.000 O
ATOM     48   S  IDS C   3     157.323  40.401  48.5360  0.00  0.00     0.000 S
ATOM     49   O  IDS C   3     155.933  40.465  48.9340  0.00  0.00     0.000 OA
ATOM     50   O  IDS C   3     157.482  40.184  47.1150  0.00  0.00     0.000 OA
ATOM     51   O  IDS C   3     158.095  41.510  49.0290  0.00  0.00     0.000 OA
ENDBRANCH 40 47
BRANCH 43 52
ATOM     52   C  IDS C   3     160.254  35.301  50.9550  0.00  0.00     0.000 C
ATOM     53   O  IDS C   3     159.508  34.361  50.8060  0.00  0.00     0.000 OA
ATOM     54   O  IDS C   3     161.447  35.150  50.8770  0.00  0.00     0.000 OA
ENDBRANCH 43 52
BRANCH 39 55
ATOM     55  O4  SGN C   4     157.304  37.871  52.6680  0.00  0.00     0.000 O
BRANCH 55 59
ATOM     56  C1  SGN C   4     153.711  39.887  53.3940  0.00  0.00     0.000 C
ATOM     57  C2  SGN C   4     154.988  40.532  53.9590  0.00  0.00     0.000 C
ATOM     58  C3  SGN C   4     156.231  39.937  53.3050  0.00  0.00     0.000 C
ATOM     59  C4  SGN C   4     156.196  38.414  53.3710  0.00  0.00     0.000 C
ATOM     60  C5  SGN C   4     154.892  37.925  52.7460  0.00  0.00     0.000 C
ATOM     61  O5  SGN C   4     153.794  38.475  53.5010  0.00  0.00     0.000 O
ATOM     62   O  SGN C   4     157.395  40.440  53.9470  0.00  0.00     0.000 O
ATOM     64  HD  SGN C   4     156.804  41.065  54.0480  0.00  0.00     0.000 HD
BRANCH 57 66
ATOM     64   N  SGN C   4     154.000  41.573  54.2870  0.00  0.00     0.000 N
ATOM     66  HD  SGN C   4     153.752  41.997  55.0000  0.00  0.00     0.000 HD
ATOM     66   S  SGN C   4     154.447  42.907  55.0410  0.00  0.00     0.000 S
ATOM     67   O  SGN C   4     153.279  43.677  55.2700  0.00  0.00     0.000 OA
ATOM     68   O  SGN C   4     155.250  42.511  56.1460  0.00  0.00     0.000 OA
ATOM     69   O  SGN C   4     155.353  43.636  53.9990  0.00  0.00     0.000 OA
ENDBRANCH 57 66
BRANCH 60 70
ATOM     70   C  SGN C   4     154.742  36.419  52.7430  0.00  0.00     0.000 C
ATOM     71   O  SGN C   4     152.554  34.365  55.0020  0.00  0.00     0.000 OA
ATOM     72   O  SGN C   4     152.125  34.995  52.7060  0.00  0.00     0.000 OA
ATOM     73   O  SGN C   4     153.978  35.986  53.8850  0.00  0.00     0.000 O
ATOM     74   S  SGN C   4     153.115  34.652  53.7020  0.00  0.00     0.000 S
ATOM     75   O  SGN C   4     154.065  33.655  53.2500  0.00  0.00     0.000 OA
ENDBRANCH 60 70
BRANCH 56 76
ATOM     76  O4  IDS C   5     152.848  40.170  52.4010  0.00  0.00     0.000 O
BRANCH 76 80
ATOM     77  C1  IDS C   5     150.354  40.389  49.1770  0.00  0.00     0.000 C
ATOM     78  C2  IDS C   5     151.551  39.456  48.9920  0.00  0.00     0.000 C
ATOM     79  C3  IDS C   5     152.145  39.106  50.3420  0.00  0.00     0.000 C
ATOM     80  C4  IDS C   5     152.729  40.362  50.9830  0.00  0.00     0.000 C
ATOM     81  C5  IDS C   5     151.817  41.559  50.6790  0.00  0.00     0.000 C
ATOM     82  O5  IDS C   5     150.486  41.118  50.3970  0.00  0.00     0.000 O
BRANCH 78 83
ATOM     83   O  IDS C   5     151.137  38.200  48.3230  0.00  0.00     0.000 O
ATOM     84   S  IDS C   5     151.775  37.803  46.9160  0.00  0.00     0.000 S
ATOM     85   O  IDS C   5     151.676  38.978  46.0910  0.00  0.00     0.000 OA
ATOM     86   O  IDS C   5     153.139  37.430  47.2110  0.00  0.00     0.000 OA
ATOM     87   O  IDS C   5     150.989  36.697  46.4280  0.00  0.00     0.000 OA
ENDBRANCH 78 83
BRANCH 81 88
ATOM     88   C  IDS C   5     151.735  42.572  51.8060  0.00  0.00     0.000 C
ATOM     89   O  IDS C   5     150.754  42.619  52.4990  0.00  0.00     0.000 OA
ATOM     90   O  IDS C   5     152.659  43.328  52.0000  0.00  0.00     0.000 OA
ENDBRANCH 81 88
ENDBRANCH 76 80
ENDBRANCH 56 76
ENDBRANCH 55 59
ENDBRANCH 39 55
ENDBRANCH 38 42
ENDBRANCH 18 38
ENDBRANCH 17 21
ENDBRANCH 1 17
TORSDOF 18
ENDMDL
MODEL 92
REMARK VINA RESULT:      -6.8     21.768     28.182
ROOT
ATOM      1  C1  IDS C   1     171.742  37.040  55.7160  0.00  0.00     0.000 C
ATOM      2  C2  IDS C   1     171.872  35.817  56.6290  0.00  0.00     0.000 C
ATOM      3  C3  IDS C   1     172.264  36.235  58.0390  0.00  0.00     0.000 C
ATOM      4  C4  IDS C   1     173.583  36.994  58.0260  0.00  0.00     0.000 C
ATOM      5  C5  IDS C   1     173.645  37.916  56.8120  0.00  0.00     0.000 C
ATOM      6  O5  IDS C   1     172.328  38.181  56.3290  0.00  0.00     0.000 O
ATOM      7   O  IDS C   1     172.375  35.075  58.8750  0.00  0.00     0.000 O
ATOM      9  HD  IDS C   1     171.762  34.510  58.6400  0.00  0.00     0.000 HD
ENDROOT
BRANCH 2 9
ATOM      9   O  IDS C   1     170.586  35.089  56.7210  0.00  0.00     0.000 O
ATOM     10   S  IDS C   1     170.535  33.539  56.3520  0.00  0.00     0.000 S
ATOM     11   O  IDS C   1     169.164  33.128  56.5540  0.00  0.00     0.000 OA
ATOM     12   O  IDS C   1     170.951  33.453  54.9670  0.00  0.00     0.000 OA
ATOM     13   O  IDS C   1     171.455  32.887  57.2580  0.00  0.00     0.000 OA
ENDBRANCH 2 9
BRANCH 5 14
ATOM     14   C  IDS C   1     174.315  39.241  57.1320  0.00  0.00     0.000 C
ATOM     15   O  IDS C   1     173.655  40.150  57.5730  0.00  0.00     0.000 OA
ATOM     16   O  IDS C   1     175.512  39.377  56.9390  0.00  0.00     0.000 OA
ENDBRANCH 5 14
BRANCH 1 17
ATOM     17  O4  SGN C   2     170.744  37.191  54.8400  0.00  0.00     0.000 O
BRANCH 17 21
ATOM     18  C1  SGN C   2     167.182  38.852  53.3990  0.00  0.00     0.000 C
ATOM     19  C2  SGN C   2     167.882  39.609  54.5340  0.00  0.00     0.000 C
ATOM     20  C3  SGN C   2     169.336  39.136  54.6540  0.00  0.00     0.000 C
ATOM     21  C4  SGN C   2     169.386  37.619  54.7970  0.00  0.00     0.000 C
ATOM     22  C5  SGN C   2     168.664  36.984  53.6120  0.00  0.00     0.000 C
ATOM     23  O5  SGN C   2     167.298  37.454  53.5620  0.00  0.00     0.000 O
ATOM     24   O  SGN C   2     169.960  39.771  55.7580  0.00  0.00     0.000 O
ATOM     26  HD  SGN C   2     169.898  39.463  54.9500  0.00  0.00     0.000 HD
BRANCH 19 28
ATOM     26   N  SGN C   2     167.226  40.921  54.4640  0.00  0.00     0.000 N
ATOM     28  HD  SGN C   2     166.580  40.361  54.3250  0.00  0.00     0.000 HD
ATOM     28   O  SGN C   2     167.092  43.288  55.2400  0.00  0.00     0.000 OA
ATOM     29   S  SGN C   2     166.961  41.821  55.7710  0.00  0.00     0.000 S
ATOM     30   O  SGN C   2     165.625  41.603  56.1730  0.00  0.00     0.000 OA
ATOM     31   O  SGN C   2     168.020  41.573  56.6860  0.00  0.00     0.000 OA
ENDBRANCH 19 28
BRANCH 22 32
ATOM     32   C  SGN C   2     168.604  35.478  53.6860  0.00  0.00     0.000 C
ATOM     33   S  SGN C   2     166.846  33.599  53.5490  0.00  0.00     0.000 S
ATOM     34   O  SGN C   2     166.375  33.848  54.8890  0.00  0.00     0.000 OA
ATOM     35   O  SGN C   2     165.790  33.272  52.6140  0.00  0.00     0.000 OA
ATOM     36   O  SGN C   2     167.974  32.701  53.4790  0.00  0.00     0.000 OA
ATOM     37   O  SGN C   2     167.404  35.012  53.0590  0.00  0.00     0.000 O
ENDBRANCH 22 32
BRANCH 18 38
ATOM     38  O4  IDS C   3     167.245  39.030  52.0770  0.00  0.00     0.000 O
BRANCH 38 42
ATOM     39  C1  IDS C   3     165.117  37.764  49.6280  0.00  0.00     0.000 C
ATOM     40  C2  IDS C   3     166.604  38.018  49.3310  0.00  0.00     0.000 C
ATOM     41  C3  IDS C   3     167.008  39.442  49.7130  0.00  0.00     0.000 C
ATOM     42  C4  IDS C   3     166.519  39.797  51.1100  0.00  0.00     0.000 C
ATOM     43  C5  IDS C   3     165.019  39.502  51.2270  0.00  0.00     0.000 C
ATOM     44  O5  IDS C   3     164.794  38.118  50.9620  0.00  0.00     0.000 O
ATOM     45   O  IDS C   3     166.463  40.359  48.7630  0.00  0.00     0.000 O
ATOM     47  HD  IDS C   3     165.668  40.529  48.4630  0.00  0.00     0.000 HD
BRANCH 40 47
ATOM     47   O  IDS C   3     167.456  37.089  50.1110  0.00  0.00     0.000 O
ATOM     48   S  IDS C   3     167.780  35.633  49.5350  0.00  0.00     0.000 S
ATOM     49   O  IDS C   3     166.588  34.843  49.7590  0.00  0.00     0.000 OA
ATOM     50   O  IDS C   3     168.909  35.161  50.3070  0.00  0.00     0.000 OA
ATOM     51   O  IDS C   3     168.081  35.805  48.1390  0.00  0.00     0.000 OA
ENDBRANCH 40 47
BRANCH 43 52
ATOM     52   C  IDS C   3     164.455  39.858  52.5840  0.00  0.00     0.000 C
ATOM     53   O  IDS C   3     163.907  39.011  53.2510  0.00  0.00     0.000 OA
ATOM     54   O  IDS C   3     164.556  40.986  52.9950  0.00  0.00     0.000 OA
ENDBRANCH 43 52
BRANCH 39 55
ATOM     55  O4  SGN C   4     164.139  37.997  48.7530  0.00  0.00     0.000 O
BRANCH 55 59
ATOM     56  C1  SGN C   4     161.298  35.012  48.0260  0.00  0.00     0.000 C
ATOM     57  C2  SGN C   4     162.712  34.765  47.4740  0.00  0.00     0.000 C
ATOM     58  C3  SGN C   4     163.722  35.703  48.1290  0.00  0.00     0.000 C
ATOM     59  C4  SGN C   4     163.244  37.148  48.0480  0.00  0.00     0.000 C
ATOM     60  C5  SGN C   4     161.848  37.239  48.6630  0.00  0.00     0.000 C
ATOM     61  O5  SGN C   4     160.965  36.386  47.9070  0.00  0.00     0.000 O
ATOM     62   O  SGN C   4     164.987  35.558  47.4980  0.00  0.00     0.000 O
ATOM     64  HD  SGN C   4     164.605  34.786  47.3990  0.00  0.00     0.000 HD
BRANCH 57 66
ATOM     64   N  SGN C   4     162.658  33.305  47.6500  0.00  0.00     0.000 N
ATOM     66  HD  SGN C   4     162.230  32.646  47.2840  0.00  0.00     0.000 HD
ATOM     66   S  SGN C   4     162.898  32.328  46.4100  0.00  0.00     0.000 S
ATOM     67   O  SGN C   4     162.723  31.001  46.8750  0.00  0.00     0.000 OA
ATOM     68   O  SGN C   4     162.093  32.807  45.3410  0.00  0.00     0.000 OA
ATOM     69   O  SGN C   4     164.401  32.555  46.0460  0.00  0.00     0.000 OA
ENDBRANCH 57 66
BRANCH 60 70
ATOM     70   C  SGN C   4     161.265  38.635  48.6510  0.00  0.00     0.000 C
ATOM     71   O  SGN C   4     159.010  40.160  51.2380  0.00  0.00     0.000 OA
ATOM     72   O  SGN C   4     161.384  40.520  50.9560  0.00  0.00     0.000 OA
ATOM     73   O  SGN C   4     160.287  38.782  49.6980  0.00  0.00     0.000 O
ATOM     74   S  SGN C   4     160.117  40.248  50.3150  0.00  0.00     0.000 S
ATOM     75   O  SGN C   4     159.852  41.102  49.1740  0.00  0.00     0.000 OA
ENDBRANCH 60 70
BRANCH 56 76
ATOM     76  O4  IDS C   5     160.549  34.496  49.0180  0.00  0.00     0.000 O
BRANCH 76 80
ATOM     77  C1  IDS C   5     157.937  33.609  52.0260  0.00  0.00     0.000 C
ATOM     78  C2  IDS C   5     158.389  35.069  51.9880  0.00  0.00     0.000 C
ATOM     79  C3  IDS C   5     158.976  35.390  50.6280  0.00  0.00     0.000 C
ATOM     80  C4  IDS C   5     160.255  34.584  50.4200  0.00  0.00     0.000 C
ATOM     81  C5  IDS C   5     160.074  33.182  51.0190  0.00  0.00     0.000 C
ATOM     82  O5  IDS C   5     158.687  32.839  51.0870  0.00  0.00     0.000 O
BRANCH 78 83
ATOM     83   O  IDS C   5     157.244  35.978  52.2300  0.00  0.00     0.000 O
ATOM     84   S  IDS C   5     157.170  36.815  53.5860  0.00  0.00     0.000 S
ATOM     85   O  IDS C   5     157.419  35.875  54.6460  0.00  0.00     0.000 OA
ATOM     86   O  IDS C   5     158.199  37.821  53.4660  0.00  0.00     0.000 OA
ATOM     87   O  IDS C   5     155.843  37.379  53.6250  0.00  0.00     0.000 OA
ENDBRANCH 78 83
BRANCH 81 88
ATOM     88   C  IDS C   5     160.779  32.085  50.2420  0.00  0.00     0.000 C
ATOM     89   O  IDS C   5     160.149  31.375  49.5040  0.00  0.00     0.000 OA
ATOM     90   O  IDS C   5     161.972  31.933  50.3690  0.00  0.00     0.000 OA
ENDBRANCH 81 88
ENDBRANCH 76 80
ENDBRANCH 56 76
ENDBRANCH 55 59
ENDBRANCH 39 55
ENDBRANCH 38 42
ENDBRANCH 18 38
ENDBRANCH 17 21
ENDBRANCH 1 17
TORSDOF 18
ENDMDL
MODEL 93
REMARK VINA RESULT:      -6.8     20.151     24.154
ROOT
ATOM      1  C1  IDS C   1     153.222  42.513  53.7340  0.00  0.00     0.000 C
ATOM      2  C2  IDS C   1     152.720  43.569  54.7230  0.00  0.00     0.000 C
ATOM      3  C3  IDS C   1     153.883  44.352  55.3140  0.00  0.00     0.000 C
ATOM      4  C4  IDS C   1     154.853  43.419  56.0250  0.00  0.00     0.000 C
ATOM      5  C5  IDS C   1     155.007  42.123  55.2350  0.00  0.00     0.000 C
ATOM      6  O5  IDS C   1     154.624  42.329  53.8750  0.00  0.00     0.000 O
ATOM      7   O  IDS C   1     153.388  45.337  56.2320  0.00  0.00     0.000 O
ATOM      9  HD  IDS C   1     152.642  45.648  55.9210  0.00  0.00     0.000 HD
ENDROOT
BRANCH 2 9
ATOM      9   O  IDS C   1     151.825  44.537  54.0500  0.00  0.00     0.000 O
ATOM     10   S  IDS C   1     150.377  44.818  54.6560  0.00  0.00     0.000 S
ATOM     11   O  IDS C   1     149.770  45.805  53.7910  0.00  0.00     0.000 OA
ATOM     12   O  IDS C   1     149.689  43.543  54.6270  0.00  0.00     0.000 OA
ATOM     13   O  IDS C   1     150.598  45.309  55.9980  0.00  0.00     0.000 OA
ENDBRANCH 2 9
BRANCH 5 14
ATOM     14   C  IDS C   1     156.435  41.603  55.2600  0.00  0.00     0.000 C
ATOM     15   O  IDS C   1     156.910  41.224  56.3020  0.00  0.00     0.000 OA
ATOM     16   O  IDS C   1     157.087  41.576  54.2300  0.00  0.00     0.000 OA
ENDBRANCH 5 14
BRANCH 1 17
ATOM     17  O4  SGN C   2     152.633  42.279  52.5580  0.00  0.00     0.000 O
BRANCH 17 21
ATOM     18  C1  SGN C   2     152.314  42.499  48.3890  0.00  0.00     0.000 C
ATOM     19  C2  SGN C   2     153.664  42.901  48.9970  0.00  0.00     0.000 C
ATOM     20  C3  SGN C   2     153.764  42.374  50.4340  0.00  0.00     0.000 C
ATOM     21  C4  SGN C   2     152.558  42.831  51.2460  0.00  0.00     0.000 C
ATOM     22  C5  SGN C   2     151.283  42.370  50.5460  0.00  0.00     0.000 C
ATOM     23  O5  SGN C   2     151.238  42.911  49.2060  0.00  0.00     0.000 O
ATOM     24   O  SGN C   2     154.973  42.818  51.0270  0.00  0.00     0.000 O
ATOM     26  HD  SGN C   2     154.343  42.256  50.8350  0.00  0.00     0.000 HD
BRANCH 19 28
ATOM     26   N  SGN C   2     154.547  42.822  47.8260  0.00  0.00     0.000 N
ATOM     28  HD  SGN C   2     153.799  43.113  47.5000  0.00  0.00     0.000 HD
ATOM     28   O  SGN C   2     156.841  43.005  46.8630  0.00  0.00     0.000 OA
ATOM     29   S  SGN C   2     155.748  43.864  47.5830  0.00  0.00     0.000 S
ATOM     30   O  SGN C   2     155.282  44.848  46.6840  0.00  0.00     0.000 OA
ATOM     31   O  SGN C   2     156.244  44.255  48.8570  0.00  0.00     0.000 OA
ENDBRANCH 19 28
BRANCH 22 32
ATOM     32   C  SGN C   2     150.022  42.823  51.2410  0.00  0.00     0.000 C
ATOM     33   S  SGN C   2     147.620  41.978  51.6440  0.00  0.00     0.000 S
ATOM     34   O  SGN C   2     147.203  42.317  50.3070  0.00  0.00     0.000 OA
ATOM     35   O  SGN C   2     147.057  40.736  52.1310  0.00  0.00     0.000 OA
ATOM     36   O  SGN C   2     147.516  43.065  52.5880  0.00  0.00     0.000 OA
ATOM     37   O  SGN C   2     149.185  41.691  51.5070  0.00  0.00     0.000 O
ENDBRANCH 22 32
BRANCH 18 38
ATOM     38  O4  IDS C   3     151.910  41.332  47.8840  0.00  0.00     0.000 O
BRANCH 38 42
ATOM     39  C1  IDS C   3     150.733  38.725  45.8970  0.00  0.00     0.000 C
ATOM     40  C2  IDS C   3     150.199  38.937  47.3230  0.00  0.00     0.000 C
ATOM     41  C3  IDS C   3     151.343  39.031  48.3320  0.00  0.00     0.000 C
ATOM     42  C4  IDS C   3     152.421  39.995  47.8560  0.00  0.00     0.000 C
ATOM     43  C5  IDS C   3     152.851  39.629  46.4300  0.00  0.00     0.000 C
ATOM     44  O5  IDS C   3     151.715  39.694  45.5690  0.00  0.00     0.000 O
ATOM     45   O  IDS C   3     151.908  37.734  48.5290  0.00  0.00     0.000 O
ATOM     47  HD  IDS C   3     152.246  37.128  48.0100  0.00  0.00     0.000 HD
BRANCH 40 47
ATOM     47   O  IDS C   3     149.427  40.199  47.4070  0.00  0.00     0.000 O
ATOM     48   S  IDS C   3     148.096  40.377  46.5370  0.00  0.00     0.000 S
ATOM     49   O  IDS C   3     148.538  40.653  45.1870  0.00  0.00     0.000 OA
ATOM     50   O  IDS C   3     147.401  41.498  47.1310  0.00  0.00     0.000 OA
ATOM     51   O  IDS C   3     147.371  39.140  46.6450  0.00  0.00     0.000 OA
ENDBRANCH 40 47
BRANCH 43 52
ATOM     52   C  IDS C   3     153.943  40.529  45.8980  0.00  0.00     0.000 C
ATOM     53   O  IDS C   3     155.095  40.329  46.2110  0.00  0.00     0.000 OA
ATOM     54   O  IDS C   3     153.661  41.442  45.1650  0.00  0.00     0.000 OA
ENDBRANCH 43 52
BRANCH 39 55
ATOM     55  O4  SGN C   4     150.956  37.525  45.3620  0.00  0.00     0.000 O
BRANCH 55 59
ATOM     56  C1  SGN C   4     147.447  35.363  44.6390  0.00  0.00     0.000 C
ATOM     57  C2  SGN C   4     148.352  34.846  45.7700  0.00  0.00     0.000 C
ATOM     58  C3  SGN C   4     149.360  35.914  46.1880  0.00  0.00     0.000 C
ATOM     59  C4  SGN C   4     150.099  36.461  44.9720  0.00  0.00     0.000 C
ATOM     60  C5  SGN C   4     149.072  36.964  43.9600  0.00  0.00     0.000 C
ATOM     61  O5  SGN C   4     148.239  35.854  43.5700  0.00  0.00     0.000 O
ATOM     62   O  SGN C   4     150.276  35.363  47.1250  0.00  0.00     0.000 O
ATOM     64  HD  SGN C   4     149.549  34.905  47.2380  0.00  0.00     0.000 HD
BRANCH 57 66
ATOM     64   N  SGN C   4     148.233  33.395  45.9860  0.00  0.00     0.000 N
ATOM     66  HD  SGN C   4     148.273  32.858  46.6640  0.00  0.00     0.000 HD
ATOM     66   S  SGN C   4     147.197  32.816  47.0530  0.00  0.00     0.000 S
ATOM     67   O  SGN C   4     147.355  31.407  47.0770  0.00  0.00     0.000 OA
ATOM     68   O  SGN C   4     147.374  33.560  48.2520  0.00  0.00     0.000 OA
ATOM     69   O  SGN C   4     145.802  33.171  46.4450  0.00  0.00     0.000 OA
ENDBRANCH 57 66
BRANCH 60 70
ATOM     70   C  SGN C   4     149.686  37.544  42.7040  0.00  0.00     0.000 C
ATOM     71   O  SGN C   4     150.629  41.130  42.1040  0.00  0.00     0.000 OA
ATOM     72   O  SGN C   4     152.097  39.295  42.6740  0.00  0.00     0.000 OA
ATOM     73   O  SGN C   4     149.710  38.983  42.7730  0.00  0.00     0.000 O
ATOM     74   S  SGN C   4     150.896  39.715  41.9880  0.00  0.00     0.000 S
ATOM     75   O  SGN C   4     150.803  39.218  40.6300  0.00  0.00     0.000 OA
ENDBRANCH 60 70
BRANCH 56 76
ATOM     76  O4  IDS C   5     146.248  35.970  44.5690  0.00  0.00     0.000 O
BRANCH 76 80
ATOM     77  C1  IDS C   5     142.521  37.631  44.4620  0.00  0.00     0.000 C
ATOM     78  C2  IDS C   5     142.694  36.528  45.5060  0.00  0.00     0.000 C
ATOM     79  C3  IDS C   5     144.169  36.296  45.7680  0.00  0.00     0.000 C
ATOM     80  C4  IDS C   5     144.831  35.744  44.5090  0.00  0.00     0.000 C
ATOM     81  C5  IDS C   5     144.230  36.432  43.2750  0.00  0.00     0.000 C
ATOM     82  O5  IDS C   5     143.678  37.704  43.6280  0.00  0.00     0.000 O
BRANCH 78 83
ATOM     83   O  IDS C   5     142.046  36.909  46.7830  0.00  0.00     0.000 O
ATOM     84   S  IDS C   5     140.659  36.239  47.1980  0.00  0.00     0.000 S
ATOM     85   O  IDS C   5     139.808  36.344  46.0430  0.00  0.00     0.000 OA
ATOM     86   O  IDS C   5     140.985  34.875  47.5420  0.00  0.00     0.000 OA
ATOM     87   O  IDS C   5     140.181  36.998  48.3280  0.00  0.00     0.000 OA
ENDBRANCH 78 83
BRANCH 81 88
ATOM     88   C  IDS C   5     145.224  36.661  42.1520  0.00  0.00     0.000 C
ATOM     89   O  IDS C   5     145.804  37.710  42.0700  0.00  0.00     0.000 OA
ATOM     90   O  IDS C   5     145.429  35.783  41.3450  0.00  0.00     0.000 OA
ENDBRANCH 81 88
ENDBRANCH 76 80
ENDBRANCH 56 76
ENDBRANCH 55 59
ENDBRANCH 39 55
ENDBRANCH 38 42
ENDBRANCH 18 38
ENDBRANCH 17 21
ENDBRANCH 1 17
TORSDOF 18
ENDMDL
MODEL 94
REMARK VINA RESULT:      -6.8     29.060     36.776
ROOT
ATOM      1  C1  IDS C   1     166.318  20.582  78.8100  0.00  0.00     0.000 C
ATOM      2  C2  IDS C   1     165.338  21.062  79.8840  0.00  0.00     0.000 C
ATOM      3  C3  IDS C   1     164.244  21.924  79.2710  0.00  0.00     0.000 C
ATOM      4  C4  IDS C   1     164.845  23.131  78.5640  0.00  0.00     0.000 C
ATOM      5  C5  IDS C   1     166.125  22.730  77.8390  0.00  0.00     0.000 C
ATOM      6  O5  IDS C   1     166.138  21.321  77.6090  0.00  0.00     0.000 O
ATOM      7   O  IDS C   1     163.337  22.357  80.2950  0.00  0.00     0.000 O
ATOM      9  HD  IDS C   1     163.247  21.715  80.8680  0.00  0.00     0.000 HD
ENDROOT
BRANCH 2 9
ATOM      9   O  IDS C   1     164.681  19.913  80.5480  0.00  0.00     0.000 O
ATOM     10   S  IDS C   1     164.693  19.817  82.1400  0.00  0.00     0.000 S
ATOM     11   O  IDS C   1     163.969  18.610  82.4700  0.00  0.00     0.000 OA
ATOM     12   O  IDS C   1     166.091  19.758  82.5160  0.00  0.00     0.000 OA
ATOM     13   O  IDS C   1     164.032  21.014  82.6130  0.00  0.00     0.000 OA
ENDBRANCH 2 9
BRANCH 5 14
ATOM     14   C  IDS C   1     166.273  23.437  76.5030  0.00  0.00     0.000 C
ATOM     15   O  IDS C   1     166.712  24.561  76.4710  0.00  0.00     0.000 OA
ATOM     16   O  IDS C   1     165.946  22.866  75.4760  0.00  0.00     0.000 OA
ENDBRANCH 5 14
BRANCH 1 17
ATOM     17  O4  SGN C   2     166.790  19.333  78.7610  0.00  0.00     0.000 O
BRANCH 17 21
ATOM     18  C1  SGN C   2     167.250  15.518  77.0990  0.00  0.00     0.000 C
ATOM     19  C2  SGN C   2     166.668  16.601  76.1820  0.00  0.00     0.000 C
ATOM     20  C3  SGN C   2     166.954  17.988  76.7700  0.00  0.00     0.000 C
ATOM     21  C4  SGN C   2     166.457  18.062  78.2090  0.00  0.00     0.000 C
ATOM     22  C5  SGN C   2     167.107  16.943  79.0180  0.00  0.00     0.000 C
ATOM     23  O5  SGN C   2     166.788  15.663  78.4260  0.00  0.00     0.000 O
ATOM     24   O  SGN C   2     166.343  18.987  75.9700  0.00  0.00     0.000 O
ATOM     26  HD  SGN C   2     166.969  18.625  76.4460  0.00  0.00     0.000 HD
BRANCH 19 28
ATOM     26   N  SGN C   2     166.922  16.027  74.8530  0.00  0.00     0.000 N
ATOM     28  HD  SGN C   2     166.820  15.333  75.3620  0.00  0.00     0.000 HD
ATOM     28   O  SGN C   2     166.689  16.190  72.3750  0.00  0.00     0.000 OA
ATOM     29   S  SGN C   2     165.826  16.067  73.6770  0.00  0.00     0.000 S
ATOM     30   O  SGN C   2     165.167  14.818  73.6660  0.00  0.00     0.000 OA
ATOM     31   O  SGN C   2     165.069  17.261  73.8330  0.00  0.00     0.000 OA
ENDBRANCH 19 28
BRANCH 22 32
ATOM     32   C  SGN C   2     166.637  16.890  80.4510  0.00  0.00     0.000 C
ATOM     33   S  SGN C   2     167.470  16.034  82.7340  0.00  0.00     0.000 S
ATOM     34   O  SGN C   2     167.164  14.663  82.4090  0.00  0.00     0.000 OA
ATOM     35   O  SGN C   2     168.699  16.193  83.4830  0.00  0.00     0.000 OA
ATOM     36   O  SGN C   2     166.359  16.770  83.2900  0.00  0.00     0.000 OA
ATOM     37   O  SGN C   2     167.761  16.718  81.3210  0.00  0.00     0.000 O
ENDBRANCH 22 32
BRANCH 18 38
ATOM     38  O4  IDS C   3     168.507  15.091  77.2380  0.00  0.00     0.000 O
BRANCH 38 42
ATOM     39  C1  IDS C   3     171.578  13.459  77.4250  0.00  0.00     0.000 C
ATOM     40  C2  IDS C   3     170.689  13.620  78.6690  0.00  0.00     0.000 C
ATOM     41  C3  IDS C   3     170.281  15.078  78.8720  0.00  0.00     0.000 C
ATOM     42  C4  IDS C   3     169.762  15.690  77.5770  0.00  0.00     0.000 C
ATOM     43  C5  IDS C   3     170.776  15.456  76.4500  0.00  0.00     0.000 C
ATOM     44  O5  IDS C   3     170.977  14.054  76.2870  0.00  0.00     0.000 O
ATOM     45   O  IDS C   3     171.406  15.824  79.3410  0.00  0.00     0.000 O
ATOM     47  HD  IDS C   3     172.213  15.956  79.0580  0.00  0.00     0.000 HD
BRANCH 40 47
ATOM     47   O  IDS C   3     169.446  12.825  78.5270  0.00  0.00     0.000 O
ATOM     48   S  IDS C   3     169.521  11.228  78.4960  0.00  0.00     0.000 S
ATOM     49   O  IDS C   3     169.984  10.877  77.1700  0.00  0.00     0.000 OA
ATOM     50   O  IDS C   3     168.170  10.778  78.7470  0.00  0.00     0.000 OA
ATOM     51   O  IDS C   3     170.447  10.845  79.5290  0.00  0.00     0.000 OA
ENDBRANCH 40 47
BRANCH 43 52
ATOM     52   C  IDS C   3     170.339  16.063  75.1350  0.00  0.00     0.000 C
ATOM     53   O  IDS C   3     170.277  17.266  75.0170  0.00  0.00     0.000 OA
ATOM     54   O  IDS C   3     170.056  15.345  74.2110  0.00  0.00     0.000 OA
ENDBRANCH 43 52
BRANCH 39 55
ATOM     55  O4  SGN C   4     172.907  13.555  77.4500  0.00  0.00     0.000 O
BRANCH 55 59
ATOM     56  C1  SGN C   4     176.544  11.487  77.4050  0.00  0.00     0.000 C
ATOM     57  C2  SGN C   4     175.277  10.656  77.1350  0.00  0.00     0.000 C
ATOM     58  C3  SGN C   4     174.099  11.563  76.7900  0.00  0.00     0.000 C
ATOM     59  C4  SGN C   4     173.939  12.658  77.8380  0.00  0.00     0.000 C
ATOM     60  C5  SGN C   4     175.261  13.411  77.9670  0.00  0.00     0.000 C
ATOM     61  O5  SGN C   4     176.275  12.476  78.3860  0.00  0.00     0.000 O
ATOM     62   O  SGN C   4     172.913  10.785  76.6920  0.00  0.00     0.000 O
ATOM     64  HD  SGN C   4     173.550  10.238  76.4800  0.00  0.00     0.000 HD
BRANCH 57 66
ATOM     64   N  SGN C   4     175.834   9.709  76.1570  0.00  0.00     0.000 N
ATOM     66  HD  SGN C   4     176.452   9.102  76.1550  0.00  0.00     0.000 HD
ATOM     66   S  SGN C   4     175.910   8.150  76.4890  0.00  0.00     0.000 S
ATOM     67   O  SGN C   4     176.543   7.512  75.3930  0.00  0.00     0.000 OA
ATOM     68   O  SGN C   4     176.475   8.029  77.7890  0.00  0.00     0.000 OA
ATOM     69   O  SGN C   4     174.413   7.710  76.5510  0.00  0.00     0.000 OA
ENDBRANCH 57 66
BRANCH 60 70
ATOM     70   C  SGN C   4     175.227  14.537  78.9770  0.00  0.00     0.000 C
ATOM     71   O  SGN C   4     176.106  18.138  78.3720  0.00  0.00     0.000 OA
ATOM     72   O  SGN C   4     173.897  17.164  78.5120  0.00  0.00     0.000 OA
ATOM     73   O  SGN C   4     175.829  15.726  78.4290  0.00  0.00     0.000 O
ATOM     74   S  SGN C   4     175.268  17.123  78.9680  0.00  0.00     0.000 S
ATOM     75   O  SGN C   4     175.396  17.043  80.4090  0.00  0.00     0.000 OA
ENDBRANCH 60 70
BRANCH 56 76
ATOM     76  O4  IDS C   5     177.588  11.914  76.6720  0.00  0.00     0.000 O
BRANCH 76 80
ATOM     77  C1  IDS C   5     180.747  13.657  74.7640  0.00  0.00     0.000 C
ATOM     78  C2  IDS C   5     179.804  14.640  75.4580  0.00  0.00     0.000 C
ATOM     79  C3  IDS C   5     178.953  13.905  76.4740  0.00  0.00     0.000 C
ATOM     80  C4  IDS C   5     178.030  12.926  75.7550  0.00  0.00     0.000 C
ATOM     81  C5  IDS C   5     178.782  12.291  74.5760  0.00  0.00     0.000 C
ATOM     82  O5  IDS C   5     180.194  12.341  74.7960  0.00  0.00     0.000 O
BRANCH 78 83
ATOM     83   O  IDS C   5     180.572  15.693  76.1640  0.00  0.00     0.000 O
ATOM     84   S  IDS C   5     180.470  17.209  75.6780  0.00  0.00     0.000 S
ATOM     85   O  IDS C   5     180.666  17.182  74.2540  0.00  0.00     0.000 OA
ATOM     86   O  IDS C   5     179.146  17.640  76.0610  0.00  0.00     0.000 OA
ATOM     87   O  IDS C   5     181.511  17.916  76.3840  0.00  0.00     0.000 OA
ENDBRANCH 78 83
BRANCH 81 88
ATOM     88   C  IDS C   5     178.410  10.842  74.3180  0.00  0.00     0.000 C
ATOM     89   O  IDS C   5     179.158   9.963  74.6560  0.00  0.00     0.000 OA
ATOM     90   O  IDS C   5     177.362  10.580  73.7750  0.00  0.00     0.000 OA
ENDBRANCH 81 88
ENDBRANCH 76 80
ENDBRANCH 56 76
ENDBRANCH 55 59
ENDBRANCH 39 55
ENDBRANCH 38 42
ENDBRANCH 18 38
ENDBRANCH 17 21
ENDBRANCH 1 17
TORSDOF 18
ENDMDL
MODEL 95
REMARK VINA RESULT:      -6.7     22.416     26.960
ROOT
ATOM      1  C1  IDS C   1     158.874  36.025  51.8100  0.00  0.00     0.000 C
ATOM      2  C2  IDS C   1     159.070  35.114  50.5950  0.00  0.00     0.000 C
ATOM      3  C3  IDS C   1     158.141  33.910  50.6670  0.00  0.00     0.000 C
ATOM      4  C4  IDS C   1     158.394  33.113  51.9390  0.00  0.00     0.000 C
ATOM      5  C5  IDS C   1     158.660  34.059  53.1060  0.00  0.00     0.000 C
ATOM      6  O5  IDS C   1     158.131  35.353  52.8190  0.00  0.00     0.000 O
ATOM      7   O  IDS C   1     158.340  33.075  49.5170  0.00  0.00     0.000 O
ATOM      9  HD  IDS C   1     158.497  33.584  48.8350  0.00  0.00     0.000 HD
ENDROOT
BRANCH 2 9
ATOM      9   O  IDS C   1     158.767  35.837  49.3390  0.00  0.00     0.000 O
ATOM     10   S  IDS C   1     159.852  35.868  48.1710  0.00  0.00     0.000 S
ATOM     11   O  IDS C   1     159.255  36.628  47.0960  0.00  0.00     0.000 OA
ATOM     12   O  IDS C   1     161.017  36.514  48.7400  0.00  0.00     0.000 OA
ATOM     13   O  IDS C   1     160.090  34.486  47.8160  0.00  0.00     0.000 OA
ENDBRANCH 2 9
BRANCH 5 14
ATOM     14   C  IDS C   1     158.040  33.561  54.4000  0.00  0.00     0.000 C
ATOM     15   O  IDS C   1     158.265  34.148  55.4300  0.00  0.00     0.000 OA
ATOM     16   O  IDS C   1     157.324  32.574  54.3880  0.00  0.00     0.000 OA
ENDBRANCH 5 14
BRANCH 1 17
ATOM     17  O4  SGN C   2     158.823  37.357  51.7190  0.00  0.00     0.000 O
BRANCH 17 21
ATOM     18  C1  SGN C   2     156.971  41.039  50.9870  0.00  0.00     0.000 C
ATOM     19  C2  SGN C   2     156.046  39.829  51.1680  0.00  0.00     0.000 C
ATOM     20  C3  SGN C   2     156.816  38.682  51.8340  0.00  0.00     0.000 C
ATOM     21  C4  SGN C   2     158.087  38.379  51.0510  0.00  0.00     0.000 C
ATOM     22  C5  SGN C   2     158.922  39.652  50.9430  0.00  0.00     0.000 C
ATOM     23  O5  SGN C   2     158.150  40.688  50.2940  0.00  0.00     0.000 O
ATOM     24   O  SGN C   2     155.988  37.535  51.9240  0.00  0.00     0.000 O
ATOM     26  HD  SGN C   2     156.568  38.118  52.1950  0.00  0.00     0.000 HD
BRANCH 19 28
ATOM     26   N  SGN C   2     154.765  40.483  51.4700  0.00  0.00     0.000 N
ATOM     28  HD  SGN C   2     155.151  41.030  50.9200  0.00  0.00     0.000 HD
ATOM     28   O  SGN C   2     152.341  40.282  52.0220  0.00  0.00     0.000 OA
ATOM     29   S  SGN C   2     153.367  39.943  50.8880  0.00  0.00     0.000 S
ATOM     30   O  SGN C   2     153.053  40.717  49.7490  0.00  0.00     0.000 OA
ATOM     31   O  SGN C   2     153.464  38.530  50.7730  0.00  0.00     0.000 OA
ENDBRANCH 19 28
BRANCH 22 32
ATOM     32   C  SGN C   2     160.182  39.474  50.1320  0.00  0.00     0.000 C
ATOM     33   S  SGN C   2     162.687  40.057  50.2910  0.00  0.00     0.000 S
ATOM     34   O  SGN C   2     162.459  41.436  49.9420  0.00  0.00     0.000 OA
ATOM     35   O  SGN C   2     163.702  39.875  51.3080  0.00  0.00     0.000 OA
ATOM     36   O  SGN C   2     162.849  39.180  49.1550  0.00  0.00     0.000 OA
ATOM     37   O  SGN C   2     161.326  39.597  50.9860  0.00  0.00     0.000 O
ENDBRANCH 22 32
BRANCH 18 38
ATOM     38  O4  IDS C   3     157.375  41.955  51.8700  0.00  0.00     0.000 O
BRANCH 38 42
ATOM     39  C1  IDS C   3     157.642  43.894  54.7500  0.00  0.00     0.000 C
ATOM     40  C2  IDS C   3     156.268  43.524  54.1700  0.00  0.00     0.000 C
ATOM     41  C3  IDS C   3     156.179  43.883  52.6870  0.00  0.00     0.000 C
ATOM     42  C4  IDS C   3     157.400  43.386  51.9260  0.00  0.00     0.000 C
ATOM     43  C5  IDS C   3     158.678  43.860  52.6270  0.00  0.00     0.000 C
ATOM     44  O5  IDS C   3     158.692  43.359  53.9620  0.00  0.00     0.000 O
ATOM     45   O  IDS C   3     156.070  45.301  52.5500  0.00  0.00     0.000 O
ATOM     47  HD  IDS C   3     156.537  45.980  52.8170  0.00  0.00     0.000 HD
BRANCH 40 47
ATOM     47   O  IDS C   3     156.029  42.066  54.2890  0.00  0.00     0.000 O
ATOM     48   S  IDS C   3     154.747  41.532  55.0840  0.00  0.00     0.000 S
ATOM     49   O  IDS C   3     155.066  41.669  56.4890  0.00  0.00     0.000 OA
ATOM     50   O  IDS C   3     154.599  40.151  54.6820  0.00  0.00     0.000 OA
ATOM     51   O  IDS C   3     153.644  42.361  54.6790  0.00  0.00     0.000 OA
ENDBRANCH 40 47
BRANCH 43 52
ATOM     52   C  IDS C   3     159.936  43.425  51.9080  0.00  0.00     0.000 C
ATOM     53   O  IDS C   3     160.197  43.881  50.8190  0.00  0.00     0.000 OA
ATOM     54   O  IDS C   3     160.674  42.625  52.4260  0.00  0.00     0.000 OA
ENDBRANCH 43 52
BRANCH 39 55
ATOM     55  O4  SGN C   4     157.920  45.081  55.2900  0.00  0.00     0.000 O
BRANCH 55 59
ATOM     56  C1  SGN C   4     155.276  46.174  58.3420  0.00  0.00     0.000 C
ATOM     57  C2  SGN C   4     155.304  47.081  57.0990  0.00  0.00     0.000 C
ATOM     58  C3  SGN C   4     155.987  46.376  55.9310  0.00  0.00     0.000 C
ATOM     59  C4  SGN C   4     157.343  45.823  56.3550  0.00  0.00     0.000 C
ATOM     60  C5  SGN C   4     157.147  44.922  57.5720  0.00  0.00     0.000 C
ATOM     61  O5  SGN C   4     156.585  45.715  58.6360  0.00  0.00     0.000 O
ATOM     62   O  SGN C   4     156.133  47.284  54.8470  0.00  0.00     0.000 O
ATOM     64  HD  SGN C   4     155.432  47.565  55.2720  0.00  0.00     0.000 HD
BRANCH 57 66
ATOM     64   N  SGN C   4     153.876  47.435  57.1410  0.00  0.00     0.000 N
ATOM     66  HD  SGN C   4     153.360  47.892  57.6660  0.00  0.00     0.000 HD
ATOM     66   S  SGN C   4     153.421  48.960  57.2570  0.00  0.00     0.000 S
ATOM     67   O  SGN C   4     152.006  48.976  57.3370  0.00  0.00     0.000 OA
ATOM     68   O  SGN C   4     154.187  49.544  58.3030  0.00  0.00     0.000 OA
ATOM     69   O  SGN C   4     153.871  49.586  55.8980  0.00  0.00     0.000 OA
ENDBRANCH 57 66
BRANCH 60 70
ATOM     70   C  SGN C   4     158.428  44.301  58.0850  0.00  0.00     0.000 C
ATOM     71   O  SGN C   4     158.917  42.509  61.3490  0.00  0.00     0.000 OA
ATOM     72   O  SGN C   4     158.634  41.528  59.1570  0.00  0.00     0.000 OA
ATOM     73   O  SGN C   4     158.276  43.892  59.4580  0.00  0.00     0.000 O
ATOM     74   S  SGN C   4     159.148  42.637  59.9290  0.00  0.00     0.000 S
ATOM     75   O  SGN C   4     160.514  42.988  59.5950  0.00  0.00     0.000 OA
ENDBRANCH 60 70
BRANCH 56 76
ATOM     76  O4  IDS C   5     154.407  45.293  58.8700  0.00  0.00     0.000 O
BRANCH 76 80
ATOM     77  C1  IDS C   5     150.814  46.614  60.2880  0.00  0.00     0.000 C
ATOM     78  C2  IDS C   5     151.892  46.440  61.3570  0.00  0.00     0.000 C
ATOM     79  C3  IDS C   5     153.259  46.384  60.7040  0.00  0.00     0.000 C
ATOM     80  C4  IDS C   5     153.363  45.129  59.8420  0.00  0.00     0.000 C
ATOM     81  C5  IDS C   5     152.017  44.877  59.1460  0.00  0.00     0.000 C
ATOM     82  O5  IDS C   5     151.272  46.094  59.0390  0.00  0.00     0.000 O
BRANCH 78 83
ATOM     83   O  IDS C   5     151.874  47.575  62.3090  0.00  0.00     0.000 O
ATOM     84   S  IDS C   5     151.663  47.301  63.8660  0.00  0.00     0.000 S
ATOM     85   O  IDS C   5     150.527  46.424  63.9620  0.00  0.00     0.000 OA
ATOM     86   O  IDS C   5     152.892  46.689  64.3120  0.00  0.00     0.000 OA
ATOM     87   O  IDS C   5     151.437  48.594  64.4630  0.00  0.00     0.000 OA
ENDBRANCH 78 83
BRANCH 81 88
ATOM     88   C  IDS C   5     152.145  44.295  57.7500  0.00  0.00     0.000 C
ATOM     89   O  IDS C   5     152.099  45.020  56.7930  0.00  0.00     0.000 OA
ATOM     90   O  IDS C   5     152.294  43.103  57.6100  0.00  0.00     0.000 OA
ENDBRANCH 81 88
ENDBRANCH 76 80
ENDBRANCH 56 76
ENDBRANCH 55 59
ENDBRANCH 39 55
ENDBRANCH 38 42
ENDBRANCH 18 38
ENDBRANCH 17 21
ENDBRANCH 1 17
TORSDOF 18
ENDMDL
MODEL 96
REMARK VINA RESULT:      -6.7     19.547     23.436
ROOT
ATOM      1  C1  IDS C   1     152.812  40.812  52.0950  0.00  0.00     0.000 C
ATOM      2  C2  IDS C   1     153.479  41.955  52.8660  0.00  0.00     0.000 C
ATOM      3  C3  IDS C   1     154.908  41.593  53.2400  0.00  0.00     0.000 C
ATOM      4  C4  IDS C   1     154.938  40.330  54.0900  0.00  0.00     0.000 C
ATOM      5  C5  IDS C   1     153.908  39.329  53.5740  0.00  0.00     0.000 C
ATOM      6  O5  IDS C   1     153.577  39.620  52.2170  0.00  0.00     0.000 O
ATOM      7   O  IDS C   1     155.512  42.680  53.9570  0.00  0.00     0.000 O
ATOM      9  HD  IDS C   1     155.224  43.423  53.6180  0.00  0.00     0.000 HD
ENDROOT
BRANCH 2 9
ATOM      9   O  IDS C   1     153.530  43.186  52.0440  0.00  0.00     0.000 O
ATOM     10   S  IDS C   1     152.833  44.516  52.5800  0.00  0.00     0.000 S
ATOM     11   O  IDS C   1     153.070  45.523  51.5700  0.00  0.00     0.000 OA
ATOM     12   O  IDS C   1     151.430  44.187  52.7300  0.00  0.00     0.000 OA
ATOM     13   O  IDS C   1     153.478  44.820  53.8380  0.00  0.00     0.000 OA
ENDBRANCH 2 9
BRANCH 5 14
ATOM     14   C  IDS C   1     154.413  37.898  53.6510  0.00  0.00     0.000 C
ATOM     15   O  IDS C   1     155.565  37.660  53.3840  0.00  0.00     0.000 OA
ATOM     16   O  IDS C   1     153.650  37.004  53.9780  0.00  0.00     0.000 OA
ENDBRANCH 5 14
BRANCH 1 17
ATOM     17  O4  SGN C   2     152.053  41.010  51.0130  0.00  0.00     0.000 O
BRANCH 17 21
ATOM     18  C1  SGN C   2     151.465  41.597  46.9100  0.00  0.00     0.000 C
ATOM     19  C2  SGN C   2     152.890  41.247  47.3570  0.00  0.00     0.000 C
ATOM     20  C3  SGN C   2     152.861  40.658  48.7720  0.00  0.00     0.000 C
ATOM     21  C4  SGN C   2     152.129  41.602  49.7190  0.00  0.00     0.000 C
ATOM     22  C5  SGN C   2     150.729  41.869  49.1730  0.00  0.00     0.000 C
ATOM     23  O5  SGN C   2     150.823  42.438  47.8460  0.00  0.00     0.000 O
ATOM     24   O  SGN C   2     154.184  40.414  49.2210  0.00  0.00     0.000 O
ATOM     26  HD  SGN C   2     153.342  40.247  49.1040  0.00  0.00     0.000 HD
BRANCH 19 28
ATOM     26   N  SGN C   2     153.481  40.768  46.1000  0.00  0.00     0.000 N
ATOM     28  HD  SGN C   2     152.902  41.359  45.8430  0.00  0.00     0.000 HD
ATOM     28   O  SGN C   2     155.467  39.896  44.8680  0.00  0.00     0.000 OA
ATOM     29   S  SGN C   2     154.973  41.161  45.6470  0.00  0.00     0.000 S
ATOM     30   O  SGN C   2     154.872  42.239  44.7400  0.00  0.00     0.000 OA
ATOM     31   O  SGN C   2     155.757  41.304  46.8240  0.00  0.00     0.000 OA
ENDBRANCH 19 28
BRANCH 22 32
ATOM     32   C  SGN C   2     149.936  42.843  50.0090  0.00  0.00     0.000 C
ATOM     33   S  SGN C   2     147.569  43.860  50.0770  0.00  0.00     0.000 S
ATOM     34   O  SGN C   2     147.854  44.768  48.9930  0.00  0.00     0.000 OA
ATOM     35   O  SGN C   2     146.232  43.307  50.0340  0.00  0.00     0.000 OA
ATOM     36   O  SGN C   2     147.943  44.362  51.3780  0.00  0.00     0.000 OA
ATOM     37   O  SGN C   2     148.535  42.617  49.8130  0.00  0.00     0.000 O
ENDBRANCH 22 32
BRANCH 18 38
ATOM     38  O4  IDS C   3     150.487  40.811  46.4560  0.00  0.00     0.000 O
BRANCH 38 42
ATOM     39  C1  IDS C   3     147.841  39.200  44.8650  0.00  0.00     0.000 C
ATOM     40  C2  IDS C   3     147.588  40.336  45.8690  0.00  0.00     0.000 C
ATOM     41  C3  IDS C   3     148.310  40.077  47.1900  0.00  0.00     0.000 C
ATOM     42  C4  IDS C   3     149.762  39.682  46.9560  0.00  0.00     0.000 C
ATOM     43  C5  IDS C   3     149.830  38.528  45.9490  0.00  0.00     0.000 C
ATOM     44  O5  IDS C   3     149.228  38.941  44.7240  0.00  0.00     0.000 O
ATOM     45   O  IDS C   3     147.637  39.037  47.9020  0.00  0.00     0.000 O
ATOM     47  HD  IDS C   3     147.406  38.222  47.7220  0.00  0.00     0.000 HD
BRANCH 40 47
ATOM     47   O  IDS C   3     148.088  41.624  45.3330  0.00  0.00     0.000 O
ATOM     48   S  IDS C   3     147.131  42.906  45.3200  0.00  0.00     0.000 S
ATOM     49   O  IDS C   3     146.224  42.712  44.2090  0.00  0.00     0.000 OA
ATOM     50   O  IDS C   3     148.011  44.036  45.1250  0.00  0.00     0.000 OA
ATOM     51   O  IDS C   3     146.458  42.924  46.5920  0.00  0.00     0.000 OA
ENDBRANCH 40 47
BRANCH 43 52
ATOM     52   C  IDS C   3     151.245  38.062  45.6870  0.00  0.00     0.000 C
ATOM     53   O  IDS C   3     151.811  37.366  46.4990  0.00  0.00     0.000 OA
ATOM     54   O  IDS C   3     151.802  38.386  44.6690  0.00  0.00     0.000 OA
ENDBRANCH 43 52
BRANCH 39 55
ATOM     55  O4  SGN C   4     147.074  38.113  44.7700  0.00  0.00     0.000 O
BRANCH 55 59
ATOM     56  C1  SGN C   4     146.421  34.077  43.8830  0.00  0.00     0.000 C
ATOM     57  C2  SGN C   4     147.221  34.379  45.1620  0.00  0.00     0.000 C
ATOM     58  C3  SGN C   4     147.050  35.838  45.5750  0.00  0.00     0.000 C
ATOM     59  C4  SGN C   4     147.338  36.767  44.4020  0.00  0.00     0.000 C
ATOM     60  C5  SGN C   4     146.449  36.365  43.2270  0.00  0.00     0.000 C
ATOM     61  O5  SGN C   4     146.763  35.005  42.8660  0.00  0.00     0.000 O
ATOM     62   O  SGN C   4     147.912  36.128  46.6670  0.00  0.00     0.000 O
ATOM     64  HD  SGN C   4     147.742  35.282  46.7440  0.00  0.00     0.000 HD
BRANCH 57 66
ATOM     64   N  SGN C   4     146.733  33.292  46.0250  0.00  0.00     0.000 N
ATOM     66  HD  SGN C   4     146.738  32.426  46.0030  0.00  0.00     0.000 HD
ATOM     66   S  SGN C   4     147.722  32.139  46.5140  0.00  0.00     0.000 S
ATOM     67   O  SGN C   4     146.957  31.215  47.2700  0.00  0.00     0.000 OA
ATOM     68   O  SGN C   4     148.432  31.686  45.3690  0.00  0.00     0.000 OA
ATOM     69   O  SGN C   4     148.719  32.882  47.4600  0.00  0.00     0.000 OA
ENDBRANCH 57 66
BRANCH 60 70
ATOM     70   C  SGN C   4     146.637  37.225  41.9960  0.00  0.00     0.000 C
ATOM     71   O  SGN C   4     144.161  39.640  40.5330  0.00  0.00     0.000 OA
ATOM     72   O  SGN C   4     146.090  40.152  41.8980  0.00  0.00     0.000 OA
ATOM     73   O  SGN C   4     145.397  37.861  41.6300  0.00  0.00     0.000 O
ATOM     74   S  SGN C   4     145.510  39.280  40.9030  0.00  0.00     0.000 S
ATOM     75   O  SGN C   4     146.378  39.045  39.7660  0.00  0.00     0.000 OA
ENDBRANCH 60 70
BRANCH 56 76
ATOM     76  O4  IDS C   5     145.191  33.607  43.6070  0.00  0.00     0.000 O
BRANCH 76 80
ATOM     77  C1  IDS C   5     141.784  35.841  43.8460  0.00  0.00     0.000 C
ATOM     78  C2  IDS C   5     142.167  35.129  45.1430  0.00  0.00     0.000 C
ATOM     79  C3  IDS C   5     143.623  34.709  45.0880  0.00  0.00     0.000 C
ATOM     80  C4  IDS C   5     143.810  33.657  43.9980  0.00  0.00     0.000 C
ATOM     81  C5  IDS C   5     142.924  34.009  42.7940  0.00  0.00     0.000 C
ATOM     82  O5  IDS C   5     142.629  35.409  42.7800  0.00  0.00     0.000 O
BRANCH 78 83
ATOM     83   O  IDS C   5     141.982  36.025  46.3080  0.00  0.00     0.000 O
ATOM     84   S  IDS C   5     140.599  36.017  47.1030  0.00  0.00     0.000 S
ATOM     85   O  IDS C   5     139.569  36.117  46.1050  0.00  0.00     0.000 OA
ATOM     86   O  IDS C   5     140.580  34.761  47.8150  0.00  0.00     0.000 OA
ATOM     87   O  IDS C   5     140.650  37.156  47.9860  0.00  0.00     0.000 OA
ENDBRANCH 78 83
BRANCH 81 88
ATOM     88   C  IDS C   5     143.541  33.658  41.4520  0.00  0.00     0.000 C
ATOM     89   O  IDS C   5     143.448  32.538  41.0250  0.00  0.00     0.000 OA
ATOM     90   O  IDS C   5     144.122  34.510  40.8190  0.00  0.00     0.000 OA
ENDBRANCH 81 88
ENDBRANCH 76 80
ENDBRANCH 56 76
ENDBRANCH 55 59
ENDBRANCH 39 55
ENDBRANCH 38 42
ENDBRANCH 18 38
ENDBRANCH 17 21
ENDBRANCH 1 17
TORSDOF 18
ENDMDL
MODEL 97
REMARK VINA RESULT:      -6.7     20.689     27.839
ROOT
ATOM      1  C1  IDS C   1     157.364  38.932  52.2300  0.00  0.00     0.000 C
ATOM      2  C2  IDS C   1     155.982  38.930  52.8890  0.00  0.00     0.000 C
ATOM      3  C3  IDS C   1     155.190  40.167  52.4890  0.00  0.00     0.000 C
ATOM      4  C4  IDS C   1     155.935  41.433  52.8890  0.00  0.00     0.000 C
ATOM      5  C5  IDS C   1     157.431  41.259  52.6460  0.00  0.00     0.000 C
ATOM      6  O5  IDS C   1     157.656  40.217  51.6960  0.00  0.00     0.000 O
ATOM      7   O  IDS C   1     153.900  40.140  53.1150  0.00  0.00     0.000 O
ATOM      9  HD  IDS C   1     153.625  39.319  53.1380  0.00  0.00     0.000 HD
ENDROOT
BRANCH 2 9
ATOM      9   O  IDS C   1     155.200  37.745  52.4700  0.00  0.00     0.000 O
ATOM     10   S  IDS C   1     154.547  36.804  53.5790  0.00  0.00     0.000 S
ATOM     11   O  IDS C   1     153.851  35.763  52.8570  0.00  0.00     0.000 OA
ATOM     12   O  IDS C   1     155.656  36.301  54.3640  0.00  0.00     0.000 OA
ATOM     13   O  IDS C   1     153.656  37.650  54.3410  0.00  0.00     0.000 OA
ENDBRANCH 2 9
BRANCH 5 14
ATOM     14   C  IDS C   1     158.080  42.531  52.1270  0.00  0.00     0.000 C
ATOM     15   O  IDS C   1     159.265  42.699  52.2820  0.00  0.00     0.000 OA
ATOM     16   O  IDS C   1     157.399  43.371  51.5630  0.00  0.00     0.000 OA
ENDBRANCH 5 14
BRANCH 1 17
ATOM     17  O4  SGN C   2     157.911  37.843  51.6830  0.00  0.00     0.000 O
BRANCH 17 21
ATOM     18  C1  SGN C   2     159.289  35.538  48.4720  0.00  0.00     0.000 C
ATOM     19  C2  SGN C   2     158.929  36.997  48.1650  0.00  0.00     0.000 C
ATOM     20  C3  SGN C   2     158.860  37.800  49.4700  0.00  0.00     0.000 C
ATOM     21  C4  SGN C   2     157.913  37.121  50.4540  0.00  0.00     0.000 C
ATOM     22  C5  SGN C   2     158.376  35.685  50.6800  0.00  0.00     0.000 C
ATOM     23  O5  SGN C   2     158.405  34.977  49.4200  0.00  0.00     0.000 O
ATOM     24   O  SGN C   2     158.443  39.127  49.1980  0.00  0.00     0.000 O
ATOM     26  HD  SGN C   2     158.913  38.504  49.5740  0.00  0.00     0.000 HD
BRANCH 19 28
ATOM     26   N  SGN C   2     159.609  37.203  46.8790  0.00  0.00     0.000 N
ATOM     28  HD  SGN C   2     159.326  36.386  46.8340  0.00  0.00     0.000 HD
ATOM     28   O  SGN C   2     160.240  38.738  45.0170  0.00  0.00     0.000 OA
ATOM     29   S  SGN C   2     158.983  38.116  45.7130  0.00  0.00     0.000 S
ATOM     30   O  SGN C   2     158.340  37.254  44.7970  0.00  0.00     0.000 OA
ATOM     31   O  SGN C   2     158.243  39.160  46.3320  0.00  0.00     0.000 OA
ENDBRANCH 19 28
BRANCH 22 32
ATOM     32   C  SGN C   2     157.470  34.902  51.5990  0.00  0.00     0.000 C
ATOM     33   S  SGN C   2     157.655  33.392  53.6790  0.00  0.00     0.000 S
ATOM     34   O  SGN C   2     158.118  32.267  52.9060  0.00  0.00     0.000 OA
ATOM     35   O  SGN C   2     158.309  33.522  54.9650  0.00  0.00     0.000 OA
ATOM     36   O  SGN C   2     156.217  33.506  53.7510  0.00  0.00     0.000 OA
ATOM     37   O  SGN C   2     158.135  34.666  52.8450  0.00  0.00     0.000 O
ENDBRANCH 22 32
BRANCH 18 38
ATOM     38  O4  IDS C   3     160.469  34.983  48.7600  0.00  0.00     0.000 O
BRANCH 38 42
ATOM     39  C1  IDS C   3     163.644  34.422  50.0760  0.00  0.00     0.000 C
ATOM     40  C2  IDS C   3     163.238  35.808  49.5490  0.00  0.00     0.000 C
ATOM     41  C3  IDS C   3     162.677  35.718  48.1300  0.00  0.00     0.000 C
ATOM     42  C4  IDS C   3     161.636  34.613  48.0190  0.00  0.00     0.000 C
ATOM     43  C5  IDS C   3     162.210  33.301  48.5680  0.00  0.00     0.000 C
ATOM     44  O5  IDS C   3     162.585  33.490  49.9310  0.00  0.00     0.000 O
ATOM     45   O  IDS C   3     163.745  35.469  47.2140  0.00  0.00     0.000 O
ATOM     47  HD  IDS C   3     164.364  34.867  47.1450  0.00  0.00     0.000 HD
BRANCH 40 47
ATOM     47   O  IDS C   3     162.186  36.403  50.4070  0.00  0.00     0.000 O
ATOM     48   S  IDS C   3     162.596  37.212  51.7240  0.00  0.00     0.000 S
ATOM     49   O  IDS C   3     162.939  36.213  52.7130  0.00  0.00     0.000 OA
ATOM     50   O  IDS C   3     161.418  37.968  52.0880  0.00  0.00     0.000 OA
ATOM     51   O  IDS C   3     163.712  38.043  51.3600  0.00  0.00     0.000 OA
ENDBRANCH 40 47
BRANCH 43 52
ATOM     52   C  IDS C   3     161.238  32.147  48.4630  0.00  0.00     0.000 C
ATOM     53   O  IDS C   3     161.062  31.602  47.3980  0.00  0.00     0.000 OA
ATOM     54   O  IDS C   3     160.643  31.777  49.4430  0.00  0.00     0.000 OA
ENDBRANCH 43 52
BRANCH 39 55
ATOM     55  O4  SGN C   4     164.857  33.895  49.9100  0.00  0.00     0.000 O
BRANCH 55 59
ATOM     56  C1  SGN C   4     169.011  34.335  50.1350  0.00  0.00     0.000 C
ATOM     57  C2  SGN C   4     168.170  35.305  50.9830  0.00  0.00     0.000 C
ATOM     58  C3  SGN C   4     166.737  34.798  51.1230  0.00  0.00     0.000 C
ATOM     59  C4  SGN C   4     166.150  34.463  49.7570  0.00  0.00     0.000 C
ATOM     60  C5  SGN C   4     167.075  33.471  49.0550  0.00  0.00     0.000 C
ATOM     61  O5  SGN C   4     168.366  34.091  48.8960  0.00  0.00     0.000 O
ATOM     62   O  SGN C   4     165.948  35.779  51.7810  0.00  0.00     0.000 O
ATOM     64  HD  SGN C   4     166.750  35.910  52.0810  0.00  0.00     0.000 HD
BRANCH 57 66
ATOM     64   N  SGN C   4     169.203  35.397  52.0280  0.00  0.00     0.000 N
ATOM     66  HD  SGN C   4     169.977  35.777  52.1100  0.00  0.00     0.000 HD
ATOM     66   S  SGN C   4     169.735  36.819  52.5190  0.00  0.00     0.000 S
ATOM     67   O  SGN C   4     170.756  36.584  53.4740  0.00  0.00     0.000 OA
ATOM     68   O  SGN C   4     170.030  37.578  51.3520  0.00  0.00     0.000 OA
ATOM     69   O  SGN C   4     168.497  37.454  53.2290  0.00  0.00     0.000 OA
ENDBRANCH 57 66
BRANCH 60 70
ATOM     70   C  SGN C   4     166.592  33.050  47.6840  0.00  0.00     0.000 C
ATOM     71   O  SGN C   4     166.155  29.539  46.4240  0.00  0.00     0.000 OA
ATOM     72   O  SGN C   4     164.436  31.049  47.2080  0.00  0.00     0.000 OA
ATOM     73   O  SGN C   4     166.755  31.630  47.5040  0.00  0.00     0.000 O
ATOM     74   S  SGN C   4     165.708  30.908  46.5360  0.00  0.00     0.000 S
ATOM     75   O  SGN C   4     165.786  31.645  45.2900  0.00  0.00     0.000 OA
ENDBRANCH 60 70
BRANCH 56 76
ATOM     76  O4  IDS C   5     169.818  33.288  50.3870  0.00  0.00     0.000 O
BRANCH 76 80
ATOM     77  C1  IDS C   5     170.073  29.584  52.0810  0.00  0.00     0.000 C
ATOM     78  C2  IDS C   5     169.768  30.712  53.0660  0.00  0.00     0.000 C
ATOM     79  C3  IDS C   5     169.267  31.929  52.3150  0.00  0.00     0.000 C
ATOM     80  C4  IDS C   5     170.382  32.478  51.4300  0.00  0.00     0.000 C
ATOM     81  C5  IDS C   5     171.178  31.310  50.8310  0.00  0.00     0.000 C
ATOM     82  O5  IDS C   5     170.379  30.124  50.7960  0.00  0.00     0.000 O
BRANCH 78 83
ATOM     83   O  IDS C   5     168.725  30.296  54.0330  0.00  0.00     0.000 O
ATOM     84   S  IDS C   5     168.878  30.674  55.5750  0.00  0.00     0.000 S
ATOM     85   O  IDS C   5     170.216  30.298  55.9440  0.00  0.00     0.000 OA
ATOM     86   O  IDS C   5     168.650  32.099  55.6400  0.00  0.00     0.000 OA
ATOM     87   O  IDS C   5     167.863  29.917  56.2660  0.00  0.00     0.000 OA
ENDBRANCH 78 83
BRANCH 81 88
ATOM     88   C  IDS C   5     171.679  31.565  49.4210  0.00  0.00     0.000 C
ATOM     89   O  IDS C   5     172.823  31.888  49.2420  0.00  0.00     0.000 OA
ATOM     90   O  IDS C   5     170.923  31.441  48.4850  0.00  0.00     0.000 OA
ENDBRANCH 81 88
ENDBRANCH 76 80
ENDBRANCH 56 76
ENDBRANCH 55 59
ENDBRANCH 39 55
ENDBRANCH 38 42
ENDBRANCH 18 38
ENDBRANCH 17 21
ENDBRANCH 1 17
TORSDOF 18
ENDMDL
MODEL 98
REMARK VINA RESULT:      -6.7     20.397     28.198
ROOT
ATOM      1  C1  IDS C   1     155.789  38.727  52.0010  0.00  0.00     0.000 C
ATOM      2  C2  IDS C   1     154.510  38.339  52.7480  0.00  0.00     0.000 C
ATOM      3  C3  IDS C   1     153.307  39.077  52.1780  0.00  0.00     0.000 C
ATOM      4  C4  IDS C   1     153.506  40.583  52.2730  0.00  0.00     0.000 C
ATOM      5  C5  IDS C   1     154.956  40.940  51.9590  0.00  0.00     0.000 C
ATOM      6  O5  IDS C   1     155.569  39.889  51.2120  0.00  0.00     0.000 O
ATOM      7   O  IDS C   1     152.121  38.694  52.8900  0.00  0.00     0.000 O
ATOM      9  HD  IDS C   1     152.183  37.854  53.0890  0.00  0.00     0.000 HD
ENDROOT
BRANCH 2 9
ATOM      9   O  IDS C   1     154.245  36.888  52.6210  0.00  0.00     0.000 O
ATOM     10   S  IDS C   1     154.201  35.982  53.9320  0.00  0.00     0.000 S
ATOM     11   O  IDS C   1     153.912  34.640  53.4770  0.00  0.00     0.000 OA
ATOM     12   O  IDS C   1     155.514  36.103  54.5330  0.00  0.00     0.000 OA
ATOM     13   O  IDS C   1     153.150  36.533  54.7580  0.00  0.00     0.000 OA
ENDBRANCH 2 9
BRANCH 5 14
ATOM     14   C  IDS C   1     155.069  42.228  51.1610  0.00  0.00     0.000 C
ATOM     15   O  IDS C   1     154.544  43.232  51.5760  0.00  0.00     0.000 OA
ATOM     16   O  IDS C   1     155.687  42.236  50.1090  0.00  0.00     0.000 OA
ENDBRANCH 5 14
BRANCH 1 17
ATOM     17  O4  SGN C   2     156.716  37.837  51.6340  0.00  0.00     0.000 O
BRANCH 17 21
ATOM     18  C1  SGN C   2     159.309  36.090  48.8510  0.00  0.00     0.000 C
ATOM     19  C2  SGN C   2     158.560  37.349  48.3960  0.00  0.00     0.000 C
ATOM     20  C3  SGN C   2     158.005  38.093  49.6170  0.00  0.00     0.000 C
ATOM     21  C4  SGN C   2     157.168  37.148  50.4720  0.00  0.00     0.000 C
ATOM     22  C5  SGN C   2     158.020  35.945  50.8630  0.00  0.00     0.000 C
ATOM     23  O5  SGN C   2     158.499  35.277  49.6740  0.00  0.00     0.000 O
ATOM     24   O  SGN C   2     157.239  39.208  49.1940  0.00  0.00     0.000 O
ATOM     26  HD  SGN C   2     157.809  38.777  49.6820  0.00  0.00     0.000 HD
BRANCH 19 28
ATOM     26   N  SGN C   2     159.380  37.781  47.2560  0.00  0.00     0.000 N
ATOM     28  HD  SGN C   2     159.448  36.918  47.2430  0.00  0.00     0.000 HD
ATOM     28   O  SGN C   2     159.778  39.402  45.4020  0.00  0.00     0.000 OA
ATOM     29   S  SGN C   2     158.733  38.347  45.8970  0.00  0.00     0.000 S
ATOM     30   O  SGN C   2     158.692  37.282  44.9700  0.00  0.00     0.000 OA
ATOM     31   O  SGN C   2     157.532  39.025  46.2410  0.00  0.00     0.000 OA
ENDBRANCH 19 28
BRANCH 22 32
ATOM     32   C  SGN C   2     157.266  34.914  51.6680  0.00  0.00     0.000 C
ATOM     33   S  SGN C   2     157.705  33.254  53.5900  0.00  0.00     0.000 S
ATOM     34   O  SGN C   2     158.382  32.323  52.7220  0.00  0.00     0.000 OA
ATOM     35   O  SGN C   2     158.305  33.367  54.9030  0.00  0.00     0.000 OA
ATOM     36   O  SGN C   2     156.271  33.090  53.6250  0.00  0.00     0.000 OA
ATOM     37   O  SGN C   2     157.947  34.676  52.9050  0.00  0.00     0.000 O
ENDBRANCH 22 32
BRANCH 18 38
ATOM     38  O4  IDS C   3     160.533  35.955  49.3660  0.00  0.00     0.000 O
BRANCH 38 42
ATOM     39  C1  IDS C   3     163.887  35.445  50.1510  0.00  0.00     0.000 C
ATOM     40  C2  IDS C   3     162.811  34.434  50.5800  0.00  0.00     0.000 C
ATOM     41  C3  IDS C   3     161.669  35.126  51.3240  0.00  0.00     0.000 C
ATOM     42  C4  IDS C   3     161.189  36.359  50.5730  0.00  0.00     0.000 C
ATOM     43  C5  IDS C   3     162.382  37.264  50.2420  0.00  0.00     0.000 C
ATOM     44  O5  IDS C   3     163.315  36.534  49.4480  0.00  0.00     0.000 O
ATOM     45   O  IDS C   3     162.114  35.499  52.6300  0.00  0.00     0.000 O
ATOM     47  HD  IDS C   3     162.771  35.969  52.9420  0.00  0.00     0.000 HD
BRANCH 40 47
ATOM     47   O  IDS C   3     162.227  33.762  49.3950  0.00  0.00     0.000 O
ATOM     48   S  IDS C   3     162.189  32.165  49.3240  0.00  0.00     0.000 S
ATOM     49   O  IDS C   3     163.534  31.751  48.9870  0.00  0.00     0.000 OA
ATOM     50   O  IDS C   3     161.237  31.853  48.2810  0.00  0.00     0.000 OA
ATOM     51   O  IDS C   3     161.775  31.710  50.6240  0.00  0.00     0.000 OA
ENDBRANCH 40 47
BRANCH 43 52
ATOM     52   C  IDS C   3     161.976  38.528  49.5170  0.00  0.00     0.000 C
ATOM     53   O  IDS C   3     161.436  39.424  50.1240  0.00  0.00     0.000 OA
ATOM     54   O  IDS C   3     162.194  38.635  48.3370  0.00  0.00     0.000 OA
ENDBRANCH 43 52
BRANCH 39 55
ATOM     55  O4  SGN C   4     164.932  35.777  50.9100  0.00  0.00     0.000 O
BRANCH 55 59
ATOM     56  C1  SGN C   4     167.967  38.407  52.0830  0.00  0.00     0.000 C
ATOM     57  C2  SGN C   4     166.610  38.564  52.7910  0.00  0.00     0.000 C
ATOM     58  C3  SGN C   4     165.740  37.329  52.5720  0.00  0.00     0.000 C
ATOM     59  C4  SGN C   4     165.656  36.986  51.0890  0.00  0.00     0.000 C
ATOM     60  C5  SGN C   4     167.073  36.831  50.5400  0.00  0.00     0.000 C
ATOM     61  O5  SGN C   4     167.767  38.082  50.7170  0.00  0.00     0.000 O
ATOM     62   O  SGN C   4     164.444  37.559  53.1080  0.00  0.00     0.000 O
ATOM     64  HD  SGN C   4     164.968  38.056  53.5860  0.00  0.00     0.000 HD
BRANCH 57 66
ATOM     64   N  SGN C   4     166.982  39.919  53.2260  0.00  0.00     0.000 N
ATOM     66  HD  SGN C   4     166.588  40.578  53.6270  0.00  0.00     0.000 HD
ATOM     66   S  SGN C   4     166.764  40.374  54.7400  0.00  0.00     0.000 S
ATOM     67   O  SGN C   4     167.155  41.734  54.8360  0.00  0.00     0.000 OA
ATOM     68   O  SGN C   4     165.441  40.000  55.1000  0.00  0.00     0.000 OA
ATOM     69   O  SGN C   4     167.771  39.488  55.5420  0.00  0.00     0.000 OA
ENDBRANCH 57 66
BRANCH 60 70
ATOM     70   C  SGN C   4     167.123  36.478  49.0700  0.00  0.00     0.000 C
ATOM     71   O  SGN C   4     168.220  33.215  47.5680  0.00  0.00     0.000 OA
ATOM     72   O  SGN C   4     165.957  33.997  47.9010  0.00  0.00     0.000 OA
ATOM     73   O  SGN C   4     167.792  35.217  48.8750  0.00  0.00     0.000 O
ATOM     74   S  SGN C   4     167.328  34.350  47.6140  0.00  0.00     0.000 S
ATOM     75   O  SGN C   4     167.469  35.242  46.4800  0.00  0.00     0.000 OA
ENDBRANCH 60 70
BRANCH 56 76
ATOM     76  O4  IDS C   5     169.189  37.963  52.4320  0.00  0.00     0.000 O
BRANCH 76 80
ATOM     77  C1  IDS C   5     169.964  33.980  51.9930  0.00  0.00     0.000 C
ATOM     78  C2  IDS C   5     169.636  34.408  53.4230  0.00  0.00     0.000 C
ATOM     79  C3  IDS C   5     168.950  35.760  53.4100  0.00  0.00     0.000 C
ATOM     80  C4  IDS C   5     169.921  36.821  52.9010  0.00  0.00     0.000 C
ATOM     81  C5  IDS C   5     170.774  36.229  51.7700  0.00  0.00     0.000 C
ATOM     82  O5  IDS C   5     170.099  35.128  51.1550  0.00  0.00     0.000 O
BRANCH 78 83
ATOM     83   O  IDS C   5     168.730  33.430  54.0680  0.00  0.00     0.000 O
ATOM     84   S  IDS C   5     169.271  32.509  55.2530  0.00  0.00     0.000 S
ATOM     85   O  IDS C   5     170.513  31.953  54.7860  0.00  0.00     0.000 OA
ATOM     86   O  IDS C   5     169.435  33.398  56.3780  0.00  0.00     0.000 OA
ATOM     87   O  IDS C   5     168.250  31.515  55.4730  0.00  0.00     0.000 OA
ENDBRANCH 78 83
BRANCH 81 88
ATOM     88   C  IDS C   5     171.121  37.222  50.6760  0.00  0.00     0.000 C
ATOM     89   O  IDS C   5     170.676  37.073  49.5690  0.00  0.00     0.000 OA
ATOM     90   O  IDS C   5     171.843  38.160  50.9250  0.00  0.00     0.000 OA
ENDBRANCH 81 88
ENDBRANCH 76 80
ENDBRANCH 56 76
ENDBRANCH 55 59
ENDBRANCH 39 55
ENDBRANCH 38 42
ENDBRANCH 18 38
ENDBRANCH 17 21
ENDBRANCH 1 17
TORSDOF 18
ENDMDL
MODEL 99
REMARK VINA RESULT:      -6.6     21.880     26.142
ROOT
ATOM      1  C1  IDS C   1     157.863  35.365  51.3080  0.00  0.00     0.000 C
ATOM      2  C2  IDS C   1     157.077  34.474  52.2740  0.00  0.00     0.000 C
ATOM      3  C3  IDS C   1     157.980  33.418  52.8920  0.00  0.00     0.000 C
ATOM      4  C4  IDS C   1     158.611  32.551  51.8100  0.00  0.00     0.000 C
ATOM      5  C5  IDS C   1     158.996  33.410  50.6100  0.00  0.00     0.000 C
ATOM      6  O5  IDS C   1     159.121  34.777  51.0040  0.00  0.00     0.000 O
ATOM      7   O  IDS C   1     157.223  32.600  53.7950  0.00  0.00     0.000 O
ATOM      9  HD  IDS C   1     156.643  33.102  54.1960  0.00  0.00     0.000 HD
ENDROOT
BRANCH 2 9
ATOM      9   O  IDS C   1     156.504  35.274  53.3800  0.00  0.00     0.000 O
ATOM     10   S  IDS C   1     154.921  35.438  53.4910  0.00  0.00     0.000 S
ATOM     11   O  IDS C   1     154.688  36.248  54.6660  0.00  0.00     0.000 OA
ATOM     12   O  IDS C   1     154.510  36.090  52.2650  0.00  0.00     0.000 OA
ATOM     13   O  IDS C   1     154.394  34.097  53.6210  0.00  0.00     0.000 OA
ENDBRANCH 2 9
BRANCH 5 14
ATOM     14   C  IDS C   1     160.307  32.967  49.9840  0.00  0.00     0.000 C
ATOM     15   O  IDS C   1     160.577  31.792  49.9390  0.00  0.00     0.000 OA
ATOM     16   O  IDS C   1     161.076  33.801  49.5370  0.00  0.00     0.000 OA
ENDBRANCH 5 14
BRANCH 1 17
ATOM     17  O4  SGN C   2     157.718  36.692  51.2610  0.00  0.00     0.000 O
BRANCH 17 21
ATOM     18  C1  SGN C   2     159.165  40.621  51.2800  0.00  0.00     0.000 C
ATOM     19  C2  SGN C   2     160.213  39.503  51.1960  0.00  0.00     0.000 C
ATOM     20  C3  SGN C   2     159.540  38.191  50.7760  0.00  0.00     0.000 C
ATOM     21  C4  SGN C   2     158.372  37.878  51.7050  0.00  0.00     0.000 C
ATOM     22  C5  SGN C   2     157.402  39.056  51.6990  0.00  0.00     0.000 C
ATOM     23  O5  SGN C   2     158.089  40.257  52.1190  0.00  0.00     0.000 O
ATOM     24   O  SGN C   2     160.490  37.138  50.7820  0.00  0.00     0.000 O
ATOM     26  HD  SGN C   2     159.827  37.607  50.4810  0.00  0.00     0.000 HD
BRANCH 19 28
ATOM     26   N  SGN C   2     161.383  40.237  50.6970  0.00  0.00     0.000 N
ATOM     28  HD  SGN C   2     160.979  40.813  51.2010  0.00  0.00     0.000 HD
ATOM     28   O  SGN C   2     163.767  40.212  49.9610  0.00  0.00     0.000 OA
ATOM     29   S  SGN C   2     162.874  39.933  51.2170  0.00  0.00     0.000 S
ATOM     30   O  SGN C   2     163.181  40.889  52.2110  0.00  0.00     0.000 OA
ATOM     31   O  SGN C   2     162.949  38.547  51.5270  0.00  0.00     0.000 OA
ENDBRANCH 19 28
BRANCH 22 32
ATOM     32   C  SGN C   2     156.233  38.873  52.6350  0.00  0.00     0.000 C
ATOM     33   S  SGN C   2     154.605  40.322  54.0100  0.00  0.00     0.000 S
ATOM     34   O  SGN C   2     155.592  40.586  55.0280  0.00  0.00     0.000 OA
ATOM     35   O  SGN C   2     153.766  41.463  53.7060  0.00  0.00     0.000 OA
ATOM     36   O  SGN C   2     153.863  39.100  54.2120  0.00  0.00     0.000 OA
ATOM     37   O  SGN C   2     155.462  40.079  52.6860  0.00  0.00     0.000 O
ENDBRANCH 22 32
BRANCH 18 38
ATOM     38  O4  IDS C   3     158.593  41.340  50.3110  0.00  0.00     0.000 O
BRANCH 38 42
ATOM     39  C1  IDS C   3     155.765  43.359  50.5370  0.00  0.00     0.000 C
ATOM     40  C2  IDS C   3     156.115  42.630  49.2300  0.00  0.00     0.000 C
ATOM     41  C3  IDS C   3     157.556  42.914  48.8080  0.00  0.00     0.000 C
ATOM     42  C4  IDS C   3     158.519  42.729  49.9730  0.00  0.00     0.000 C
ATOM     43  C5  IDS C   3     158.032  43.536  51.1820  0.00  0.00     0.000 C
ATOM     44  O5  IDS C   3     156.726  43.092  51.5450  0.00  0.00     0.000 O
ATOM     45   O  IDS C   3     157.649  44.251  48.3130  0.00  0.00     0.000 O
ATOM     47  HD  IDS C   3     157.452  45.035  48.6260  0.00  0.00     0.000 HD
BRANCH 40 47
ATOM     47   O  IDS C   3     155.982  41.164  49.4010  0.00  0.00     0.000 O
ATOM     48   S  IDS C   3     154.636  40.429  48.9490  0.00  0.00     0.000 S
ATOM     49   O  IDS C   3     153.663  40.711  49.9830  0.00  0.00     0.000 OA
ATOM     50   O  IDS C   3     154.974  39.024  48.8760  0.00  0.00     0.000 OA
ATOM     51   O  IDS C   3     154.273  40.991  47.6750  0.00  0.00     0.000 OA
ENDBRANCH 40 47
BRANCH 43 52
ATOM     52   C  IDS C   3     158.957  43.422  52.3740  0.00  0.00     0.000 C
ATOM     53   O  IDS C   3     158.500  43.206  53.4730  0.00  0.00     0.000 OA
ATOM     54   O  IDS C   3     160.145  43.547  52.2210  0.00  0.00     0.000 OA
ENDBRANCH 43 52
BRANCH 39 55
ATOM     55  O4  SGN C   4     155.259  44.592  50.5830  0.00  0.00     0.000 O
BRANCH 55 59
ATOM     56  C1  SGN C   4     152.593  45.426  53.6970  0.00  0.00     0.000 C
ATOM     57  C2  SGN C   4     152.017  44.684  52.4780  0.00  0.00     0.000 C
ATOM     58  C3  SGN C   4     153.136  44.102  51.6200  0.00  0.00     0.000 C
ATOM     59  C4  SGN C   4     154.173  45.170  51.2920  0.00  0.00     0.000 C
ATOM     60  C5  SGN C   4     154.672  45.787  52.5970  0.00  0.00     0.000 C
ATOM     61  O5  SGN C   4     153.548  46.385  53.2730  0.00  0.00     0.000 O
ATOM     62   O  SGN C   4     152.587  43.554  50.4290  0.00  0.00     0.000 O
ATOM     64  HD  SGN C   4     151.951  43.485  51.0130  0.00  0.00     0.000 HD
BRANCH 57 66
ATOM     64   N  SGN C   4     151.053  43.793  53.1450  0.00  0.00     0.000 N
ATOM     66  HD  SGN C   4     150.357  43.891  53.6510  0.00  0.00     0.000 HD
ATOM     66   S  SGN C   4     149.485  43.975  52.9130  0.00  0.00     0.000 S
ATOM     67   O  SGN C   4     148.822  43.022  53.7270  0.00  0.00     0.000 OA
ATOM     68   O  SGN C   4     149.197  45.358  53.0800  0.00  0.00     0.000 OA
ATOM     69   O  SGN C   4     149.286  43.601  51.4090  0.00  0.00     0.000 OA
ENDBRANCH 57 66
BRANCH 60 70
ATOM     70   C  SGN C   4     155.719  46.862  52.4030  0.00  0.00     0.000 C
ATOM     71   O  SGN C   4     155.170  50.578  52.4300  0.00  0.00     0.000 OA
ATOM     72   O  SGN C   4     156.067  49.207  54.2090  0.00  0.00     0.000 OA
ATOM     73   O  SGN C   4     155.097  48.155  52.2700  0.00  0.00     0.000 O
ATOM     74   S  SGN C   4     155.944  49.411  52.7830  0.00  0.00     0.000 S
ATOM     75   O  SGN C   4     157.206  49.319  52.0760  0.00  0.00     0.000 OA
ENDBRANCH 60 70
BRANCH 56 76
ATOM     76  O4  IDS C   5     152.876  45.104  54.9730  0.00  0.00     0.000 O
BRANCH 76 80
ATOM     77  C1  IDS C   5     154.808  44.523  58.5210  0.00  0.00     0.000 C
ATOM     78  C2  IDS C   5     155.603  44.095  57.2880  0.00  0.00     0.000 C
ATOM     79  C3  IDS C   5     155.015  44.738  56.0470  0.00  0.00     0.000 C
ATOM     80  C4  IDS C   5     153.609  44.196  55.8080  0.00  0.00     0.000 C
ATOM     81  C5  IDS C   5     152.898  44.016  57.1570  0.00  0.00     0.000 C
ATOM     82  O5  IDS C   5     153.475  44.872  58.1480  0.00  0.00     0.000 O
BRANCH 78 83
ATOM     83   O  IDS C   5     157.020  44.513  57.4060  0.00  0.00     0.000 O
ATOM     84   S  IDS C   5     158.132  43.442  57.8050  0.00  0.00     0.000 S
ATOM     85   O  IDS C   5     157.619  42.747  58.9540  0.00  0.00     0.000 OA
ATOM     86   O  IDS C   5     158.274  42.594  56.6450  0.00  0.00     0.000 OA
ATOM     87   O  IDS C   5     159.325  44.204  58.0850  0.00  0.00     0.000 OA
ENDBRANCH 78 83
BRANCH 81 88
ATOM     88   C  IDS C   5     151.409  44.307  57.1120  0.00  0.00     0.000 C
ATOM     89   O  IDS C   5     150.635  43.430  56.8370  0.00  0.00     0.000 OA
ATOM     90   O  IDS C   5     151.010  45.423  57.3540  0.00  0.00     0.000 OA
ENDBRANCH 81 88
ENDBRANCH 76 80
ENDBRANCH 56 76
ENDBRANCH 55 59
ENDBRANCH 39 55
ENDBRANCH 38 42
ENDBRANCH 18 38
ENDBRANCH 17 21
ENDBRANCH 1 17
TORSDOF 18
ENDMDL
MODEL 100
REMARK VINA RESULT:      -6.6      4.186      7.870
ROOT
ATOM      1  C1  IDS C   1     145.181  21.133  59.5720  0.00  0.00     0.000 C
ATOM      2  C2  IDS C   1     146.611  20.595  59.4760  0.00  0.00     0.000 C
ATOM      3  C3  IDS C   1     147.083  20.073  60.8250  0.00  0.00     0.000 C
ATOM      4  C4  IDS C   1     147.031  21.174  61.8750  0.00  0.00     0.000 C
ATOM      5  C5  IDS C   1     145.782  22.027  61.6770  0.00  0.00     0.000 C
ATOM      6  O5  IDS C   1     144.804  21.300  60.9330  0.00  0.00     0.000 O
ATOM      7   O  IDS C   1     148.422  19.570  60.7100  0.00  0.00     0.000 O
ATOM      9  HD  IDS C   1     148.504  19.190  59.9350  0.00  0.00     0.000 HD
ENDROOT
BRANCH 2 9
ATOM      9   O  IDS C   1     146.688  19.474  58.5120  0.00  0.00     0.000 O
ATOM     10   S  IDS C   1     147.773  19.518  57.3440  0.00  0.00     0.000 S
ATOM     11   O  IDS C   1     147.601  18.292  56.5970  0.00  0.00     0.000 OA
ATOM     12   O  IDS C   1     147.459  20.700  56.5670  0.00  0.00     0.000 OA
ATOM     13   O  IDS C   1     149.058  19.600  58.0010  0.00  0.00     0.000 OA
ENDBRANCH 2 9
BRANCH 5 14
ATOM     14   C  IDS C   1     145.163  22.452  62.9980  0.00  0.00     0.000 C
ATOM     15   O  IDS C   1     144.092  22.001  63.3250  0.00  0.00     0.000 OA
ATOM     16   O  IDS C   1     145.750  23.246  63.7140  0.00  0.00     0.000 OA
ENDBRANCH 5 14
BRANCH 1 17
ATOM     17  O4  SGN C   2     144.249  20.891  58.6470  0.00  0.00     0.000 O
BRANCH 17 21
ATOM     18  C1  SGN C   2     140.977  18.888  56.9700  0.00  0.00     0.000 C
ATOM     19  C2  SGN C   2     141.207  18.689  58.4730  0.00  0.00     0.000 C
ATOM     20  C3  SGN C   2     142.140  19.784  59.0050  0.00  0.00     0.000 C
ATOM     21  C4  SGN C   2     143.422  19.826  58.1820  0.00  0.00     0.000 C
ATOM     22  C5  SGN C   2     143.065  20.031  56.7130  0.00  0.00     0.000 C
ATOM     23  O5  SGN C   2     142.200  18.962  56.2670  0.00  0.00     0.000 O
ATOM     24   O  SGN C   2     142.423  19.553  60.3750  0.00  0.00     0.000 O
ATOM     26  HD  SGN C   2     142.228  20.021  59.6730  0.00  0.00     0.000 HD
BRANCH 19 28
ATOM     26   N  SGN C   2     139.953  18.654  59.2390  0.00  0.00     0.000 N
ATOM     28  HD  SGN C   2     139.760  19.141  58.5490  0.00  0.00     0.000 HD
ATOM     28   O  SGN C   2     138.406  17.411  60.7500  0.00  0.00     0.000 OA
ATOM     29   S  SGN C   2     139.030  17.339  59.3160  0.00  0.00     0.000 S
ATOM     30   O  SGN C   2     137.996  17.489  58.3650  0.00  0.00     0.000 OA
ATOM     31   O  SGN C   2     139.887  16.206  59.2500  0.00  0.00     0.000 OA
ENDBRANCH 19 28
BRANCH 22 32
ATOM     32   C  SGN C   2     144.266  20.030  55.7990  0.00  0.00     0.000 C
ATOM     33   S  SGN C   2     144.944  19.107  53.4900  0.00  0.00     0.000 S
ATOM     34   O  SGN C   2     145.124  17.771  54.0010  0.00  0.00     0.000 OA
ATOM     35   O  SGN C   2     144.346  19.149  52.1720  0.00  0.00     0.000 OA
ATOM     36   O  SGN C   2     146.109  19.949  53.6200  0.00  0.00     0.000 OA
ATOM     37   O  SGN C   2     143.850  19.753  54.4570  0.00  0.00     0.000 O
ENDBRANCH 22 32
BRANCH 18 38
ATOM     38  O4  IDS C   3     140.180  19.742  56.3250  0.00  0.00     0.000 O
BRANCH 38 42
ATOM     39  C1  IDS C   3     137.688  21.552  54.6990  0.00  0.00     0.000 C
ATOM     40  C2  IDS C   3     138.770  20.803  53.9040  0.00  0.00     0.000 C
ATOM     41  C3  IDS C   3     140.170  21.177  54.3880  0.00  0.00     0.000 C
ATOM     42  C4  IDS C   3     140.266  21.108  55.9060  0.00  0.00     0.000 C
ATOM     43  C5  IDS C   3     139.129  21.922  56.5350  0.00  0.00     0.000 C
ATOM     44  O5  IDS C   3     137.879  21.395  56.0950  0.00  0.00     0.000 O
ATOM     45   O  IDS C   3     140.486  22.498  53.9440  0.00  0.00     0.000 O
ATOM     47  HD  IDS C   3     140.113  23.276  54.0220  0.00  0.00     0.000 HD
BRANCH 40 47
ATOM     47   O  IDS C   3     138.618  19.338  54.0730  0.00  0.00     0.000 O
ATOM     48   S  IDS C   3     138.433  18.404  52.7870  0.00  0.00     0.000 S
ATOM     49   O  IDS C   3     137.057  18.572  52.3700  0.00  0.00     0.000 OA
ATOM     50   O  IDS C   3     138.711  17.062  53.2490  0.00  0.00     0.000 OA
ATOM     51   O  IDS C   3     139.375  18.871  51.8060  0.00  0.00     0.000 OA
ENDBRANCH 40 47
BRANCH 43 52
ATOM     52   C  IDS C   3     139.176  21.922  58.0470  0.00  0.00     0.000 C
ATOM     53   O  IDS C   3     139.813  22.769  58.6300  0.00  0.00     0.000 OA
ATOM     54   O  IDS C   3     138.578  21.078  58.6630  0.00  0.00     0.000 OA
ENDBRANCH 43 52
BRANCH 39 55
ATOM     55  O4  SGN C   4     137.207  22.744  54.3470  0.00  0.00     0.000 O
BRANCH 55 59
ATOM     56  C1  SGN C   4     133.805  22.559  51.9190  0.00  0.00     0.000 C
ATOM     57  C2  SGN C   4     135.151  22.759  51.2020  0.00  0.00     0.000 C
ATOM     58  C3  SGN C   4     136.314  22.416  52.1290  0.00  0.00     0.000 C
ATOM     59  C4  SGN C   4     136.177  23.152  53.4570  0.00  0.00     0.000 C
ATOM     60  C5  SGN C   4     134.811  22.829  54.0590  0.00  0.00     0.000 C
ATOM     61  O5  SGN C   4     133.795  23.280  53.1410  0.00  0.00     0.000 O
ATOM     62   O  SGN C   4     137.542  22.750  51.4960  0.00  0.00     0.000 O
ATOM     64  HD  SGN C   4     137.002  22.573  50.8420  0.00  0.00     0.000 HD
BRANCH 57 66
ATOM     64   N  SGN C   4     134.779  23.449  49.9570  0.00  0.00     0.000 N
ATOM     66  HD  SGN C   4     135.146  23.590  49.1850  0.00  0.00     0.000 HD
ATOM     66   S  SGN C   4     134.834  22.684  48.5570  0.00  0.00     0.000 S
ATOM     67   O  SGN C   4     134.483  23.617  47.5490  0.00  0.00     0.000 OA
ATOM     68   O  SGN C   4     136.093  22.026  48.4920  0.00  0.00     0.000 OA
ATOM     69   O  SGN C   4     133.710  21.606  48.6790  0.00  0.00     0.000 OA
ENDBRANCH 57 66
BRANCH 60 70
ATOM     70   C  SGN C   4     134.557  23.498  55.3930  0.00  0.00     0.000 C
ATOM     71   O  SGN C   4     131.222  24.385  56.8730  0.00  0.00     0.000 OA
ATOM     72   O  SGN C   4     132.625  22.495  57.4280  0.00  0.00     0.000 OA
ATOM     73   O  SGN C   4     133.169  23.861  55.5200  0.00  0.00     0.000 O
ATOM     74   S  SGN C   4     132.568  23.875  57.0010  0.00  0.00     0.000 S
ATOM     75   O  SGN C   4     133.448  24.748  57.7510  0.00  0.00     0.000 OA
ENDBRANCH 60 70
BRANCH 56 76
ATOM     76  O4  IDS C   5     132.913  21.557  52.0300  0.00  0.00     0.000 O
BRANCH 76 80
ATOM     77  C1  IDS C   5     128.975  20.642  51.4750  0.00  0.00     0.000 C
ATOM     78  C2  IDS C   5     129.239  21.665  52.5790  0.00  0.00     0.000 C
ATOM     79  C3  IDS C   5     130.626  22.254  52.4140  0.00  0.00     0.000 C
ATOM     80  C4  IDS C   5     131.672  21.166  52.6360  0.00  0.00     0.000 C
ATOM     81  C5  IDS C   5     131.172  19.847  52.0290  0.00  0.00     0.000 C
ATOM     82  O5  IDS C   5     130.208  20.100  51.0020  0.00  0.00     0.000 O
BRANCH 78 83
ATOM     83   O  IDS C   5     128.251  22.768  52.5180  0.00  0.00     0.000 O
ATOM     84   S  IDS C   5     127.513  23.245  53.8500  0.00  0.00     0.000 S
ATOM     85   O  IDS C   5     127.031  22.049  54.4860  0.00  0.00     0.000 OA
ATOM     86   O  IDS C   5     128.526  23.929  54.6190  0.00  0.00     0.000 OA
ATOM     87   O  IDS C   5     126.456  24.125  53.4160  0.00  0.00     0.000 OA
ENDBRANCH 78 83
BRANCH 81 88
ATOM     88   C  IDS C   5     132.270  18.991  51.4250  0.00  0.00     0.000 C
ATOM     89   O  IDS C   5     132.390  18.927  50.2310  0.00  0.00     0.000 OA
ATOM     90   O  IDS C   5     133.019  18.379  52.1510  0.00  0.00     0.000 OA
ENDBRANCH 81 88
ENDBRANCH 76 80
ENDBRANCH 56 76
ENDBRANCH 55 59
ENDBRANCH 39 55
ENDBRANCH 38 42
ENDBRANCH 18 38
ENDBRANCH 17 21
ENDBRANCH 1 17
TORSDOF 18
ENDMDL
